
  -OEChem-05262214473D

 51 50  0     1  0  0  0  0  0999 V2000
    3.4018   -1.2440   -3.0186 C   0  0  0  0  0  0  0  0  0  0  0  0
    3.2697   -2.0909   -2.1427 O   0  0  0  0  0  0  0  0  0  0  0  0
    4.6845   -1.1645   -3.7779 C   0  0  0  0  0  0  0  0  0  0  0  0
    5.4123   -0.4862   -3.3041 H   0  0  0  0  0  0  0  0  0  0  0  0
    5.1949   -2.1387   -3.8443 H   0  0  0  0  0  0  0  0  0  0  0  0
    4.5953   -0.8128   -4.8182 H   0  0  0  0  0  0  0  0  0  0  0  0
    2.4540   -0.3103   -3.4040 N   0  0  0  0  0  0  0  0  0  0  0  0
    1.1494   -0.2128   -2.8039 C   0  0  2  0  0  0  0  0  0  0  0  0
    1.3350    0.0367   -1.3130 C   0  0  0  0  0  0  0  0  0  0  0  0
    2.3625   -0.2586   -0.7063 O   0  0  0  0  0  0  0  0  0  0  0  0
    0.3331   -1.4728   -3.0467 C   0  0  0  0  0  0  0  0  0  0  0  0
    2.6924    0.3404   -4.1502 H   0  0  0  0  0  0  0  0  0  0  0  0
    0.6550    0.6514   -3.2607 H   0  0  0  0  0  0  0  0  0  0  0  0
    0.8129   -2.3494   -2.5963 H   0  0  0  0  0  0  0  0  0  0  0  0
   -0.6690   -1.3857   -2.6142 H   0  0  0  0  0  0  0  0  0  0  0  0
    0.2259   -1.6670   -4.1194 H   0  0  0  0  0  0  0  0  0  0  0  0
    0.2019    0.5893   -0.7269 N   0  0  0  0  0  0  0  0  0  0  0  0
    0.1242    0.9059    0.6756 C   0  0  2  0  0  0  0  0  0  0  0  0
   -1.2633    1.4874    0.9284 C   0  0  0  0  0  0  0  0  0  0  0  0
   -2.1169    1.5885    0.0496 O   0  0  0  0  0  0  0  0  0  0  0  0
    1.2049    1.9060    1.1058 C   0  0  0  0  0  0  0  0  0  0  0  0
    2.6502    1.3752    1.0160 C   0  0  0  0  0  0  0  0  0  0  0  0
    3.6354    2.5057    1.3258 C   0  0  0  0  0  0  0  0  0  0  0  0
    2.9672    0.7772   -0.3554 C   0  0  0  0  0  0  0  0  0  0  0  0
   -0.5975    0.8179   -1.3140 H   0  0  0  0  0  0  0  0  0  0  0  0
    0.2148   -0.0384    1.2218 H   0  0  0  0  0  0  0  0  0  0  0  0
    1.0082    2.2166    2.1416 H   0  0  0  0  0  0  0  0  0  0  0  0
    1.1192    2.8176    0.4995 H   0  0  0  0  0  0  0  0  0  0  0  0
    2.7946    0.5948    1.7730 H   0  0  0  0  0  0  0  0  0  0  0  0
    3.5367    3.3184    0.5982 H   0  0  0  0  0  0  0  0  0  0  0  0
    4.6684    2.1445    1.2822 H   0  0  0  0  0  0  0  0  0  0  0  0
    3.4629    2.9218    2.3243 H   0  0  0  0  0  0  0  0  0  0  0  0
    2.8381    1.5185   -1.1512 H   0  0  0  0  0  0  0  0  0  0  0  0
    4.0016    0.4187   -0.3927 H   0  0  0  0  0  0  0  0  0  0  0  0
    2.3218   -0.0780   -0.5765 H   0  0  0  0  0  0  0  0  0  0  0  0
   -1.4490    1.8308    2.2604 N   0  0  0  0  0  0  0  0  0  0  0  0
   -2.6841    2.3791    2.7727 C   0  0  2  0  0  0  0  0  0  0  0  0
   -3.8382    1.6560    2.0910 C   0  0  0  0  0  0  0  0  0  0  0  0
   -3.7247    1.0803    1.0108 O   0  0  0  0  0  0  0  0  0  0  0  0
   -2.7652    3.8787    2.5334 C   0  0  0  0  0  0  0  0  0  0  0  0
   -0.6914    1.6860    2.9212 H   0  0  0  0  0  0  0  0  0  0  0  0
   -2.7029    2.1665    3.8472 H   0  0  0  0  0  0  0  0  0  0  0  0
   -2.7477    4.1112    1.4624 H   0  0  0  0  0  0  0  0  0  0  0  0
   -3.6884    4.2973    2.9475 H   0  0  0  0  0  0  0  0  0  0  0  0
   -1.9182    4.3940    2.9992 H   0  0  0  0  0  0  0  0  0  0  0  0
   -5.0203    1.7658    2.8098 N   0  0  0  0  0  0  0  0  0  0  0  0
   -6.2611    1.1756    2.3647 C   0  0  0  0  0  0  0  0  0  0  0  0
   -5.0180    2.2455    3.7052 H   0  0  0  0  0  0  0  0  0  0  0  0
   -6.8282    1.9125    1.7770 H   0  0  0  0  0  0  0  0  0  0  0  0
   -6.0454    0.2963    1.7400 H   0  0  0  0  0  0  0  0  0  0  0  0
   -6.8549    0.8682    3.2382 H   0  0  0  0  0  0  0  0  0  0  0  0
  1  3  1  0  0  0  0
  1  7  1  0  0  0  0
  1  2  2  0  0  0  0
 37 38  1  0  0  0  0
 38 46  1  0  0  0  0
 38 39  2  0  0  0  0
  8  9  1  0  0  0  0
  9 17  1  0  0  0  0
  9 10  2  0  0  0  0
 18 19  1  0  0  0  0
 19 36  1  0  0  0  0
 19 20  2  0  0  0  0
 37 40  1  0  0  0  0
  8 11  1  0  0  0  0
 22 23  1  0  0  0  0
 22 24  1  0  0  0  0
 46 47  1  0  0  0  0
 18 21  1  0  0  0  0
 21 22  1  0  0  0  0
 36 37  1  0  0  0  0
  7  8  1  0  0  0  0
 17 18  1  0  0  0  0
  3  4  1  0  0  0  0
  3  5  1  0  0  0  0
  3  6  1  0  0  0  0
 40 43  1  0  0  0  0
 40 44  1  0  0  0  0
 40 45  1  0  0  0  0
 11 14  1  0  0  0  0
 11 15  1  0  0  0  0
 11 16  1  0  0  0  0
 23 30  1  0  0  0  0
 23 31  1  0  0  0  0
 23 32  1  0  0  0  0
 24 33  1  0  0  0  0
 24 34  1  0  0  0  0
 24 35  1  0  0  0  0
 47 49  1  0  0  0  0
 47 50  1  0  0  0  0
 47 51  1  0  0  0  0
 21 27  1  0  0  0  0
 21 28  1  0  0  0  0
 37 42  1  0  0  0  0
  8 13  1  0  0  0  0
 18 26  1  0  0  0  0
 22 29  1  0  0  0  0
 46 48  1  0  0  0  0
  7 12  1  0  0  0  0
 36 41  1  0  0  0  0
 17 25  1  0  0  0  0
M  END
$$$$

  -OEChem-05262214473D

 51 50  0     1  0  0  0  0  0999 V2000
    3.4018   -1.2440   -3.0186 C   0  0  0  0  0  0  0  0  0  0  0  0
    3.2697   -2.0909   -2.1427 O   0  0  0  0  0  0  0  0  0  0  0  0
    4.6845   -1.1645   -3.7779 C   0  0  0  0  0  0  0  0  0  0  0  0
    5.4123   -0.4862   -3.3041 H   0  0  0  0  0  0  0  0  0  0  0  0
    5.1949   -2.1387   -3.8443 H   0  0  0  0  0  0  0  0  0  0  0  0
    4.5953   -0.8128   -4.8182 H   0  0  0  0  0  0  0  0  0  0  0  0
    2.4540   -0.3103   -3.4040 N   0  0  0  0  0  0  0  0  0  0  0  0
    1.1494   -0.2128   -2.8039 C   0  0  2  0  0  0  0  0  0  0  0  0
    1.3350    0.0367   -1.3130 C   0  0  0  0  0  0  0  0  0  0  0  0
    2.3625   -0.2586   -0.7063 O   0  0  0  0  0  0  0  0  0  0  0  0
    0.3331   -1.4728   -3.0467 C   0  0  0  0  0  0  0  0  0  0  0  0
    2.6924    0.3404   -4.1502 H   0  0  0  0  0  0  0  0  0  0  0  0
    0.6550    0.6514   -3.2607 H   0  0  0  0  0  0  0  0  0  0  0  0
    0.8129   -2.3494   -2.5963 H   0  0  0  0  0  0  0  0  0  0  0  0
   -0.6690   -1.3857   -2.6142 H   0  0  0  0  0  0  0  0  0  0  0  0
    0.2259   -1.6670   -4.1194 H   0  0  0  0  0  0  0  0  0  0  0  0
    0.2019    0.5893   -0.7269 N   0  0  0  0  0  0  0  0  0  0  0  0
    0.1242    0.9059    0.6756 C   0  0  2  0  0  0  0  0  0  0  0  0
   -1.2633    1.4874    0.9284 C   0  0  0  0  0  0  0  0  0  0  0  0
   -2.1996    1.3503    0.1437 O   0  0  0  0  0  0  0  0  0  0  0  0
    1.2049    1.9060    1.1058 C   0  0  0  0  0  0  0  0  0  0  0  0
    2.6502    1.3752    1.0160 C   0  0  0  0  0  0  0  0  0  0  0  0
    3.6354    2.5057    1.3258 C   0  0  0  0  0  0  0  0  0  0  0  0
    2.9672    0.7772   -0.3554 C   0  0  0  0  0  0  0  0  0  0  0  0
   -0.5975    0.8179   -1.3140 H   0  0  0  0  0  0  0  0  0  0  0  0
    0.2148   -0.0384    1.2218 H   0  0  0  0  0  0  0  0  0  0  0  0
    1.0082    2.2166    2.1416 H   0  0  0  0  0  0  0  0  0  0  0  0
    1.1192    2.8176    0.4995 H   0  0  0  0  0  0  0  0  0  0  0  0
    2.7946    0.5948    1.7730 H   0  0  0  0  0  0  0  0  0  0  0  0
    3.5367    3.3184    0.5982 H   0  0  0  0  0  0  0  0  0  0  0  0
    4.6684    2.1445    1.2822 H   0  0  0  0  0  0  0  0  0  0  0  0
    3.4629    2.9218    2.3243 H   0  0  0  0  0  0  0  0  0  0  0  0
    2.8381    1.5185   -1.1512 H   0  0  0  0  0  0  0  0  0  0  0  0
    4.0016    0.4187   -0.3927 H   0  0  0  0  0  0  0  0  0  0  0  0
    2.3218   -0.0780   -0.5765 H   0  0  0  0  0  0  0  0  0  0  0  0
   -1.3421    2.1315    2.1554 N   0  0  0  0  0  0  0  0  0  0  0  0
   -2.5521    2.7471    2.6511 C   0  0  2  0  0  0  0  0  0  0  0  0
   -3.7235    1.8472    2.2804 C   0  0  0  0  0  0  0  0  0  0  0  0
   -3.6802    1.0352    1.3585 O   0  0  0  0  0  0  0  0  0  0  0  0
   -2.7370    4.1437    2.0784 C   0  0  0  0  0  0  0  0  0  0  0  0
   -0.5193    2.1714    2.7494 H   0  0  0  0  0  0  0  0  0  0  0  0
   -2.4586    2.7953    3.7415 H   0  0  0  0  0  0  0  0  0  0  0  0
   -2.8326    4.1155    0.9868 H   0  0  0  0  0  0  0  0  0  0  0  0
   -3.6391    4.6197    2.4769 H   0  0  0  0  0  0  0  0  0  0  0  0
   -1.8797    4.7810    2.3206 H   0  0  0  0  0  0  0  0  0  0  0  0
   -4.8375    2.0879    3.0725 N   0  0  0  0  0  0  0  0  0  0  0  0
   -6.0803    1.3706    2.9086 C   0  0  0  0  0  0  0  0  0  0  0  0
   -4.7777    2.7663    3.8260 H   0  0  0  0  0  0  0  0  0  0  0  0
   -6.7394    1.9288    2.2274 H   0  0  0  0  0  0  0  0  0  0  0  0
   -5.8762    0.3751    2.4873 H   0  0  0  0  0  0  0  0  0  0  0  0
   -6.5721    1.2611    3.8865 H   0  0  0  0  0  0  0  0  0  0  0  0
  1  3  1  0  0  0  0
  1  7  1  0  0  0  0
  1  2  2  0  0  0  0
 37 38  1  0  0  0  0
 38 46  1  0  0  0  0
 38 39  2  0  0  0  0
  8  9  1  0  0  0  0
  9 17  1  0  0  0  0
  9 10  2  0  0  0  0
 18 19  1  0  0  0  0
 19 36  1  0  0  0  0
 19 20  2  0  0  0  0
 37 40  1  0  0  0  0
  8 11  1  0  0  0  0
 22 23  1  0  0  0  0
 22 24  1  0  0  0  0
 46 47  1  0  0  0  0
 18 21  1  0  0  0  0
 21 22  1  0  0  0  0
 36 37  1  0  0  0  0
  7  8  1  0  0  0  0
 17 18  1  0  0  0  0
  3  4  1  0  0  0  0
  3  5  1  0  0  0  0
  3  6  1  0  0  0  0
 40 43  1  0  0  0  0
 40 44  1  0  0  0  0
 40 45  1  0  0  0  0
 11 14  1  0  0  0  0
 11 15  1  0  0  0  0
 11 16  1  0  0  0  0
 23 30  1  0  0  0  0
 23 31  1  0  0  0  0
 23 32  1  0  0  0  0
 24 33  1  0  0  0  0
 24 34  1  0  0  0  0
 24 35  1  0  0  0  0
 47 49  1  0  0  0  0
 47 50  1  0  0  0  0
 47 51  1  0  0  0  0
 21 27  1  0  0  0  0
 21 28  1  0  0  0  0
 37 42  1  0  0  0  0
  8 13  1  0  0  0  0
 18 26  1  0  0  0  0
 22 29  1  0  0  0  0
 46 48  1  0  0  0  0
  7 12  1  0  0  0  0
 36 41  1  0  0  0  0
 17 25  1  0  0  0  0
M  END
$$$$

  -OEChem-05262214473D

 51 50  0     1  0  0  0  0  0999 V2000
    3.4018   -1.2440   -3.0186 C   0  0  0  0  0  0  0  0  0  0  0  0
    3.2697   -2.0909   -2.1427 O   0  0  0  0  0  0  0  0  0  0  0  0
    4.6845   -1.1645   -3.7779 C   0  0  0  0  0  0  0  0  0  0  0  0
    5.4123   -0.4862   -3.3041 H   0  0  0  0  0  0  0  0  0  0  0  0
    5.1949   -2.1387   -3.8443 H   0  0  0  0  0  0  0  0  0  0  0  0
    4.5953   -0.8128   -4.8182 H   0  0  0  0  0  0  0  0  0  0  0  0
    2.4540   -0.3103   -3.4040 N   0  0  0  0  0  0  0  0  0  0  0  0
    1.1494   -0.2128   -2.8039 C   0  0  2  0  0  0  0  0  0  0  0  0
    1.3350    0.0367   -1.3130 C   0  0  0  0  0  0  0  0  0  0  0  0
    2.3625   -0.2586   -0.7063 O   0  0  0  0  0  0  0  0  0  0  0  0
    0.3331   -1.4728   -3.0467 C   0  0  0  0  0  0  0  0  0  0  0  0
    2.6924    0.3404   -4.1502 H   0  0  0  0  0  0  0  0  0  0  0  0
    0.6550    0.6514   -3.2607 H   0  0  0  0  0  0  0  0  0  0  0  0
    0.8129   -2.3494   -2.5963 H   0  0  0  0  0  0  0  0  0  0  0  0
   -0.6690   -1.3857   -2.6142 H   0  0  0  0  0  0  0  0  0  0  0  0
    0.2259   -1.6670   -4.1194 H   0  0  0  0  0  0  0  0  0  0  0  0
    0.2019    0.5893   -0.7269 N   0  0  0  0  0  0  0  0  0  0  0  0
    0.1242    0.9059    0.6756 C   0  0  2  0  0  0  0  0  0  0  0  0
   -1.2633    1.4874    0.9284 C   0  0  0  0  0  0  0  0  0  0  0  0
   -2.2599    1.1388    0.2988 O   0  0  0  0  0  0  0  0  0  0  0  0
    1.2049    1.9060    1.1058 C   0  0  0  0  0  0  0  0  0  0  0  0
    2.6502    1.3752    1.0160 C   0  0  0  0  0  0  0  0  0  0  0  0
    3.6354    2.5057    1.3258 C   0  0  0  0  0  0  0  0  0  0  0  0
    2.9672    0.7772   -0.3554 C   0  0  0  0  0  0  0  0  0  0  0  0
   -0.5975    0.8179   -1.3140 H   0  0  0  0  0  0  0  0  0  0  0  0
    0.2148   -0.0384    1.2218 H   0  0  0  0  0  0  0  0  0  0  0  0
    1.0082    2.2166    2.1416 H   0  0  0  0  0  0  0  0  0  0  0  0
    1.1192    2.8176    0.4995 H   0  0  0  0  0  0  0  0  0  0  0  0
    2.7946    0.5948    1.7730 H   0  0  0  0  0  0  0  0  0  0  0  0
    3.5367    3.3184    0.5982 H   0  0  0  0  0  0  0  0  0  0  0  0
    4.6684    2.1445    1.2822 H   0  0  0  0  0  0  0  0  0  0  0  0
    3.4629    2.9218    2.3243 H   0  0  0  0  0  0  0  0  0  0  0  0
    2.8381    1.5185   -1.1512 H   0  0  0  0  0  0  0  0  0  0  0  0
    4.0016    0.4187   -0.3927 H   0  0  0  0  0  0  0  0  0  0  0  0
    2.3218   -0.0780   -0.5765 H   0  0  0  0  0  0  0  0  0  0  0  0
   -1.2622    2.4017    1.9727 N   0  0  0  0  0  0  0  0  0  0  0  0
   -2.4523    3.0796    2.4340 C   0  0  2  0  0  0  0  0  0  0  0  0
   -3.6023    2.0814    2.4071 C   0  0  0  0  0  0  0  0  0  0  0  0
   -3.6010    1.0755    1.7006 O   0  0  0  0  0  0  0  0  0  0  0  0
   -2.7661    4.2937    1.5737 C   0  0  0  0  0  0  0  0  0  0  0  0
   -0.3907    2.6072    2.4523 H   0  0  0  0  0  0  0  0  0  0  0  0
   -2.2600    3.3883    3.4673 H   0  0  0  0  0  0  0  0  0  0  0  0
   -2.9617    4.0041    0.5347 H   0  0  0  0  0  0  0  0  0  0  0  0
   -3.6516    4.8225    1.9416 H   0  0  0  0  0  0  0  0  0  0  0  0
   -1.9261    4.9966    1.5703 H   0  0  0  0  0  0  0  0  0  0  0  0
   -4.6488    2.4686    3.2324 N   0  0  0  0  0  0  0  0  0  0  0  0
   -5.8604    1.6946    3.3702 C   0  0  0  0  0  0  0  0  0  0  0  0
   -4.5560    3.3082    3.7965 H   0  0  0  0  0  0  0  0  0  0  0  0
   -6.6098    2.0543    2.6498 H   0  0  0  0  0  0  0  0  0  0  0  0
   -5.6424    0.6345    3.1739 H   0  0  0  0  0  0  0  0  0  0  0  0
   -6.2518    1.8054    4.3923 H   0  0  0  0  0  0  0  0  0  0  0  0
  1  3  1  0  0  0  0
  1  7  1  0  0  0  0
  1  2  2  0  0  0  0
 37 38  1  0  0  0  0
 38 46  1  0  0  0  0
 38 39  2  0  0  0  0
  8  9  1  0  0  0  0
  9 17  1  0  0  0  0
  9 10  2  0  0  0  0
 18 19  1  0  0  0  0
 19 36  1  0  0  0  0
 19 20  2  0  0  0  0
 37 40  1  0  0  0  0
  8 11  1  0  0  0  0
 22 23  1  0  0  0  0
 22 24  1  0  0  0  0
 46 47  1  0  0  0  0
 18 21  1  0  0  0  0
 21 22  1  0  0  0  0
 36 37  1  0  0  0  0
  7  8  1  0  0  0  0
 17 18  1  0  0  0  0
  3  4  1  0  0  0  0
  3  5  1  0  0  0  0
  3  6  1  0  0  0  0
 40 43  1  0  0  0  0
 40 44  1  0  0  0  0
 40 45  1  0  0  0  0
 11 14  1  0  0  0  0
 11 15  1  0  0  0  0
 11 16  1  0  0  0  0
 23 30  1  0  0  0  0
 23 31  1  0  0  0  0
 23 32  1  0  0  0  0
 24 33  1  0  0  0  0
 24 34  1  0  0  0  0
 24 35  1  0  0  0  0
 47 49  1  0  0  0  0
 47 50  1  0  0  0  0
 47 51  1  0  0  0  0
 21 27  1  0  0  0  0
 21 28  1  0  0  0  0
 37 42  1  0  0  0  0
  8 13  1  0  0  0  0
 18 26  1  0  0  0  0
 22 29  1  0  0  0  0
 46 48  1  0  0  0  0
  7 12  1  0  0  0  0
 36 41  1  0  0  0  0
 17 25  1  0  0  0  0
M  END
$$$$

  -OEChem-05262214473D

 51 50  0     1  0  0  0  0  0999 V2000
    3.4018   -1.2440   -3.0186 C   0  0  0  0  0  0  0  0  0  0  0  0
    3.2697   -2.0909   -2.1427 O   0  0  0  0  0  0  0  0  0  0  0  0
    4.6845   -1.1645   -3.7779 C   0  0  0  0  0  0  0  0  0  0  0  0
    5.4123   -0.4862   -3.3041 H   0  0  0  0  0  0  0  0  0  0  0  0
    5.1949   -2.1387   -3.8443 H   0  0  0  0  0  0  0  0  0  0  0  0
    4.5953   -0.8128   -4.8182 H   0  0  0  0  0  0  0  0  0  0  0  0
    2.4540   -0.3103   -3.4040 N   0  0  0  0  0  0  0  0  0  0  0  0
    1.1494   -0.2128   -2.8039 C   0  0  2  0  0  0  0  0  0  0  0  0
    1.3350    0.0367   -1.3130 C   0  0  0  0  0  0  0  0  0  0  0  0
    2.3625   -0.2586   -0.7063 O   0  0  0  0  0  0  0  0  0  0  0  0
    0.3331   -1.4728   -3.0467 C   0  0  0  0  0  0  0  0  0  0  0  0
    2.6924    0.3404   -4.1502 H   0  0  0  0  0  0  0  0  0  0  0  0
    0.6550    0.6514   -3.2607 H   0  0  0  0  0  0  0  0  0  0  0  0
    0.8129   -2.3494   -2.5963 H   0  0  0  0  0  0  0  0  0  0  0  0
   -0.6690   -1.3857   -2.6142 H   0  0  0  0  0  0  0  0  0  0  0  0
    0.2259   -1.6670   -4.1194 H   0  0  0  0  0  0  0  0  0  0  0  0
    0.2019    0.5893   -0.7269 N   0  0  0  0  0  0  0  0  0  0  0  0
    0.1242    0.9059    0.6756 C   0  0  2  0  0  0  0  0  0  0  0  0
   -1.2633    1.4874    0.9284 C   0  0  0  0  0  0  0  0  0  0  0  0
   -2.2939    0.9684    0.5045 O   0  0  0  0  0  0  0  0  0  0  0  0
    1.2049    1.9060    1.1058 C   0  0  0  0  0  0  0  0  0  0  0  0
    2.6502    1.3752    1.0160 C   0  0  0  0  0  0  0  0  0  0  0  0
    3.6354    2.5057    1.3258 C   0  0  0  0  0  0  0  0  0  0  0  0
    2.9672    0.7772   -0.3554 C   0  0  0  0  0  0  0  0  0  0  0  0
   -0.5975    0.8179   -1.3140 H   0  0  0  0  0  0  0  0  0  0  0  0
    0.2148   -0.0384    1.2218 H   0  0  0  0  0  0  0  0  0  0  0  0
    1.0082    2.2166    2.1416 H   0  0  0  0  0  0  0  0  0  0  0  0
    1.1192    2.8176    0.4995 H   0  0  0  0  0  0  0  0  0  0  0  0
    2.7946    0.5948    1.7730 H   0  0  0  0  0  0  0  0  0  0  0  0
    3.5367    3.3184    0.5982 H   0  0  0  0  0  0  0  0  0  0  0  0
    4.6684    2.1445    1.2822 H   0  0  0  0  0  0  0  0  0  0  0  0
    3.4629    2.9218    2.3243 H   0  0  0  0  0  0  0  0  0  0  0  0
    2.8381    1.5185   -1.1512 H   0  0  0  0  0  0  0  0  0  0  0  0
    4.0016    0.4187   -0.3927 H   0  0  0  0  0  0  0  0  0  0  0  0
    2.3218   -0.0780   -0.5765 H   0  0  0  0  0  0  0  0  0  0  0  0
   -1.2145    2.6232    1.7247 N   0  0  0  0  0  0  0  0  0  0  0  0
   -2.3916    3.3539    2.1361 C   0  0  2  0  0  0  0  0  0  0  0  0
   -3.4827    2.3427    2.4623 C   0  0  0  0  0  0  0  0  0  0  0  0
   -3.4925    1.1982    2.0138 O   0  0  0  0  0  0  0  0  0  0  0  0
   -2.8505    4.3185    1.0537 C   0  0  0  0  0  0  0  0  0  0  0  0
   -0.3146    2.9637    2.0501 H   0  0  0  0  0  0  0  0  0  0  0  0
   -2.1207    3.9051    3.0432 H   0  0  0  0  0  0  0  0  0  0  0  0
   -3.1262    3.7845    0.1370 H   0  0  0  0  0  0  0  0  0  0  0  0
   -3.7253    4.8918    1.3780 H   0  0  0  0  0  0  0  0  0  0  0  0
   -2.0541    5.0263    0.7993 H   0  0  0  0  0  0  0  0  0  0  0  0
   -4.4671    2.8821    3.2786 N   0  0  0  0  0  0  0  0  0  0  0  0
   -5.6163    2.1258    3.7181 C   0  0  0  0  0  0  0  0  0  0  0  0
   -4.3680    3.8341    3.6185 H   0  0  0  0  0  0  0  0  0  0  0  0
   -6.4483    2.2805    3.0155 H   0  0  0  0  0  0  0  0  0  0  0  0
   -5.3600    1.0566    3.7530 H   0  0  0  0  0  0  0  0  0  0  0  0
   -5.9158    2.4639    4.7211 H   0  0  0  0  0  0  0  0  0  0  0  0
  1  3  1  0  0  0  0
  1  7  1  0  0  0  0
  1  2  2  0  0  0  0
 37 38  1  0  0  0  0
 38 46  1  0  0  0  0
 38 39  2  0  0  0  0
  8  9  1  0  0  0  0
  9 17  1  0  0  0  0
  9 10  2  0  0  0  0
 18 19  1  0  0  0  0
 19 36  1  0  0  0  0
 19 20  2  0  0  0  0
 37 40  1  0  0  0  0
  8 11  1  0  0  0  0
 22 23  1  0  0  0  0
 22 24  1  0  0  0  0
 46 47  1  0  0  0  0
 18 21  1  0  0  0  0
 21 22  1  0  0  0  0
 36 37  1  0  0  0  0
  7  8  1  0  0  0  0
 17 18  1  0  0  0  0
  3  4  1  0  0  0  0
  3  5  1  0  0  0  0
  3  6  1  0  0  0  0
 40 43  1  0  0  0  0
 40 44  1  0  0  0  0
 40 45  1  0  0  0  0
 11 14  1  0  0  0  0
 11 15  1  0  0  0  0
 11 16  1  0  0  0  0
 23 30  1  0  0  0  0
 23 31  1  0  0  0  0
 23 32  1  0  0  0  0
 24 33  1  0  0  0  0
 24 34  1  0  0  0  0
 24 35  1  0  0  0  0
 47 49  1  0  0  0  0
 47 50  1  0  0  0  0
 47 51  1  0  0  0  0
 21 27  1  0  0  0  0
 21 28  1  0  0  0  0
 37 42  1  0  0  0  0
  8 13  1  0  0  0  0
 18 26  1  0  0  0  0
 22 29  1  0  0  0  0
 46 48  1  0  0  0  0
  7 12  1  0  0  0  0
 36 41  1  0  0  0  0
 17 25  1  0  0  0  0
M  END
$$$$

  -OEChem-05262214473D

 51 50  0     1  0  0  0  0  0999 V2000
    3.4018   -1.2440   -3.0186 C   0  0  0  0  0  0  0  0  0  0  0  0
    3.2697   -2.0909   -2.1427 O   0  0  0  0  0  0  0  0  0  0  0  0
    4.6845   -1.1645   -3.7779 C   0  0  0  0  0  0  0  0  0  0  0  0
    5.4123   -0.4862   -3.3041 H   0  0  0  0  0  0  0  0  0  0  0  0
    5.1949   -2.1387   -3.8443 H   0  0  0  0  0  0  0  0  0  0  0  0
    4.5953   -0.8128   -4.8182 H   0  0  0  0  0  0  0  0  0  0  0  0
    2.4540   -0.3103   -3.4040 N   0  0  0  0  0  0  0  0  0  0  0  0
    1.1494   -0.2128   -2.8039 C   0  0  2  0  0  0  0  0  0  0  0  0
    1.3350    0.0367   -1.3130 C   0  0  0  0  0  0  0  0  0  0  0  0
    2.3625   -0.2586   -0.7063 O   0  0  0  0  0  0  0  0  0  0  0  0
    0.3331   -1.4728   -3.0467 C   0  0  0  0  0  0  0  0  0  0  0  0
    2.6924    0.3404   -4.1502 H   0  0  0  0  0  0  0  0  0  0  0  0
    0.6550    0.6514   -3.2607 H   0  0  0  0  0  0  0  0  0  0  0  0
    0.8129   -2.3494   -2.5963 H   0  0  0  0  0  0  0  0  0  0  0  0
   -0.6690   -1.3857   -2.6142 H   0  0  0  0  0  0  0  0  0  0  0  0
    0.2259   -1.6670   -4.1194 H   0  0  0  0  0  0  0  0  0  0  0  0
    0.2019    0.5893   -0.7269 N   0  0  0  0  0  0  0  0  0  0  0  0
    0.1242    0.9059    0.6756 C   0  0  2  0  0  0  0  0  0  0  0  0
   -1.2633    1.4874    0.9284 C   0  0  0  0  0  0  0  0  0  0  0  0
   -2.2991    0.8508    0.7466 O   0  0  0  0  0  0  0  0  0  0  0  0
    1.2049    1.9060    1.1058 C   0  0  0  0  0  0  0  0  0  0  0  0
    2.6502    1.3752    1.0160 C   0  0  0  0  0  0  0  0  0  0  0  0
    3.6354    2.5057    1.3258 C   0  0  0  0  0  0  0  0  0  0  0  0
    2.9672    0.7772   -0.3554 C   0  0  0  0  0  0  0  0  0  0  0  0
   -0.5975    0.8179   -1.3140 H   0  0  0  0  0  0  0  0  0  0  0  0
    0.2148   -0.0384    1.2218 H   0  0  0  0  0  0  0  0  0  0  0  0
    1.0082    2.2166    2.1416 H   0  0  0  0  0  0  0  0  0  0  0  0
    1.1192    2.8176    0.4995 H   0  0  0  0  0  0  0  0  0  0  0  0
    2.7946    0.5948    1.7730 H   0  0  0  0  0  0  0  0  0  0  0  0
    3.5367    3.3184    0.5982 H   0  0  0  0  0  0  0  0  0  0  0  0
    4.6684    2.1445    1.2822 H   0  0  0  0  0  0  0  0  0  0  0  0
    3.4629    2.9218    2.3243 H   0  0  0  0  0  0  0  0  0  0  0  0
    2.8381    1.5185   -1.1512 H   0  0  0  0  0  0  0  0  0  0  0  0
    4.0016    0.4187   -0.3927 H   0  0  0  0  0  0  0  0  0  0  0  0
    2.3218   -0.0780   -0.5765 H   0  0  0  0  0  0  0  0  0  0  0  0
   -1.2025    2.7808    1.4283 N   0  0  0  0  0  0  0  0  0  0  0  0
   -2.3741    3.5514    1.7778 C   0  0  2  0  0  0  0  0  0  0  0  0
   -3.3730    2.6132    2.4424 C   0  0  0  0  0  0  0  0  0  0  0  0
   -3.3620    1.3952    2.2766 O   0  0  0  0  0  0  0  0  0  0  0  0
   -2.9843    4.2165    0.5539 C   0  0  0  0  0  0  0  0  0  0  0  0
   -0.2961    3.2167    1.5701 H   0  0  0  0  0  0  0  0  0  0  0  0
   -2.0501    4.3104    2.4982 H   0  0  0  0  0  0  0  0  0  0  0  0
   -3.3149    3.4717   -0.1792 H   0  0  0  0  0  0  0  0  0  0  0  0
   -3.8550    4.8229    0.8246 H   0  0  0  0  0  0  0  0  0  0  0  0
   -2.2552    4.8680    0.0602 H   0  0  0  0  0  0  0  0  0  0  0  0
   -4.3047    3.3002    3.2079 N   0  0  0  0  0  0  0  0  0  0  0  0
   -5.3647    2.6346    3.9286 C   0  0  0  0  0  0  0  0  0  0  0  0
   -4.2265    4.3083    3.3042 H   0  0  0  0  0  0  0  0  0  0  0  0
   -6.2660    2.5920    3.2995 H   0  0  0  0  0  0  0  0  0  0  0  0
   -5.0481    1.6128    4.1851 H   0  0  0  0  0  0  0  0  0  0  0  0
   -5.5872    3.1918    4.8506 H   0  0  0  0  0  0  0  0  0  0  0  0
  1  3  1  0  0  0  0
  1  7  1  0  0  0  0
  1  2  2  0  0  0  0
 37 38  1  0  0  0  0
 38 46  1  0  0  0  0
 38 39  2  0  0  0  0
  8  9  1  0  0  0  0
  9 17  1  0  0  0  0
  9 10  2  0  0  0  0
 18 19  1  0  0  0  0
 19 36  1  0  0  0  0
 19 20  2  0  0  0  0
 37 40  1  0  0  0  0
  8 11  1  0  0  0  0
 22 23  1  0  0  0  0
 22 24  1  0  0  0  0
 46 47  1  0  0  0  0
 18 21  1  0  0  0  0
 21 22  1  0  0  0  0
 36 37  1  0  0  0  0
  7  8  1  0  0  0  0
 17 18  1  0  0  0  0
  3  4  1  0  0  0  0
  3  5  1  0  0  0  0
  3  6  1  0  0  0  0
 40 43  1  0  0  0  0
 40 44  1  0  0  0  0
 40 45  1  0  0  0  0
 11 14  1  0  0  0  0
 11 15  1  0  0  0  0
 11 16  1  0  0  0  0
 23 30  1  0  0  0  0
 23 31  1  0  0  0  0
 23 32  1  0  0  0  0
 24 33  1  0  0  0  0
 24 34  1  0  0  0  0
 24 35  1  0  0  0  0
 47 49  1  0  0  0  0
 47 50  1  0  0  0  0
 47 51  1  0  0  0  0
 21 27  1  0  0  0  0
 21 28  1  0  0  0  0
 37 42  1  0  0  0  0
  8 13  1  0  0  0  0
 18 26  1  0  0  0  0
 22 29  1  0  0  0  0
 46 48  1  0  0  0  0
  7 12  1  0  0  0  0
 36 41  1  0  0  0  0
 17 25  1  0  0  0  0
M  END
$$$$

  -OEChem-05262214473D

 51 50  0     1  0  0  0  0  0999 V2000
    3.4018   -1.2440   -3.0186 C   0  0  0  0  0  0  0  0  0  0  0  0
    3.2697   -2.0909   -2.1427 O   0  0  0  0  0  0  0  0  0  0  0  0
    4.6845   -1.1645   -3.7779 C   0  0  0  0  0  0  0  0  0  0  0  0
    5.4123   -0.4862   -3.3041 H   0  0  0  0  0  0  0  0  0  0  0  0
    5.1949   -2.1387   -3.8443 H   0  0  0  0  0  0  0  0  0  0  0  0
    4.5953   -0.8128   -4.8182 H   0  0  0  0  0  0  0  0  0  0  0  0
    2.4540   -0.3103   -3.4040 N   0  0  0  0  0  0  0  0  0  0  0  0
    1.1494   -0.2128   -2.8039 C   0  0  2  0  0  0  0  0  0  0  0  0
    1.3350    0.0367   -1.3130 C   0  0  0  0  0  0  0  0  0  0  0  0
    2.3625   -0.2586   -0.7063 O   0  0  0  0  0  0  0  0  0  0  0  0
    0.3331   -1.4728   -3.0467 C   0  0  0  0  0  0  0  0  0  0  0  0
    2.6924    0.3404   -4.1502 H   0  0  0  0  0  0  0  0  0  0  0  0
    0.6550    0.6514   -3.2607 H   0  0  0  0  0  0  0  0  0  0  0  0
    0.8129   -2.3494   -2.5963 H   0  0  0  0  0  0  0  0  0  0  0  0
   -0.6690   -1.3857   -2.6142 H   0  0  0  0  0  0  0  0  0  0  0  0
    0.2259   -1.6670   -4.1194 H   0  0  0  0  0  0  0  0  0  0  0  0
    0.2019    0.5893   -0.7269 N   0  0  0  0  0  0  0  0  0  0  0  0
    0.1242    0.9059    0.6756 C   0  0  2  0  0  0  0  0  0  0  0  0
   -1.2633    1.4874    0.9284 C   0  0  0  0  0  0  0  0  0  0  0  0
   -2.2751    0.7939    1.0086 O   0  0  0  0  0  0  0  0  0  0  0  0
    1.2049    1.9060    1.1058 C   0  0  0  0  0  0  0  0  0  0  0  0
    2.6502    1.3752    1.0160 C   0  0  0  0  0  0  0  0  0  0  0  0
    3.6354    2.5057    1.3258 C   0  0  0  0  0  0  0  0  0  0  0  0
    2.9672    0.7772   -0.3554 C   0  0  0  0  0  0  0  0  0  0  0  0
   -0.5975    0.8179   -1.3140 H   0  0  0  0  0  0  0  0  0  0  0  0
    0.2148   -0.0384    1.2218 H   0  0  0  0  0  0  0  0  0  0  0  0
    1.0082    2.2166    2.1416 H   0  0  0  0  0  0  0  0  0  0  0  0
    1.1192    2.8176    0.4995 H   0  0  0  0  0  0  0  0  0  0  0  0
    2.7946    0.5948    1.7730 H   0  0  0  0  0  0  0  0  0  0  0  0
    3.5367    3.3184    0.5982 H   0  0  0  0  0  0  0  0  0  0  0  0
    4.6684    2.1445    1.2822 H   0  0  0  0  0  0  0  0  0  0  0  0
    3.4629    2.9218    2.3243 H   0  0  0  0  0  0  0  0  0  0  0  0
    2.8381    1.5185   -1.1512 H   0  0  0  0  0  0  0  0  0  0  0  0
    4.0016    0.4187   -0.3927 H   0  0  0  0  0  0  0  0  0  0  0  0
    2.3218   -0.0780   -0.5765 H   0  0  0  0  0  0  0  0  0  0  0  0
   -1.2268    2.8638    1.1038 N   0  0  0  0  0  0  0  0  0  0  0  0
   -2.4011    3.6585    1.3836 C   0  0  2  0  0  0  0  0  0  0  0  0
   -3.2806    2.8745    2.3486 C   0  0  0  0  0  0  0  0  0  0  0  0
   -3.2185    1.6529    2.4713 O   0  0  0  0  0  0  0  0  0  0  0  0
   -3.1585    3.9946    0.1084 C   0  0  0  0  0  0  0  0  0  0  0  0
   -0.3364    3.3488    1.0451 H   0  0  0  0  0  0  0  0  0  0  0  0
   -2.0531    4.5767    1.8694 H   0  0  0  0  0  0  0  0  0  0  0  0
   -3.5149    3.0870   -0.3923 H   0  0  0  0  0  0  0  0  0  0  0  0
   -4.0319    4.6206    0.3190 H   0  0  0  0  0  0  0  0  0  0  0  0
   -2.5155    4.5324   -0.5966 H   0  0  0  0  0  0  0  0  0  0  0  0
   -4.1728    3.6944    3.0252 N   0  0  0  0  0  0  0  0  0  0  0  0
   -5.1227    3.1864    3.9873 C   0  0  0  0  0  0  0  0  0  0  0  0
   -4.1412    4.6985    2.8751 H   0  0  0  0  0  0  0  0  0  0  0  0
   -6.0752    2.9676    3.4825 H   0  0  0  0  0  0  0  0  0  0  0  0
   -4.7281    2.2652    4.4408 H   0  0  0  0  0  0  0  0  0  0  0  0
   -5.2881    3.9395    4.7718 H   0  0  0  0  0  0  0  0  0  0  0  0
  1  3  1  0  0  0  0
  1  7  1  0  0  0  0
  1  2  2  0  0  0  0
 37 38  1  0  0  0  0
 38 46  1  0  0  0  0
 38 39  2  0  0  0  0
  8  9  1  0  0  0  0
  9 17  1  0  0  0  0
  9 10  2  0  0  0  0
 18 19  1  0  0  0  0
 19 36  1  0  0  0  0
 19 20  2  0  0  0  0
 37 40  1  0  0  0  0
  8 11  1  0  0  0  0
 22 23  1  0  0  0  0
 22 24  1  0  0  0  0
 46 47  1  0  0  0  0
 18 21  1  0  0  0  0
 21 22  1  0  0  0  0
 36 37  1  0  0  0  0
  7  8  1  0  0  0  0
 17 18  1  0  0  0  0
  3  4  1  0  0  0  0
  3  5  1  0  0  0  0
  3  6  1  0  0  0  0
 40 43  1  0  0  0  0
 40 44  1  0  0  0  0
 40 45  1  0  0  0  0
 11 14  1  0  0  0  0
 11 15  1  0  0  0  0
 11 16  1  0  0  0  0
 23 30  1  0  0  0  0
 23 31  1  0  0  0  0
 23 32  1  0  0  0  0
 24 33  1  0  0  0  0
 24 34  1  0  0  0  0
 24 35  1  0  0  0  0
 47 49  1  0  0  0  0
 47 50  1  0  0  0  0
 47 51  1  0  0  0  0
 21 27  1  0  0  0  0
 21 28  1  0  0  0  0
 37 42  1  0  0  0  0
  8 13  1  0  0  0  0
 18 26  1  0  0  0  0
 22 29  1  0  0  0  0
 46 48  1  0  0  0  0
  7 12  1  0  0  0  0
 36 41  1  0  0  0  0
 17 25  1  0  0  0  0
M  END
$$$$

  -OEChem-05262214473D

 51 50  0     1  0  0  0  0  0999 V2000
    3.4018   -1.2440   -3.0186 C   0  0  0  0  0  0  0  0  0  0  0  0
    3.2697   -2.0909   -2.1427 O   0  0  0  0  0  0  0  0  0  0  0  0
    4.6845   -1.1645   -3.7779 C   0  0  0  0  0  0  0  0  0  0  0  0
    5.4123   -0.4862   -3.3041 H   0  0  0  0  0  0  0  0  0  0  0  0
    5.1949   -2.1387   -3.8443 H   0  0  0  0  0  0  0  0  0  0  0  0
    4.5953   -0.8128   -4.8182 H   0  0  0  0  0  0  0  0  0  0  0  0
    2.4540   -0.3103   -3.4040 N   0  0  0  0  0  0  0  0  0  0  0  0
    1.1494   -0.2128   -2.8039 C   0  0  2  0  0  0  0  0  0  0  0  0
    1.3350    0.0367   -1.3130 C   0  0  0  0  0  0  0  0  0  0  0  0
    2.3625   -0.2586   -0.7063 O   0  0  0  0  0  0  0  0  0  0  0  0
    0.3331   -1.4728   -3.0467 C   0  0  0  0  0  0  0  0  0  0  0  0
    2.6924    0.3404   -4.1502 H   0  0  0  0  0  0  0  0  0  0  0  0
    0.6550    0.6514   -3.2607 H   0  0  0  0  0  0  0  0  0  0  0  0
    0.8129   -2.3494   -2.5963 H   0  0  0  0  0  0  0  0  0  0  0  0
   -0.6690   -1.3857   -2.6142 H   0  0  0  0  0  0  0  0  0  0  0  0
    0.2259   -1.6670   -4.1194 H   0  0  0  0  0  0  0  0  0  0  0  0
    0.2019    0.5893   -0.7269 N   0  0  0  0  0  0  0  0  0  0  0  0
    0.1242    0.9059    0.6756 C   0  0  2  0  0  0  0  0  0  0  0  0
   -1.2633    1.4874    0.9284 C   0  0  0  0  0  0  0  0  0  0  0  0
   -2.2238    0.8017    1.2727 O   0  0  0  0  0  0  0  0  0  0  0  0
    1.2049    1.9060    1.1058 C   0  0  0  0  0  0  0  0  0  0  0  0
    2.6502    1.3752    1.0160 C   0  0  0  0  0  0  0  0  0  0  0  0
    3.6354    2.5057    1.3258 C   0  0  0  0  0  0  0  0  0  0  0  0
    2.9672    0.7772   -0.3554 C   0  0  0  0  0  0  0  0  0  0  0  0
   -0.5975    0.8179   -1.3140 H   0  0  0  0  0  0  0  0  0  0  0  0
    0.2148   -0.0384    1.2218 H   0  0  0  0  0  0  0  0  0  0  0  0
    1.0082    2.2166    2.1416 H   0  0  0  0  0  0  0  0  0  0  0  0
    1.1192    2.8176    0.4995 H   0  0  0  0  0  0  0  0  0  0  0  0
    2.7946    0.5948    1.7730 H   0  0  0  0  0  0  0  0  0  0  0  0
    3.5367    3.3184    0.5982 H   0  0  0  0  0  0  0  0  0  0  0  0
    4.6684    2.1445    1.2822 H   0  0  0  0  0  0  0  0  0  0  0  0
    3.4629    2.9218    2.3243 H   0  0  0  0  0  0  0  0  0  0  0  0
    2.8381    1.5185   -1.1512 H   0  0  0  0  0  0  0  0  0  0  0  0
    4.0016    0.4187   -0.3927 H   0  0  0  0  0  0  0  0  0  0  0  0
    2.3218   -0.0780   -0.5765 H   0  0  0  0  0  0  0  0  0  0  0  0
   -1.2860    2.8665    0.7731 N   0  0  0  0  0  0  0  0  0  0  0  0
   -2.4706    3.6680    0.9802 C   0  0  2  0  0  0  0  0  0  0  0  0
   -3.2118    3.1087    2.1874 C   0  0  0  0  0  0  0  0  0  0  0  0
   -3.0718    1.9538    2.5845 O   0  0  0  0  0  0  0  0  0  0  0  0
   -3.3612    3.6679   -0.2525 C   0  0  0  0  0  0  0  0  0  0  0  0
   -0.4327    3.3511    0.5108 H   0  0  0  0  0  0  0  0  0  0  0  0
   -2.1295    4.6857    1.1996 H   0  0  0  0  0  0  0  0  0  0  0  0
   -3.7127    2.6567   -0.4880 H   0  0  0  0  0  0  0  0  0  0  0  0
   -4.2440    4.2985   -0.1042 H   0  0  0  0  0  0  0  0  0  0  0  0
   -2.8173    4.0426   -1.1263 H   0  0  0  0  0  0  0  0  0  0  0  0
   -4.0803    4.0378    2.7430 N   0  0  0  0  0  0  0  0  0  0  0  0
   -4.9068    3.7436    3.8903 C   0  0  0  0  0  0  0  0  0  0  0  0
   -4.1178    4.9780    2.3603 H   0  0  0  0  0  0  0  0  0  0  0  0
   -5.8890    3.3817    3.5521 H   0  0  0  0  0  0  0  0  0  0  0  0
   -4.4218    2.9692    4.5026 H   0  0  0  0  0  0  0  0  0  0  0  0
   -5.0391    4.6560    4.4903 H   0  0  0  0  0  0  0  0  0  0  0  0
  1  3  1  0  0  0  0
  1  7  1  0  0  0  0
  1  2  2  0  0  0  0
 37 38  1  0  0  0  0
 38 46  1  0  0  0  0
 38 39  2  0  0  0  0
  8  9  1  0  0  0  0
  9 17  1  0  0  0  0
  9 10  2  0  0  0  0
 18 19  1  0  0  0  0
 19 36  1  0  0  0  0
 19 20  2  0  0  0  0
 37 40  1  0  0  0  0
  8 11  1  0  0  0  0
 22 23  1  0  0  0  0
 22 24  1  0  0  0  0
 46 47  1  0  0  0  0
 18 21  1  0  0  0  0
 21 22  1  0  0  0  0
 36 37  1  0  0  0  0
  7  8  1  0  0  0  0
 17 18  1  0  0  0  0
  3  4  1  0  0  0  0
  3  5  1  0  0  0  0
  3  6  1  0  0  0  0
 40 43  1  0  0  0  0
 40 44  1  0  0  0  0
 40 45  1  0  0  0  0
 11 14  1  0  0  0  0
 11 15  1  0  0  0  0
 11 16  1  0  0  0  0
 23 30  1  0  0  0  0
 23 31  1  0  0  0  0
 23 32  1  0  0  0  0
 24 33  1  0  0  0  0
 24 34  1  0  0  0  0
 24 35  1  0  0  0  0
 47 49  1  0  0  0  0
 47 50  1  0  0  0  0
 47 51  1  0  0  0  0
 21 27  1  0  0  0  0
 21 28  1  0  0  0  0
 37 42  1  0  0  0  0
  8 13  1  0  0  0  0
 18 26  1  0  0  0  0
 22 29  1  0  0  0  0
 46 48  1  0  0  0  0
  7 12  1  0  0  0  0
 36 41  1  0  0  0  0
 17 25  1  0  0  0  0
M  END
$$$$

  -OEChem-05262214473D

 51 50  0     1  0  0  0  0  0999 V2000
    3.4018   -1.2440   -3.0186 C   0  0  0  0  0  0  0  0  0  0  0  0
    3.2697   -2.0909   -2.1427 O   0  0  0  0  0  0  0  0  0  0  0  0
    4.6845   -1.1645   -3.7779 C   0  0  0  0  0  0  0  0  0  0  0  0
    5.4123   -0.4862   -3.3041 H   0  0  0  0  0  0  0  0  0  0  0  0
    5.1949   -2.1387   -3.8443 H   0  0  0  0  0  0  0  0  0  0  0  0
    4.5953   -0.8128   -4.8182 H   0  0  0  0  0  0  0  0  0  0  0  0
    2.4540   -0.3103   -3.4040 N   0  0  0  0  0  0  0  0  0  0  0  0
    1.1494   -0.2128   -2.8039 C   0  0  2  0  0  0  0  0  0  0  0  0
    1.3350    0.0367   -1.3130 C   0  0  0  0  0  0  0  0  0  0  0  0
    2.3625   -0.2586   -0.7063 O   0  0  0  0  0  0  0  0  0  0  0  0
    0.3331   -1.4728   -3.0467 C   0  0  0  0  0  0  0  0  0  0  0  0
    2.6924    0.3404   -4.1502 H   0  0  0  0  0  0  0  0  0  0  0  0
    0.6550    0.6514   -3.2607 H   0  0  0  0  0  0  0  0  0  0  0  0
    0.8129   -2.3494   -2.5963 H   0  0  0  0  0  0  0  0  0  0  0  0
   -0.6690   -1.3857   -2.6142 H   0  0  0  0  0  0  0  0  0  0  0  0
    0.2259   -1.6670   -4.1194 H   0  0  0  0  0  0  0  0  0  0  0  0
    0.2019    0.5893   -0.7269 N   0  0  0  0  0  0  0  0  0  0  0  0
    0.1242    0.9059    0.6756 C   0  0  2  0  0  0  0  0  0  0  0  0
   -1.2633    1.4874    0.9284 C   0  0  0  0  0  0  0  0  0  0  0  0
   -2.1484    0.8736    1.5209 O   0  0  0  0  0  0  0  0  0  0  0  0
    1.2049    1.9060    1.1058 C   0  0  0  0  0  0  0  0  0  0  0  0
    2.6502    1.3752    1.0160 C   0  0  0  0  0  0  0  0  0  0  0  0
    3.6354    2.5057    1.3258 C   0  0  0  0  0  0  0  0  0  0  0  0
    2.9672    0.7772   -0.3554 C   0  0  0  0  0  0  0  0  0  0  0  0
   -0.5975    0.8179   -1.3140 H   0  0  0  0  0  0  0  0  0  0  0  0
    0.2148   -0.0384    1.2218 H   0  0  0  0  0  0  0  0  0  0  0  0
    1.0082    2.2166    2.1416 H   0  0  0  0  0  0  0  0  0  0  0  0
    1.1192    2.8176    0.4995 H   0  0  0  0  0  0  0  0  0  0  0  0
    2.7946    0.5948    1.7730 H   0  0  0  0  0  0  0  0  0  0  0  0
    3.5367    3.3184    0.5982 H   0  0  0  0  0  0  0  0  0  0  0  0
    4.6684    2.1445    1.2822 H   0  0  0  0  0  0  0  0  0  0  0  0
    3.4629    2.9218    2.3243 H   0  0  0  0  0  0  0  0  0  0  0  0
    2.8381    1.5185   -1.1512 H   0  0  0  0  0  0  0  0  0  0  0  0
    4.0016    0.4187   -0.3927 H   0  0  0  0  0  0  0  0  0  0  0  0
    2.3218   -0.0780   -0.5765 H   0  0  0  0  0  0  0  0  0  0  0  0
   -1.3758    2.7887    0.4590 N   0  0  0  0  0  0  0  0  0  0  0  0
   -2.5779    3.5793    0.5952 C   0  0  2  0  0  0  0  0  0  0  0  0
   -3.1713    3.3000    1.9697 C   0  0  0  0  0  0  0  0  0  0  0  0
   -2.9318    2.2775    2.6085 O   0  0  0  0  0  0  0  0  0  0  0  0
   -3.5786    3.2586   -0.5042 C   0  0  0  0  0  0  0  0  0  0  0  0
   -0.5787    3.2235    0.0038 H   0  0  0  0  0  0  0  0  0  0  0  0
   -2.2740    4.6300    0.5345 H   0  0  0  0  0  0  0  0  0  0  0  0
   -3.8947    2.2101   -0.4595 H   0  0  0  0  0  0  0  0  0  0  0  0
   -4.4768    3.8787   -0.4163 H   0  0  0  0  0  0  0  0  0  0  0  0
   -3.1401    3.4317   -1.4929 H   0  0  0  0  0  0  0  0  0  0  0  0
   -4.0335    4.3070    2.3804 N   0  0  0  0  0  0  0  0  0  0  0  0
   -4.7318    4.2683    3.6440 C   0  0  0  0  0  0  0  0  0  0  0  0
   -4.1581    5.1277    1.7950 H   0  0  0  0  0  0  0  0  0  0  0  0
   -5.7200    3.8060    3.5035 H   0  0  0  0  0  0  0  0  0  0  0  0
   -4.1500    3.6769    4.3664 H   0  0  0  0  0  0  0  0  0  0  0  0
   -4.8571    5.2925    4.0251 H   0  0  0  0  0  0  0  0  0  0  0  0
  1  3  1  0  0  0  0
  1  7  1  0  0  0  0
  1  2  2  0  0  0  0
 37 38  1  0  0  0  0
 38 46  1  0  0  0  0
 38 39  2  0  0  0  0
  8  9  1  0  0  0  0
  9 17  1  0  0  0  0
  9 10  2  0  0  0  0
 18 19  1  0  0  0  0
 19 36  1  0  0  0  0
 19 20  2  0  0  0  0
 37 40  1  0  0  0  0
  8 11  1  0  0  0  0
 22 23  1  0  0  0  0
 22 24  1  0  0  0  0
 46 47  1  0  0  0  0
 18 21  1  0  0  0  0
 21 22  1  0  0  0  0
 36 37  1  0  0  0  0
  7  8  1  0  0  0  0
 17 18  1  0  0  0  0
  3  4  1  0  0  0  0
  3  5  1  0  0  0  0
  3  6  1  0  0  0  0
 40 43  1  0  0  0  0
 40 44  1  0  0  0  0
 40 45  1  0  0  0  0
 11 14  1  0  0  0  0
 11 15  1  0  0  0  0
 11 16  1  0  0  0  0
 23 30  1  0  0  0  0
 23 31  1  0  0  0  0
 23 32  1  0  0  0  0
 24 33  1  0  0  0  0
 24 34  1  0  0  0  0
 24 35  1  0  0  0  0
 47 49  1  0  0  0  0
 47 50  1  0  0  0  0
 47 51  1  0  0  0  0
 21 27  1  0  0  0  0
 21 28  1  0  0  0  0
 37 42  1  0  0  0  0
  8 13  1  0  0  0  0
 18 26  1  0  0  0  0
 22 29  1  0  0  0  0
 46 48  1  0  0  0  0
  7 12  1  0  0  0  0
 36 41  1  0  0  0  0
 17 25  1  0  0  0  0
M  END
$$$$

  -OEChem-05262214473D

 51 50  0     1  0  0  0  0  0999 V2000
    3.4018   -1.2440   -3.0186 C   0  0  0  0  0  0  0  0  0  0  0  0
    3.2697   -2.0909   -2.1427 O   0  0  0  0  0  0  0  0  0  0  0  0
    4.6845   -1.1645   -3.7779 C   0  0  0  0  0  0  0  0  0  0  0  0
    5.4123   -0.4862   -3.3041 H   0  0  0  0  0  0  0  0  0  0  0  0
    5.1949   -2.1387   -3.8443 H   0  0  0  0  0  0  0  0  0  0  0  0
    4.5953   -0.8128   -4.8182 H   0  0  0  0  0  0  0  0  0  0  0  0
    2.4540   -0.3103   -3.4040 N   0  0  0  0  0  0  0  0  0  0  0  0
    1.1494   -0.2128   -2.8039 C   0  0  2  0  0  0  0  0  0  0  0  0
    1.3350    0.0367   -1.3130 C   0  0  0  0  0  0  0  0  0  0  0  0
    2.3625   -0.2586   -0.7063 O   0  0  0  0  0  0  0  0  0  0  0  0
    0.3331   -1.4728   -3.0467 C   0  0  0  0  0  0  0  0  0  0  0  0
    2.6924    0.3404   -4.1502 H   0  0  0  0  0  0  0  0  0  0  0  0
    0.6550    0.6514   -3.2607 H   0  0  0  0  0  0  0  0  0  0  0  0
    0.8129   -2.3494   -2.5963 H   0  0  0  0  0  0  0  0  0  0  0  0
   -0.6690   -1.3857   -2.6142 H   0  0  0  0  0  0  0  0  0  0  0  0
    0.2259   -1.6670   -4.1194 H   0  0  0  0  0  0  0  0  0  0  0  0
    0.2019    0.5893   -0.7269 N   0  0  0  0  0  0  0  0  0  0  0  0
    0.1242    0.9059    0.6756 C   0  0  2  0  0  0  0  0  0  0  0  0
   -1.2633    1.4874    0.9284 C   0  0  0  0  0  0  0  0  0  0  0  0
   -2.0542    1.0047    1.7363 O   0  0  0  0  0  0  0  0  0  0  0  0
    1.2049    1.9060    1.1058 C   0  0  0  0  0  0  0  0  0  0  0  0
    2.6502    1.3752    1.0160 C   0  0  0  0  0  0  0  0  0  0  0  0
    3.6354    2.5057    1.3258 C   0  0  0  0  0  0  0  0  0  0  0  0
    2.9672    0.7772   -0.3554 C   0  0  0  0  0  0  0  0  0  0  0  0
   -0.5975    0.8179   -1.3140 H   0  0  0  0  0  0  0  0  0  0  0  0
    0.2148   -0.0384    1.2218 H   0  0  0  0  0  0  0  0  0  0  0  0
    1.0082    2.2166    2.1416 H   0  0  0  0  0  0  0  0  0  0  0  0
    1.1192    2.8176    0.4995 H   0  0  0  0  0  0  0  0  0  0  0  0
    2.7946    0.5948    1.7730 H   0  0  0  0  0  0  0  0  0  0  0  0
    3.5367    3.3184    0.5982 H   0  0  0  0  0  0  0  0  0  0  0  0
    4.6684    2.1445    1.2822 H   0  0  0  0  0  0  0  0  0  0  0  0
    3.4629    2.9218    2.3243 H   0  0  0  0  0  0  0  0  0  0  0  0
    2.8381    1.5185   -1.1512 H   0  0  0  0  0  0  0  0  0  0  0  0
    4.0016    0.4187   -0.3927 H   0  0  0  0  0  0  0  0  0  0  0  0
    2.3218   -0.0780   -0.5765 H   0  0  0  0  0  0  0  0  0  0  0  0
   -1.4902    2.6358    0.1827 N   0  0  0  0  0  0  0  0  0  0  0  0
   -2.7158    3.3984    0.2547 C   0  0  2  0  0  0  0  0  0  0  0  0
   -3.1618    3.4353    1.7105 C   0  0  0  0  0  0  0  0  0  0  0  0
   -2.8080    2.6017    2.5418 O   0  0  0  0  0  0  0  0  0  0  0  0
   -3.7958    2.7948   -0.6295 C   0  0  0  0  0  0  0  0  0  0  0  0
   -0.7641    2.9745   -0.4416 H   0  0  0  0  0  0  0  0  0  0  0  0
   -2.4768    4.4135   -0.0805 H   0  0  0  0  0  0  0  0  0  0  0  0
   -4.0486    1.7775   -0.3089 H   0  0  0  0  0  0  0  0  0  0  0  0
   -4.7145    3.3897   -0.5959 H   0  0  0  0  0  0  0  0  0  0  0  0
   -3.4619    2.7416   -1.6714 H   0  0  0  0  0  0  0  0  0  0  0  0
   -4.0357    4.4837    1.9621 N   0  0  0  0  0  0  0  0  0  0  0  0
   -4.6096    4.7246    3.2655 C   0  0  0  0  0  0  0  0  0  0  0  0
   -4.2592    5.1376    1.2177 H   0  0  0  0  0  0  0  0  0  0  0  0
   -5.5798    4.2117    3.3399 H   0  0  0  0  0  0  0  0  0  0  0  0
   -3.9312    4.3401    4.0414 H   0  0  0  0  0  0  0  0  0  0  0  0
   -4.7545    5.8056    3.4080 H   0  0  0  0  0  0  0  0  0  0  0  0
  1  3  1  0  0  0  0
  1  7  1  0  0  0  0
  1  2  2  0  0  0  0
 37 38  1  0  0  0  0
 38 46  1  0  0  0  0
 38 39  2  0  0  0  0
  8  9  1  0  0  0  0
  9 17  1  0  0  0  0
  9 10  2  0  0  0  0
 18 19  1  0  0  0  0
 19 36  1  0  0  0  0
 19 20  2  0  0  0  0
 37 40  1  0  0  0  0
  8 11  1  0  0  0  0
 22 23  1  0  0  0  0
 22 24  1  0  0  0  0
 46 47  1  0  0  0  0
 18 21  1  0  0  0  0
 21 22  1  0  0  0  0
 36 37  1  0  0  0  0
  7  8  1  0  0  0  0
 17 18  1  0  0  0  0
  3  4  1  0  0  0  0
  3  5  1  0  0  0  0
  3  6  1  0  0  0  0
 40 43  1  0  0  0  0
 40 44  1  0  0  0  0
 40 45  1  0  0  0  0
 11 14  1  0  0  0  0
 11 15  1  0  0  0  0
 11 16  1  0  0  0  0
 23 30  1  0  0  0  0
 23 31  1  0  0  0  0
 23 32  1  0  0  0  0
 24 33  1  0  0  0  0
 24 34  1  0  0  0  0
 24 35  1  0  0  0  0
 47 49  1  0  0  0  0
 47 50  1  0  0  0  0
 47 51  1  0  0  0  0
 21 27  1  0  0  0  0
 21 28  1  0  0  0  0
 37 42  1  0  0  0  0
  8 13  1  0  0  0  0
 18 26  1  0  0  0  0
 22 29  1  0  0  0  0
 46 48  1  0  0  0  0
  7 12  1  0  0  0  0
 36 41  1  0  0  0  0
 17 25  1  0  0  0  0
M  END
$$$$

  -OEChem-05262214473D

 51 50  0     1  0  0  0  0  0999 V2000
    3.4018   -1.2440   -3.0186 C   0  0  0  0  0  0  0  0  0  0  0  0
    3.2697   -2.0909   -2.1427 O   0  0  0  0  0  0  0  0  0  0  0  0
    4.6845   -1.1645   -3.7779 C   0  0  0  0  0  0  0  0  0  0  0  0
    5.4123   -0.4862   -3.3041 H   0  0  0  0  0  0  0  0  0  0  0  0
    5.1949   -2.1387   -3.8443 H   0  0  0  0  0  0  0  0  0  0  0  0
    4.5953   -0.8128   -4.8182 H   0  0  0  0  0  0  0  0  0  0  0  0
    2.4540   -0.3103   -3.4040 N   0  0  0  0  0  0  0  0  0  0  0  0
    1.1494   -0.2128   -2.8039 C   0  0  2  0  0  0  0  0  0  0  0  0
    1.3350    0.0367   -1.3130 C   0  0  0  0  0  0  0  0  0  0  0  0
    2.3625   -0.2586   -0.7063 O   0  0  0  0  0  0  0  0  0  0  0  0
    0.3331   -1.4728   -3.0467 C   0  0  0  0  0  0  0  0  0  0  0  0
    2.6924    0.3404   -4.1502 H   0  0  0  0  0  0  0  0  0  0  0  0
    0.6550    0.6514   -3.2607 H   0  0  0  0  0  0  0  0  0  0  0  0
    0.8129   -2.3494   -2.5963 H   0  0  0  0  0  0  0  0  0  0  0  0
   -0.6690   -1.3857   -2.6142 H   0  0  0  0  0  0  0  0  0  0  0  0
    0.2259   -1.6670   -4.1194 H   0  0  0  0  0  0  0  0  0  0  0  0
    0.2019    0.5893   -0.7269 N   0  0  0  0  0  0  0  0  0  0  0  0
    0.1242    0.9059    0.6756 C   0  0  2  0  0  0  0  0  0  0  0  0
   -1.2633    1.4874    0.9284 C   0  0  0  0  0  0  0  0  0  0  0  0
   -1.9476    1.1861    1.9042 O   0  0  0  0  0  0  0  0  0  0  0  0
    1.2049    1.9060    1.1058 C   0  0  0  0  0  0  0  0  0  0  0  0
    2.6502    1.3752    1.0160 C   0  0  0  0  0  0  0  0  0  0  0  0
    3.6354    2.5057    1.3258 C   0  0  0  0  0  0  0  0  0  0  0  0
    2.9672    0.7772   -0.3554 C   0  0  0  0  0  0  0  0  0  0  0  0
   -0.5975    0.8179   -1.3140 H   0  0  0  0  0  0  0  0  0  0  0  0
    0.2148   -0.0384    1.2218 H   0  0  0  0  0  0  0  0  0  0  0  0
    1.0082    2.2166    2.1416 H   0  0  0  0  0  0  0  0  0  0  0  0
    1.1192    2.8176    0.4995 H   0  0  0  0  0  0  0  0  0  0  0  0
    2.7946    0.5948    1.7730 H   0  0  0  0  0  0  0  0  0  0  0  0
    3.5367    3.3184    0.5982 H   0  0  0  0  0  0  0  0  0  0  0  0
    4.6684    2.1445    1.2822 H   0  0  0  0  0  0  0  0  0  0  0  0
    3.4629    2.9218    2.3243 H   0  0  0  0  0  0  0  0  0  0  0  0
    2.8381    1.5185   -1.1512 H   0  0  0  0  0  0  0  0  0  0  0  0
    4.0016    0.4187   -0.3927 H   0  0  0  0  0  0  0  0  0  0  0  0
    2.3218   -0.0780   -0.5765 H   0  0  0  0  0  0  0  0  0  0  0  0
   -1.6215    2.4182   -0.0369 N   0  0  0  0  0  0  0  0  0  0  0  0
   -2.8748    3.1375   -0.0179 C   0  0  2  0  0  0  0  0  0  0  0  0
   -3.1841    3.5053    1.4273 C   0  0  0  0  0  0  0  0  0  0  0  0
   -2.7090    2.9045    2.3887 O   0  0  0  0  0  0  0  0  0  0  0  0
   -3.9982    2.3079   -0.6200 C   0  0  0  0  0  0  0  0  0  0  0  0
   -0.9766    2.6213   -0.7949 H   0  0  0  0  0  0  0  0  0  0  0  0
   -2.7241    4.0509   -0.6036 H   0  0  0  0  0  0  0  0  0  0  0  0
   -4.1638    1.3885   -0.0465 H   0  0  0  0  0  0  0  0  0  0  0  0
   -4.9408    2.8649   -0.6309 H   0  0  0  0  0  0  0  0  0  0  0  0
   -3.7607    2.0191   -1.6495 H   0  0  0  0  0  0  0  0  0  0  0  0
   -4.0866    4.5558    1.5168 N   0  0  0  0  0  0  0  0  0  0  0  0
   -4.5484    5.0814    2.7803 C   0  0  0  0  0  0  0  0  0  0  0  0
   -4.4142    5.0069    0.6677 H   0  0  0  0  0  0  0  0  0  0  0  0
   -5.4779    4.5710    3.0726 H   0  0  0  0  0  0  0  0  0  0  0  0
   -3.7805    4.9136    3.5498 H   0  0  0  0  0  0  0  0  0  0  0  0
   -4.7383    6.1604    2.6810 H   0  0  0  0  0  0  0  0  0  0  0  0
  1  3  1  0  0  0  0
  1  7  1  0  0  0  0
  1  2  2  0  0  0  0
 37 38  1  0  0  0  0
 38 46  1  0  0  0  0
 38 39  2  0  0  0  0
  8  9  1  0  0  0  0
  9 17  1  0  0  0  0
  9 10  2  0  0  0  0
 18 19  1  0  0  0  0
 19 36  1  0  0  0  0
 19 20  2  0  0  0  0
 37 40  1  0  0  0  0
  8 11  1  0  0  0  0
 22 23  1  0  0  0  0
 22 24  1  0  0  0  0
 46 47  1  0  0  0  0
 18 21  1  0  0  0  0
 21 22  1  0  0  0  0
 36 37  1  0  0  0  0
  7  8  1  0  0  0  0
 17 18  1  0  0  0  0
  3  4  1  0  0  0  0
  3  5  1  0  0  0  0
  3  6  1  0  0  0  0
 40 43  1  0  0  0  0
 40 44  1  0  0  0  0
 40 45  1  0  0  0  0
 11 14  1  0  0  0  0
 11 15  1  0  0  0  0
 11 16  1  0  0  0  0
 23 30  1  0  0  0  0
 23 31  1  0  0  0  0
 23 32  1  0  0  0  0
 24 33  1  0  0  0  0
 24 34  1  0  0  0  0
 24 35  1  0  0  0  0
 47 49  1  0  0  0  0
 47 50  1  0  0  0  0
 47 51  1  0  0  0  0
 21 27  1  0  0  0  0
 21 28  1  0  0  0  0
 37 42  1  0  0  0  0
  8 13  1  0  0  0  0
 18 26  1  0  0  0  0
 22 29  1  0  0  0  0
 46 48  1  0  0  0  0
  7 12  1  0  0  0  0
 36 41  1  0  0  0  0
 17 25  1  0  0  0  0
M  END
$$$$

  -OEChem-05262214473D

 51 50  0     1  0  0  0  0  0999 V2000
    3.4018   -1.2440   -3.0186 C   0  0  0  0  0  0  0  0  0  0  0  0
    3.2697   -2.0909   -2.1427 O   0  0  0  0  0  0  0  0  0  0  0  0
    4.6845   -1.1645   -3.7779 C   0  0  0  0  0  0  0  0  0  0  0  0
    5.4123   -0.4862   -3.3041 H   0  0  0  0  0  0  0  0  0  0  0  0
    5.1949   -2.1387   -3.8443 H   0  0  0  0  0  0  0  0  0  0  0  0
    4.5953   -0.8128   -4.8182 H   0  0  0  0  0  0  0  0  0  0  0  0
    2.4540   -0.3103   -3.4040 N   0  0  0  0  0  0  0  0  0  0  0  0
    1.1494   -0.2128   -2.8039 C   0  0  2  0  0  0  0  0  0  0  0  0
    1.3350    0.0367   -1.3130 C   0  0  0  0  0  0  0  0  0  0  0  0
    2.3625   -0.2586   -0.7063 O   0  0  0  0  0  0  0  0  0  0  0  0
    0.3331   -1.4728   -3.0467 C   0  0  0  0  0  0  0  0  0  0  0  0
    2.6924    0.3404   -4.1502 H   0  0  0  0  0  0  0  0  0  0  0  0
    0.6550    0.6514   -3.2607 H   0  0  0  0  0  0  0  0  0  0  0  0
    0.8129   -2.3494   -2.5963 H   0  0  0  0  0  0  0  0  0  0  0  0
   -0.6690   -1.3857   -2.6142 H   0  0  0  0  0  0  0  0  0  0  0  0
    0.2259   -1.6670   -4.1194 H   0  0  0  0  0  0  0  0  0  0  0  0
    0.2019    0.5893   -0.7269 N   0  0  0  0  0  0  0  0  0  0  0  0
    0.1242    0.9059    0.6756 C   0  0  2  0  0  0  0  0  0  0  0  0
   -1.2633    1.4874    0.9284 C   0  0  0  0  0  0  0  0  0  0  0  0
   -1.8358    1.4054    2.0132 O   0  0  0  0  0  0  0  0  0  0  0  0
    1.2049    1.9060    1.1058 C   0  0  0  0  0  0  0  0  0  0  0  0
    2.6502    1.3752    1.0160 C   0  0  0  0  0  0  0  0  0  0  0  0
    3.6354    2.5057    1.3258 C   0  0  0  0  0  0  0  0  0  0  0  0
    2.9672    0.7772   -0.3554 C   0  0  0  0  0  0  0  0  0  0  0  0
   -0.5975    0.8179   -1.3140 H   0  0  0  0  0  0  0  0  0  0  0  0
    0.2148   -0.0384    1.2218 H   0  0  0  0  0  0  0  0  0  0  0  0
    1.0082    2.2166    2.1416 H   0  0  0  0  0  0  0  0  0  0  0  0
    1.1192    2.8176    0.4995 H   0  0  0  0  0  0  0  0  0  0  0  0
    2.7946    0.5948    1.7730 H   0  0  0  0  0  0  0  0  0  0  0  0
    3.5367    3.3184    0.5982 H   0  0  0  0  0  0  0  0  0  0  0  0
    4.6684    2.1445    1.2822 H   0  0  0  0  0  0  0  0  0  0  0  0
    3.4629    2.9218    2.3243 H   0  0  0  0  0  0  0  0  0  0  0  0
    2.8381    1.5185   -1.1512 H   0  0  0  0  0  0  0  0  0  0  0  0
    4.0016    0.4187   -0.3927 H   0  0  0  0  0  0  0  0  0  0  0  0
    2.3218   -0.0780   -0.5765 H   0  0  0  0  0  0  0  0  0  0  0  0
   -1.7606    2.1506   -0.1849 N   0  0  0  0  0  0  0  0  0  0  0  0
   -3.0441    2.8146   -0.2042 C   0  0  2  0  0  0  0  0  0  0  0  0
   -3.2365    3.5054    1.1394 C   0  0  0  0  0  0  0  0  0  0  0  0
   -2.6415    3.1652    2.1599 O   0  0  0  0  0  0  0  0  0  0  0  0
   -4.1718    1.8312   -0.4762 C   0  0  0  0  0  0  0  0  0  0  0  0
   -1.2015    2.1878   -1.0320 H   0  0  0  0  0  0  0  0  0  0  0  0
   -2.9991    3.5669   -0.9991 H   0  0  0  0  0  0  0  0  0  0  0  0
   -4.2325    1.0697    0.3099 H   0  0  0  0  0  0  0  0  0  0  0  0
   -5.1404    2.3401   -0.5188 H   0  0  0  0  0  0  0  0  0  0  0  0
   -4.0162    1.3136   -1.4289 H   0  0  0  0  0  0  0  0  0  0  0  0
   -4.1829    4.5185    1.0746 N   0  0  0  0  0  0  0  0  0  0  0  0
   -4.5525    5.3146    2.2216 C   0  0  0  0  0  0  0  0  0  0  0  0
   -4.6126    4.7445    0.1824 H   0  0  0  0  0  0  0  0  0  0  0  0
   -5.4213    4.8596    2.7198 H   0  0  0  0  0  0  0  0  0  0  0  0
   -3.7079    5.3583    2.9250 H   0  0  0  0  0  0  0  0  0  0  0  0
   -4.8096    6.3326    1.8937 H   0  0  0  0  0  0  0  0  0  0  0  0
  1  3  1  0  0  0  0
  1  7  1  0  0  0  0
  1  2  2  0  0  0  0
 37 38  1  0  0  0  0
 38 46  1  0  0  0  0
 38 39  2  0  0  0  0
  8  9  1  0  0  0  0
  9 17  1  0  0  0  0
  9 10  2  0  0  0  0
 18 19  1  0  0  0  0
 19 36  1  0  0  0  0
 19 20  2  0  0  0  0
 37 40  1  0  0  0  0
  8 11  1  0  0  0  0
 22 23  1  0  0  0  0
 22 24  1  0  0  0  0
 46 47  1  0  0  0  0
 18 21  1  0  0  0  0
 21 22  1  0  0  0  0
 36 37  1  0  0  0  0
  7  8  1  0  0  0  0
 17 18  1  0  0  0  0
  3  4  1  0  0  0  0
  3  5  1  0  0  0  0
  3  6  1  0  0  0  0
 40 43  1  0  0  0  0
 40 44  1  0  0  0  0
 40 45  1  0  0  0  0
 11 14  1  0  0  0  0
 11 15  1  0  0  0  0
 11 16  1  0  0  0  0
 23 30  1  0  0  0  0
 23 31  1  0  0  0  0
 23 32  1  0  0  0  0
 24 33  1  0  0  0  0
 24 34  1  0  0  0  0
 24 35  1  0  0  0  0
 47 49  1  0  0  0  0
 47 50  1  0  0  0  0
 47 51  1  0  0  0  0
 21 27  1  0  0  0  0
 21 28  1  0  0  0  0
 37 42  1  0  0  0  0
  8 13  1  0  0  0  0
 18 26  1  0  0  0  0
 22 29  1  0  0  0  0
 46 48  1  0  0  0  0
  7 12  1  0  0  0  0
 36 41  1  0  0  0  0
 17 25  1  0  0  0  0
M  END
$$$$

  -OEChem-05262214473D

 51 50  0     1  0  0  0  0  0999 V2000
    3.4018   -1.2440   -3.0186 C   0  0  0  0  0  0  0  0  0  0  0  0
    3.2697   -2.0909   -2.1427 O   0  0  0  0  0  0  0  0  0  0  0  0
    4.6845   -1.1645   -3.7779 C   0  0  0  0  0  0  0  0  0  0  0  0
    5.4123   -0.4862   -3.3041 H   0  0  0  0  0  0  0  0  0  0  0  0
    5.1949   -2.1387   -3.8443 H   0  0  0  0  0  0  0  0  0  0  0  0
    4.5953   -0.8128   -4.8182 H   0  0  0  0  0  0  0  0  0  0  0  0
    2.4540   -0.3103   -3.4040 N   0  0  0  0  0  0  0  0  0  0  0  0
    1.1494   -0.2128   -2.8039 C   0  0  2  0  0  0  0  0  0  0  0  0
    1.3350    0.0367   -1.3130 C   0  0  0  0  0  0  0  0  0  0  0  0
    2.3625   -0.2586   -0.7063 O   0  0  0  0  0  0  0  0  0  0  0  0
    0.3331   -1.4728   -3.0467 C   0  0  0  0  0  0  0  0  0  0  0  0
    2.6924    0.3404   -4.1502 H   0  0  0  0  0  0  0  0  0  0  0  0
    0.6550    0.6514   -3.2607 H   0  0  0  0  0  0  0  0  0  0  0  0
    0.8129   -2.3494   -2.5963 H   0  0  0  0  0  0  0  0  0  0  0  0
   -0.6690   -1.3857   -2.6142 H   0  0  0  0  0  0  0  0  0  0  0  0
    0.2259   -1.6670   -4.1194 H   0  0  0  0  0  0  0  0  0  0  0  0
    0.2019    0.5893   -0.7269 N   0  0  0  0  0  0  0  0  0  0  0  0
    0.1242    0.9059    0.6756 C   0  0  2  0  0  0  0  0  0  0  0  0
   -1.2633    1.4874    0.9284 C   0  0  0  0  0  0  0  0  0  0  0  0
   -1.7265    1.6477    2.0558 O   0  0  0  0  0  0  0  0  0  0  0  0
    1.2049    1.9060    1.1058 C   0  0  0  0  0  0  0  0  0  0  0  0
    2.6502    1.3752    1.0160 C   0  0  0  0  0  0  0  0  0  0  0  0
    3.6354    2.5057    1.3258 C   0  0  0  0  0  0  0  0  0  0  0  0
    2.9672    0.7772   -0.3554 C   0  0  0  0  0  0  0  0  0  0  0  0
   -0.5975    0.8179   -1.3140 H   0  0  0  0  0  0  0  0  0  0  0  0
    0.2148   -0.0384    1.2218 H   0  0  0  0  0  0  0  0  0  0  0  0
    1.0082    2.2166    2.1416 H   0  0  0  0  0  0  0  0  0  0  0  0
    1.1192    2.8176    0.4995 H   0  0  0  0  0  0  0  0  0  0  0  0
    2.7946    0.5948    1.7730 H   0  0  0  0  0  0  0  0  0  0  0  0
    3.5367    3.3184    0.5982 H   0  0  0  0  0  0  0  0  0  0  0  0
    4.6684    2.1445    1.2822 H   0  0  0  0  0  0  0  0  0  0  0  0
    3.4629    2.9218    2.3243 H   0  0  0  0  0  0  0  0  0  0  0  0
    2.8381    1.5185   -1.1512 H   0  0  0  0  0  0  0  0  0  0  0  0
    4.0016    0.4187   -0.3927 H   0  0  0  0  0  0  0  0  0  0  0  0
    2.3218   -0.0780   -0.5765 H   0  0  0  0  0  0  0  0  0  0  0  0
   -1.8981    1.8514   -0.2511 N   0  0  0  0  0  0  0  0  0  0  0  0
   -3.2122    2.4515   -0.2914 C   0  0  2  0  0  0  0  0  0  0  0  0
   -3.3155    3.4354    0.8666 C   0  0  0  0  0  0  0  0  0  0  0  0
   -2.6100    3.3660    1.8708 O   0  0  0  0  0  0  0  0  0  0  0  0
   -4.3048    1.3971   -0.2079 C   0  0  0  0  0  0  0  0  0  0  0  0
   -1.4235    1.7036   -1.1368 H   0  0  0  0  0  0  0  0  0  0  0  0
   -3.2829    2.9945   -1.2401 H   0  0  0  0  0  0  0  0  0  0  0  0
   -4.2500    0.8426    0.7360 H   0  0  0  0  0  0  0  0  0  0  0  0
   -5.2996    1.8510   -0.2673 H   0  0  0  0  0  0  0  0  0  0  0  0
   -4.2110    0.6731   -1.0245 H   0  0  0  0  0  0  0  0  0  0  0  0
   -4.3178    4.3742    0.6658 N   0  0  0  0  0  0  0  0  0  0  0  0
   -4.6216    5.4081    1.6275 C   0  0  0  0  0  0  0  0  0  0  0  0
   -4.8408    4.3683   -0.2049 H   0  0  0  0  0  0  0  0  0  0  0  0
   -5.4138    5.0577    2.3055 H   0  0  0  0  0  0  0  0  0  0  0  0
   -3.7186    5.6439    2.2097 H   0  0  0  0  0  0  0  0  0  0  0  0
   -4.9636    6.3106    1.0997 H   0  0  0  0  0  0  0  0  0  0  0  0
  1  3  1  0  0  0  0
  1  7  1  0  0  0  0
  1  2  2  0  0  0  0
 37 38  1  0  0  0  0
 38 46  1  0  0  0  0
 38 39  2  0  0  0  0
  8  9  1  0  0  0  0
  9 17  1  0  0  0  0
  9 10  2  0  0  0  0
 18 19  1  0  0  0  0
 19 36  1  0  0  0  0
 19 20  2  0  0  0  0
 37 40  1  0  0  0  0
  8 11  1  0  0  0  0
 22 23  1  0  0  0  0
 22 24  1  0  0  0  0
 46 47  1  0  0  0  0
 18 21  1  0  0  0  0
 21 22  1  0  0  0  0
 36 37  1  0  0  0  0
  7  8  1  0  0  0  0
 17 18  1  0  0  0  0
  3  4  1  0  0  0  0
  3  5  1  0  0  0  0
  3  6  1  0  0  0  0
 40 43  1  0  0  0  0
 40 44  1  0  0  0  0
 40 45  1  0  0  0  0
 11 14  1  0  0  0  0
 11 15  1  0  0  0  0
 11 16  1  0  0  0  0
 23 30  1  0  0  0  0
 23 31  1  0  0  0  0
 23 32  1  0  0  0  0
 24 33  1  0  0  0  0
 24 34  1  0  0  0  0
 24 35  1  0  0  0  0
 47 49  1  0  0  0  0
 47 50  1  0  0  0  0
 47 51  1  0  0  0  0
 21 27  1  0  0  0  0
 21 28  1  0  0  0  0
 37 42  1  0  0  0  0
  8 13  1  0  0  0  0
 18 26  1  0  0  0  0
 22 29  1  0  0  0  0
 46 48  1  0  0  0  0
  7 12  1  0  0  0  0
 36 41  1  0  0  0  0
 17 25  1  0  0  0  0
M  END
$$$$

  -OEChem-05262214473D

 51 50  0     1  0  0  0  0  0999 V2000
    3.4018   -1.2440   -3.0186 C   0  0  0  0  0  0  0  0  0  0  0  0
    3.2697   -2.0909   -2.1427 O   0  0  0  0  0  0  0  0  0  0  0  0
    4.6845   -1.1645   -3.7779 C   0  0  0  0  0  0  0  0  0  0  0  0
    5.4123   -0.4862   -3.3041 H   0  0  0  0  0  0  0  0  0  0  0  0
    5.1949   -2.1387   -3.8443 H   0  0  0  0  0  0  0  0  0  0  0  0
    4.5953   -0.8128   -4.8182 H   0  0  0  0  0  0  0  0  0  0  0  0
    2.4540   -0.3103   -3.4040 N   0  0  0  0  0  0  0  0  0  0  0  0
    1.1494   -0.2128   -2.8039 C   0  0  2  0  0  0  0  0  0  0  0  0
    1.3350    0.0367   -1.3130 C   0  0  0  0  0  0  0  0  0  0  0  0
    2.3625   -0.2586   -0.7063 O   0  0  0  0  0  0  0  0  0  0  0  0
    0.3331   -1.4728   -3.0467 C   0  0  0  0  0  0  0  0  0  0  0  0
    2.6924    0.3404   -4.1502 H   0  0  0  0  0  0  0  0  0  0  0  0
    0.6550    0.6514   -3.2607 H   0  0  0  0  0  0  0  0  0  0  0  0
    0.8129   -2.3494   -2.5963 H   0  0  0  0  0  0  0  0  0  0  0  0
   -0.6690   -1.3857   -2.6142 H   0  0  0  0  0  0  0  0  0  0  0  0
    0.2259   -1.6670   -4.1194 H   0  0  0  0  0  0  0  0  0  0  0  0
    0.2019    0.5893   -0.7269 N   0  0  0  0  0  0  0  0  0  0  0  0
    0.1242    0.9059    0.6756 C   0  0  2  0  0  0  0  0  0  0  0  0
   -1.2633    1.4874    0.9284 C   0  0  0  0  0  0  0  0  0  0  0  0
   -1.6271    1.8965    2.0291 O   0  0  0  0  0  0  0  0  0  0  0  0
    1.2049    1.9060    1.1058 C   0  0  0  0  0  0  0  0  0  0  0  0
    2.6502    1.3752    1.0160 C   0  0  0  0  0  0  0  0  0  0  0  0
    3.6354    2.5057    1.3258 C   0  0  0  0  0  0  0  0  0  0  0  0
    2.9672    0.7772   -0.3554 C   0  0  0  0  0  0  0  0  0  0  0  0
   -0.5975    0.8179   -1.3140 H   0  0  0  0  0  0  0  0  0  0  0  0
    0.2148   -0.0384    1.2218 H   0  0  0  0  0  0  0  0  0  0  0  0
    1.0082    2.2166    2.1416 H   0  0  0  0  0  0  0  0  0  0  0  0
    1.1192    2.8176    0.4995 H   0  0  0  0  0  0  0  0  0  0  0  0
    2.7946    0.5948    1.7730 H   0  0  0  0  0  0  0  0  0  0  0  0
    3.5367    3.3184    0.5982 H   0  0  0  0  0  0  0  0  0  0  0  0
    4.6684    2.1445    1.2822 H   0  0  0  0  0  0  0  0  0  0  0  0
    3.4629    2.9218    2.3243 H   0  0  0  0  0  0  0  0  0  0  0  0
    2.8381    1.5185   -1.1512 H   0  0  0  0  0  0  0  0  0  0  0  0
    4.0016    0.4187   -0.3927 H   0  0  0  0  0  0  0  0  0  0  0  0
    2.3218   -0.0780   -0.5765 H   0  0  0  0  0  0  0  0  0  0  0  0
   -2.0245    1.5409   -0.2310 N   0  0  0  0  0  0  0  0  0  0  0  0
   -3.3675    2.0731   -0.2735 C   0  0  2  0  0  0  0  0  0  0  0  0
   -3.4158    3.3002    0.6273 C   0  0  0  0  0  0  0  0  0  0  0  0
   -2.6167    3.4933    1.5411 O   0  0  0  0  0  0  0  0  0  0  0  0
   -4.3882    1.0353    0.1665 C   0  0  0  0  0  0  0  0  0  0  0  0
   -1.6275    1.2018   -1.1022 H   0  0  0  0  0  0  0  0  0  0  0  0
   -3.5563    2.3727   -1.3102 H   0  0  0  0  0  0  0  0  0  0  0  0
   -4.2151    0.7229    1.2028 H   0  0  0  0  0  0  0  0  0  0  0  0
   -5.4075    1.4309    0.1065 H   0  0  0  0  0  0  0  0  0  0  0  0
   -4.3317    0.1413   -0.4639 H   0  0  0  0  0  0  0  0  0  0  0  0
   -4.4823    4.1328    0.3183 N   0  0  0  0  0  0  0  0  0  0  0  0
   -4.7509    5.3556    1.0384 C   0  0  0  0  0  0  0  0  0  0  0  0
   -5.0834    3.9040   -0.4680 H   0  0  0  0  0  0  0  0  0  0  0  0
   -5.4559    5.1518    1.8579 H   0  0  0  0  0  0  0  0  0  0  0  0
   -3.8117    5.7509    1.4526 H   0  0  0  0  0  0  0  0  0  0  0  0
   -5.1896    6.0958    0.3531 H   0  0  0  0  0  0  0  0  0  0  0  0
  1  3  1  0  0  0  0
  1  7  1  0  0  0  0
  1  2  2  0  0  0  0
 37 38  1  0  0  0  0
 38 46  1  0  0  0  0
 38 39  2  0  0  0  0
  8  9  1  0  0  0  0
  9 17  1  0  0  0  0
  9 10  2  0  0  0  0
 18 19  1  0  0  0  0
 19 36  1  0  0  0  0
 19 20  2  0  0  0  0
 37 40  1  0  0  0  0
  8 11  1  0  0  0  0
 22 23  1  0  0  0  0
 22 24  1  0  0  0  0
 46 47  1  0  0  0  0
 18 21  1  0  0  0  0
 21 22  1  0  0  0  0
 36 37  1  0  0  0  0
  7  8  1  0  0  0  0
 17 18  1  0  0  0  0
  3  4  1  0  0  0  0
  3  5  1  0  0  0  0
  3  6  1  0  0  0  0
 40 43  1  0  0  0  0
 40 44  1  0  0  0  0
 40 45  1  0  0  0  0
 11 14  1  0  0  0  0
 11 15  1  0  0  0  0
 11 16  1  0  0  0  0
 23 30  1  0  0  0  0
 23 31  1  0  0  0  0
 23 32  1  0  0  0  0
 24 33  1  0  0  0  0
 24 34  1  0  0  0  0
 24 35  1  0  0  0  0
 47 49  1  0  0  0  0
 47 50  1  0  0  0  0
 47 51  1  0  0  0  0
 21 27  1  0  0  0  0
 21 28  1  0  0  0  0
 37 42  1  0  0  0  0
  8 13  1  0  0  0  0
 18 26  1  0  0  0  0
 22 29  1  0  0  0  0
 46 48  1  0  0  0  0
  7 12  1  0  0  0  0
 36 41  1  0  0  0  0
 17 25  1  0  0  0  0
M  END
$$$$

  -OEChem-05262214473D

 51 50  0     1  0  0  0  0  0999 V2000
    3.4018   -1.2440   -3.0186 C   0  0  0  0  0  0  0  0  0  0  0  0
    3.2697   -2.0909   -2.1427 O   0  0  0  0  0  0  0  0  0  0  0  0
    4.6845   -1.1645   -3.7779 C   0  0  0  0  0  0  0  0  0  0  0  0
    5.4123   -0.4862   -3.3041 H   0  0  0  0  0  0  0  0  0  0  0  0
    5.1949   -2.1387   -3.8443 H   0  0  0  0  0  0  0  0  0  0  0  0
    4.5953   -0.8128   -4.8182 H   0  0  0  0  0  0  0  0  0  0  0  0
    2.4540   -0.3103   -3.4040 N   0  0  0  0  0  0  0  0  0  0  0  0
    1.1494   -0.2128   -2.8039 C   0  0  2  0  0  0  0  0  0  0  0  0
    1.3350    0.0367   -1.3130 C   0  0  0  0  0  0  0  0  0  0  0  0
    2.3625   -0.2586   -0.7063 O   0  0  0  0  0  0  0  0  0  0  0  0
    0.3331   -1.4728   -3.0467 C   0  0  0  0  0  0  0  0  0  0  0  0
    2.6924    0.3404   -4.1502 H   0  0  0  0  0  0  0  0  0  0  0  0
    0.6550    0.6514   -3.2607 H   0  0  0  0  0  0  0  0  0  0  0  0
    0.8129   -2.3494   -2.5963 H   0  0  0  0  0  0  0  0  0  0  0  0
   -0.6690   -1.3857   -2.6142 H   0  0  0  0  0  0  0  0  0  0  0  0
    0.2259   -1.6670   -4.1194 H   0  0  0  0  0  0  0  0  0  0  0  0
    0.2019    0.5893   -0.7269 N   0  0  0  0  0  0  0  0  0  0  0  0
    0.1242    0.9059    0.6756 C   0  0  2  0  0  0  0  0  0  0  0  0
   -1.2633    1.4874    0.9284 C   0  0  0  0  0  0  0  0  0  0  0  0
   -1.5444    2.1347    1.9350 O   0  0  0  0  0  0  0  0  0  0  0  0
    1.2049    1.9060    1.1058 C   0  0  0  0  0  0  0  0  0  0  0  0
    2.6502    1.3752    1.0160 C   0  0  0  0  0  0  0  0  0  0  0  0
    3.6354    2.5057    1.3258 C   0  0  0  0  0  0  0  0  0  0  0  0
    2.9672    0.7772   -0.3554 C   0  0  0  0  0  0  0  0  0  0  0  0
   -0.5975    0.8179   -1.3140 H   0  0  0  0  0  0  0  0  0  0  0  0
    0.2148   -0.0384    1.2218 H   0  0  0  0  0  0  0  0  0  0  0  0
    1.0082    2.2166    2.1416 H   0  0  0  0  0  0  0  0  0  0  0  0
    1.1192    2.8176    0.4995 H   0  0  0  0  0  0  0  0  0  0  0  0
    2.7946    0.5948    1.7730 H   0  0  0  0  0  0  0  0  0  0  0  0
    3.5367    3.3184    0.5982 H   0  0  0  0  0  0  0  0  0  0  0  0
    4.6684    2.1445    1.2822 H   0  0  0  0  0  0  0  0  0  0  0  0
    3.4629    2.9218    2.3243 H   0  0  0  0  0  0  0  0  0  0  0  0
    2.8381    1.5185   -1.1512 H   0  0  0  0  0  0  0  0  0  0  0  0
    4.0016    0.4187   -0.3927 H   0  0  0  0  0  0  0  0  0  0  0  0
    2.3218   -0.0780   -0.5765 H   0  0  0  0  0  0  0  0  0  0  0  0
   -2.1314    1.2402   -0.1260 N   0  0  0  0  0  0  0  0  0  0  0  0
   -3.4996    1.7051   -0.1519 C   0  0  2  0  0  0  0  0  0  0  0  0
   -3.5305    3.1090    0.4378 C   0  0  0  0  0  0  0  0  0  0  0  0
   -2.6612    3.5384    1.1934 O   0  0  0  0  0  0  0  0  0  0  0  0
   -4.4164    0.7703    0.6216 C   0  0  0  0  0  0  0  0  0  0  0  0
   -1.7997    0.7164   -0.9305 H   0  0  0  0  0  0  0  0  0  0  0  0
   -3.8006    1.7439   -1.2045 H   0  0  0  0  0  0  0  0  0  0  0  0
   -4.1302    0.7186    1.6784 H   0  0  0  0  0  0  0  0  0  0  0  0
   -5.4569    1.1084    0.5771 H   0  0  0  0  0  0  0  0  0  0  0  0
   -4.3702   -0.2456    0.2147 H   0  0  0  0  0  0  0  0  0  0  0  0
   -4.6652    3.8107    0.0556 N   0  0  0  0  0  0  0  0  0  0  0  0
   -4.9317    5.1607    0.4945 C   0  0  0  0  0  0  0  0  0  0  0  0
   -5.3237    3.3832   -0.5889 H   0  0  0  0  0  0  0  0  0  0  0  0
   -5.5447    5.1356    1.4075 H   0  0  0  0  0  0  0  0  0  0  0  0
   -3.9809    5.6720    0.7053 H   0  0  0  0  0  0  0  0  0  0  0  0
   -5.4725    5.7028   -0.2952 H   0  0  0  0  0  0  0  0  0  0  0  0
  1  3  1  0  0  0  0
  1  7  1  0  0  0  0
  1  2  2  0  0  0  0
 37 38  1  0  0  0  0
 38 46  1  0  0  0  0
 38 39  2  0  0  0  0
  8  9  1  0  0  0  0
  9 17  1  0  0  0  0
  9 10  2  0  0  0  0
 18 19  1  0  0  0  0
 19 36  1  0  0  0  0
 19 20  2  0  0  0  0
 37 40  1  0  0  0  0
  8 11  1  0  0  0  0
 22 23  1  0  0  0  0
 22 24  1  0  0  0  0
 46 47  1  0  0  0  0
 18 21  1  0  0  0  0
 21 22  1  0  0  0  0
 36 37  1  0  0  0  0
  7  8  1  0  0  0  0
 17 18  1  0  0  0  0
  3  4  1  0  0  0  0
  3  5  1  0  0  0  0
  3  6  1  0  0  0  0
 40 43  1  0  0  0  0
 40 44  1  0  0  0  0
 40 45  1  0  0  0  0
 11 14  1  0  0  0  0
 11 15  1  0  0  0  0
 11 16  1  0  0  0  0
 23 30  1  0  0  0  0
 23 31  1  0  0  0  0
 23 32  1  0  0  0  0
 24 33  1  0  0  0  0
 24 34  1  0  0  0  0
 24 35  1  0  0  0  0
 47 49  1  0  0  0  0
 47 50  1  0  0  0  0
 47 51  1  0  0  0  0
 21 27  1  0  0  0  0
 21 28  1  0  0  0  0
 37 42  1  0  0  0  0
  8 13  1  0  0  0  0
 18 26  1  0  0  0  0
 22 29  1  0  0  0  0
 46 48  1  0  0  0  0
  7 12  1  0  0  0  0
 36 41  1  0  0  0  0
 17 25  1  0  0  0  0
M  END
$$$$

  -OEChem-05262214473D

 51 50  0     1  0  0  0  0  0999 V2000
    3.4018   -1.2440   -3.0186 C   0  0  0  0  0  0  0  0  0  0  0  0
    3.2697   -2.0909   -2.1427 O   0  0  0  0  0  0  0  0  0  0  0  0
    4.6845   -1.1645   -3.7779 C   0  0  0  0  0  0  0  0  0  0  0  0
    5.4123   -0.4862   -3.3041 H   0  0  0  0  0  0  0  0  0  0  0  0
    5.1949   -2.1387   -3.8443 H   0  0  0  0  0  0  0  0  0  0  0  0
    4.5953   -0.8128   -4.8182 H   0  0  0  0  0  0  0  0  0  0  0  0
    2.4540   -0.3103   -3.4040 N   0  0  0  0  0  0  0  0  0  0  0  0
    1.1494   -0.2128   -2.8039 C   0  0  2  0  0  0  0  0  0  0  0  0
    1.3350    0.0367   -1.3130 C   0  0  0  0  0  0  0  0  0  0  0  0
    2.3625   -0.2586   -0.7063 O   0  0  0  0  0  0  0  0  0  0  0  0
    0.3331   -1.4728   -3.0467 C   0  0  0  0  0  0  0  0  0  0  0  0
    2.6924    0.3404   -4.1502 H   0  0  0  0  0  0  0  0  0  0  0  0
    0.6550    0.6514   -3.2607 H   0  0  0  0  0  0  0  0  0  0  0  0
    0.8129   -2.3494   -2.5963 H   0  0  0  0  0  0  0  0  0  0  0  0
   -0.6690   -1.3857   -2.6142 H   0  0  0  0  0  0  0  0  0  0  0  0
    0.2259   -1.6670   -4.1194 H   0  0  0  0  0  0  0  0  0  0  0  0
    0.2019    0.5893   -0.7269 N   0  0  0  0  0  0  0  0  0  0  0  0
    0.1242    0.9059    0.6756 C   0  0  2  0  0  0  0  0  0  0  0  0
   -1.2633    1.4874    0.9284 C   0  0  0  0  0  0  0  0  0  0  0  0
   -1.4840    2.3462    1.7798 O   0  0  0  0  0  0  0  0  0  0  0  0
    1.2049    1.9060    1.1058 C   0  0  0  0  0  0  0  0  0  0  0  0
    2.6502    1.3752    1.0160 C   0  0  0  0  0  0  0  0  0  0  0  0
    3.6354    2.5057    1.3258 C   0  0  0  0  0  0  0  0  0  0  0  0
    2.9672    0.7772   -0.3554 C   0  0  0  0  0  0  0  0  0  0  0  0
   -0.5975    0.8179   -1.3140 H   0  0  0  0  0  0  0  0  0  0  0  0
    0.2148   -0.0384    1.2218 H   0  0  0  0  0  0  0  0  0  0  0  0
    1.0082    2.2166    2.1416 H   0  0  0  0  0  0  0  0  0  0  0  0
    1.1192    2.8176    0.4995 H   0  0  0  0  0  0  0  0  0  0  0  0
    2.7946    0.5948    1.7730 H   0  0  0  0  0  0  0  0  0  0  0  0
    3.5367    3.3184    0.5982 H   0  0  0  0  0  0  0  0  0  0  0  0
    4.6684    2.1445    1.2822 H   0  0  0  0  0  0  0  0  0  0  0  0
    3.4629    2.9218    2.3243 H   0  0  0  0  0  0  0  0  0  0  0  0
    2.8381    1.5185   -1.1512 H   0  0  0  0  0  0  0  0  0  0  0  0
    4.0016    0.4187   -0.3927 H   0  0  0  0  0  0  0  0  0  0  0  0
    2.3218   -0.0780   -0.5765 H   0  0  0  0  0  0  0  0  0  0  0  0
   -2.2114    0.9700    0.0567 N   0  0  0  0  0  0  0  0  0  0  0  0
   -3.5994    1.3726    0.0652 C   0  0  2  0  0  0  0  0  0  0  0  0
   -3.6517    2.8747    0.3112 C   0  0  0  0  0  0  0  0  0  0  0  0
   -2.7403    3.4982    0.8513 O   0  0  0  0  0  0  0  0  0  0  0  0
   -4.3873    0.6203    1.1263 C   0  0  0  0  0  0  0  0  0  0  0  0
   -1.9282    0.2806   -0.6334 H   0  0  0  0  0  0  0  0  0  0  0  0
   -3.9991    1.1508   -0.9303 H   0  0  0  0  0  0  0  0  0  0  0  0
   -4.0012    0.8300    2.1305 H   0  0  0  0  0  0  0  0  0  0  0  0
   -5.4443    0.9057    1.1124 H   0  0  0  0  0  0  0  0  0  0  0  0
   -4.3239   -0.4613    0.9651 H   0  0  0  0  0  0  0  0  0  0  0  0
   -4.8539    3.4300   -0.1043 N   0  0  0  0  0  0  0  0  0  0  0  0
   -5.1517    4.8366    0.0329 C   0  0  0  0  0  0  0  0  0  0  0  0
   -5.5454    2.8413   -0.5593 H   0  0  0  0  0  0  0  0  0  0  0  0
   -5.6743    5.0101    0.9851 H   0  0  0  0  0  0  0  0  0  0  0  0
   -4.2147    5.4127    0.0187 H   0  0  0  0  0  0  0  0  0  0  0  0
   -5.7927    5.1586   -0.8010 H   0  0  0  0  0  0  0  0  0  0  0  0
  1  3  1  0  0  0  0
  1  7  1  0  0  0  0
  1  2  2  0  0  0  0
 37 38  1  0  0  0  0
 38 46  1  0  0  0  0
 38 39  2  0  0  0  0
  8  9  1  0  0  0  0
  9 17  1  0  0  0  0
  9 10  2  0  0  0  0
 18 19  1  0  0  0  0
 19 36  1  0  0  0  0
 19 20  2  0  0  0  0
 37 40  1  0  0  0  0
  8 11  1  0  0  0  0
 22 23  1  0  0  0  0
 22 24  1  0  0  0  0
 46 47  1  0  0  0  0
 18 21  1  0  0  0  0
 21 22  1  0  0  0  0
 36 37  1  0  0  0  0
  7  8  1  0  0  0  0
 17 18  1  0  0  0  0
  3  4  1  0  0  0  0
  3  5  1  0  0  0  0
  3  6  1  0  0  0  0
 40 43  1  0  0  0  0
 40 44  1  0  0  0  0
 40 45  1  0  0  0  0
 11 14  1  0  0  0  0
 11 15  1  0  0  0  0
 11 16  1  0  0  0  0
 23 30  1  0  0  0  0
 23 31  1  0  0  0  0
 23 32  1  0  0  0  0
 24 33  1  0  0  0  0
 24 34  1  0  0  0  0
 24 35  1  0  0  0  0
 47 49  1  0  0  0  0
 47 50  1  0  0  0  0
 47 51  1  0  0  0  0
 21 27  1  0  0  0  0
 21 28  1  0  0  0  0
 37 42  1  0  0  0  0
  8 13  1  0  0  0  0
 18 26  1  0  0  0  0
 22 29  1  0  0  0  0
 46 48  1  0  0  0  0
  7 12  1  0  0  0  0
 36 41  1  0  0  0  0
 17 25  1  0  0  0  0
M  END
$$$$

  -OEChem-05262214473D

 51 50  0     1  0  0  0  0  0999 V2000
    3.4018   -1.2440   -3.0186 C   0  0  0  0  0  0  0  0  0  0  0  0
    3.2697   -2.0909   -2.1427 O   0  0  0  0  0  0  0  0  0  0  0  0
    4.6845   -1.1645   -3.7779 C   0  0  0  0  0  0  0  0  0  0  0  0
    5.4123   -0.4862   -3.3041 H   0  0  0  0  0  0  0  0  0  0  0  0
    5.1949   -2.1387   -3.8443 H   0  0  0  0  0  0  0  0  0  0  0  0
    4.5953   -0.8128   -4.8182 H   0  0  0  0  0  0  0  0  0  0  0  0
    2.4540   -0.3103   -3.4040 N   0  0  0  0  0  0  0  0  0  0  0  0
    1.1494   -0.2128   -2.8039 C   0  0  2  0  0  0  0  0  0  0  0  0
    1.3350    0.0367   -1.3130 C   0  0  0  0  0  0  0  0  0  0  0  0
    2.3625   -0.2586   -0.7063 O   0  0  0  0  0  0  0  0  0  0  0  0
    0.3331   -1.4728   -3.0467 C   0  0  0  0  0  0  0  0  0  0  0  0
    2.6924    0.3404   -4.1502 H   0  0  0  0  0  0  0  0  0  0  0  0
    0.6550    0.6514   -3.2607 H   0  0  0  0  0  0  0  0  0  0  0  0
    0.8129   -2.3494   -2.5963 H   0  0  0  0  0  0  0  0  0  0  0  0
   -0.6690   -1.3857   -2.6142 H   0  0  0  0  0  0  0  0  0  0  0  0
    0.2259   -1.6670   -4.1194 H   0  0  0  0  0  0  0  0  0  0  0  0
    0.2019    0.5893   -0.7269 N   0  0  0  0  0  0  0  0  0  0  0  0
    0.1242    0.9059    0.6756 C   0  0  2  0  0  0  0  0  0  0  0  0
   -1.2633    1.4874    0.9284 C   0  0  0  0  0  0  0  0  0  0  0  0
   -1.4501    2.5166    1.5742 O   0  0  0  0  0  0  0  0  0  0  0  0
    1.2049    1.9060    1.1058 C   0  0  0  0  0  0  0  0  0  0  0  0
    2.6502    1.3752    1.0160 C   0  0  0  0  0  0  0  0  0  0  0  0
    3.6354    2.5057    1.3258 C   0  0  0  0  0  0  0  0  0  0  0  0
    2.9672    0.7772   -0.3554 C   0  0  0  0  0  0  0  0  0  0  0  0
   -0.5975    0.8179   -1.3140 H   0  0  0  0  0  0  0  0  0  0  0  0
    0.2148   -0.0384    1.2218 H   0  0  0  0  0  0  0  0  0  0  0  0
    1.0082    2.2166    2.1416 H   0  0  0  0  0  0  0  0  0  0  0  0
    1.1192    2.8176    0.4995 H   0  0  0  0  0  0  0  0  0  0  0  0
    2.7946    0.5948    1.7730 H   0  0  0  0  0  0  0  0  0  0  0  0
    3.5367    3.3184    0.5982 H   0  0  0  0  0  0  0  0  0  0  0  0
    4.6684    2.1445    1.2822 H   0  0  0  0  0  0  0  0  0  0  0  0
    3.4629    2.9218    2.3243 H   0  0  0  0  0  0  0  0  0  0  0  0
    2.8381    1.5185   -1.1512 H   0  0  0  0  0  0  0  0  0  0  0  0
    4.0016    0.4187   -0.3927 H   0  0  0  0  0  0  0  0  0  0  0  0
    2.3218   -0.0780   -0.5765 H   0  0  0  0  0  0  0  0  0  0  0  0
   -2.2590    0.7485    0.3047 N   0  0  0  0  0  0  0  0  0  0  0  0
   -3.6600    1.0983    0.3631 C   0  0  2  0  0  0  0  0  0  0  0  0
   -3.7713    2.6135    0.2560 C   0  0  0  0  0  0  0  0  0  0  0  0
   -2.8489    3.3754    0.5382 O   0  0  0  0  0  0  0  0  0  0  0  0
   -4.3029    0.5955    1.6462 C   0  0  0  0  0  0  0  0  0  0  0  0
   -2.0043   -0.0759   -0.2311 H   0  0  0  0  0  0  0  0  0  0  0  0
   -4.1385    0.6341   -0.5062 H   0  0  0  0  0  0  0  0  0  0  0  0
   -3.8366    1.0496    2.5282 H   0  0  0  0  0  0  0  0  0  0  0  0
   -5.3707    0.8364    1.6759 H   0  0  0  0  0  0  0  0  0  0  0  0
   -4.1958   -0.4909    1.7360 H   0  0  0  0  0  0  0  0  0  0  0  0
   -5.0356    3.0165   -0.1505 N   0  0  0  0  0  0  0  0  0  0  0  0
   -5.3958    4.4054   -0.3150 C   0  0  0  0  0  0  0  0  0  0  0  0
   -5.7334    2.3154   -0.3814 H   0  0  0  0  0  0  0  0  0  0  0  0
   -5.8358    4.7839    0.6195 H   0  0  0  0  0  0  0  0  0  0  0  0
   -4.4972    4.9906   -0.5603 H   0  0  0  0  0  0  0  0  0  0  0  0
   -6.1287    4.5000   -1.1298 H   0  0  0  0  0  0  0  0  0  0  0  0
  1  3  1  0  0  0  0
  1  7  1  0  0  0  0
  1  2  2  0  0  0  0
 37 38  1  0  0  0  0
 38 46  1  0  0  0  0
 38 39  2  0  0  0  0
  8  9  1  0  0  0  0
  9 17  1  0  0  0  0
  9 10  2  0  0  0  0
 18 19  1  0  0  0  0
 19 36  1  0  0  0  0
 19 20  2  0  0  0  0
 37 40  1  0  0  0  0
  8 11  1  0  0  0  0
 22 23  1  0  0  0  0
 22 24  1  0  0  0  0
 46 47  1  0  0  0  0
 18 21  1  0  0  0  0
 21 22  1  0  0  0  0
 36 37  1  0  0  0  0
  7  8  1  0  0  0  0
 17 18  1  0  0  0  0
  3  4  1  0  0  0  0
  3  5  1  0  0  0  0
  3  6  1  0  0  0  0
 40 43  1  0  0  0  0
 40 44  1  0  0  0  0
 40 45  1  0  0  0  0
 11 14  1  0  0  0  0
 11 15  1  0  0  0  0
 11 16  1  0  0  0  0
 23 30  1  0  0  0  0
 23 31  1  0  0  0  0
 23 32  1  0  0  0  0
 24 33  1  0  0  0  0
 24 34  1  0  0  0  0
 24 35  1  0  0  0  0
 47 49  1  0  0  0  0
 47 50  1  0  0  0  0
 47 51  1  0  0  0  0
 21 27  1  0  0  0  0
 21 28  1  0  0  0  0
 37 42  1  0  0  0  0
  8 13  1  0  0  0  0
 18 26  1  0  0  0  0
 22 29  1  0  0  0  0
 46 48  1  0  0  0  0
  7 12  1  0  0  0  0
 36 41  1  0  0  0  0
 17 25  1  0  0  0  0
M  END
$$$$

  -OEChem-05262214473D

 51 50  0     1  0  0  0  0  0999 V2000
    3.4018   -1.2440   -3.0186 C   0  0  0  0  0  0  0  0  0  0  0  0
    3.2697   -2.0909   -2.1427 O   0  0  0  0  0  0  0  0  0  0  0  0
    4.6845   -1.1645   -3.7779 C   0  0  0  0  0  0  0  0  0  0  0  0
    5.4123   -0.4862   -3.3041 H   0  0  0  0  0  0  0  0  0  0  0  0
    5.1949   -2.1387   -3.8443 H   0  0  0  0  0  0  0  0  0  0  0  0
    4.5953   -0.8128   -4.8182 H   0  0  0  0  0  0  0  0  0  0  0  0
    2.4540   -0.3103   -3.4040 N   0  0  0  0  0  0  0  0  0  0  0  0
    1.1494   -0.2128   -2.8039 C   0  0  2  0  0  0  0  0  0  0  0  0
    1.3350    0.0367   -1.3130 C   0  0  0  0  0  0  0  0  0  0  0  0
    2.3625   -0.2586   -0.7063 O   0  0  0  0  0  0  0  0  0  0  0  0
    0.3331   -1.4728   -3.0467 C   0  0  0  0  0  0  0  0  0  0  0  0
    2.6924    0.3404   -4.1502 H   0  0  0  0  0  0  0  0  0  0  0  0
    0.6550    0.6514   -3.2607 H   0  0  0  0  0  0  0  0  0  0  0  0
    0.8129   -2.3494   -2.5963 H   0  0  0  0  0  0  0  0  0  0  0  0
   -0.6690   -1.3857   -2.6142 H   0  0  0  0  0  0  0  0  0  0  0  0
    0.2259   -1.6670   -4.1194 H   0  0  0  0  0  0  0  0  0  0  0  0
    0.2019    0.5893   -0.7269 N   0  0  0  0  0  0  0  0  0  0  0  0
    0.1242    0.9059    0.6756 C   0  0  2  0  0  0  0  0  0  0  0  0
   -1.2633    1.4874    0.9284 C   0  0  0  0  0  0  0  0  0  0  0  0
   -1.4449    2.6343    1.3321 O   0  0  0  0  0  0  0  0  0  0  0  0
    1.2049    1.9060    1.1058 C   0  0  0  0  0  0  0  0  0  0  0  0
    2.6502    1.3752    1.0160 C   0  0  0  0  0  0  0  0  0  0  0  0
    3.6354    2.5057    1.3258 C   0  0  0  0  0  0  0  0  0  0  0  0
    2.9672    0.7772   -0.3554 C   0  0  0  0  0  0  0  0  0  0  0  0
   -0.5975    0.8179   -1.3140 H   0  0  0  0  0  0  0  0  0  0  0  0
    0.2148   -0.0384    1.2218 H   0  0  0  0  0  0  0  0  0  0  0  0
    1.0082    2.2166    2.1416 H   0  0  0  0  0  0  0  0  0  0  0  0
    1.1192    2.8176    0.4995 H   0  0  0  0  0  0  0  0  0  0  0  0
    2.7946    0.5948    1.7730 H   0  0  0  0  0  0  0  0  0  0  0  0
    3.5367    3.3184    0.5982 H   0  0  0  0  0  0  0  0  0  0  0  0
    4.6684    2.1445    1.2822 H   0  0  0  0  0  0  0  0  0  0  0  0
    3.4629    2.9218    2.3243 H   0  0  0  0  0  0  0  0  0  0  0  0
    2.8381    1.5185   -1.1512 H   0  0  0  0  0  0  0  0  0  0  0  0
    4.0016    0.4187   -0.3927 H   0  0  0  0  0  0  0  0  0  0  0  0
    2.3218   -0.0780   -0.5765 H   0  0  0  0  0  0  0  0  0  0  0  0
   -2.2711    0.5909    0.6010 N   0  0  0  0  0  0  0  0  0  0  0  0
   -3.6775    0.9009    0.7213 C   0  0  2  0  0  0  0  0  0  0  0  0
   -3.8810    2.3430    0.2759 C   0  0  0  0  0  0  0  0  0  0  0  0
   -2.9793    3.1784    0.2753 O   0  0  0  0  0  0  0  0  0  0  0  0
   -4.1691    0.6975    2.1460 C   0  0  0  0  0  0  0  0  0  0  0  0
   -2.0228   -0.3289    0.2489 H   0  0  0  0  0  0  0  0  0  0  0  0
   -4.2090    0.2288    0.0388 H   0  0  0  0  0  0  0  0  0  0  0  0
   -3.6479    1.3624    2.8444 H   0  0  0  0  0  0  0  0  0  0  0  0
   -5.2410    0.9052    2.2294 H   0  0  0  0  0  0  0  0  0  0  0  0
   -3.9948   -0.3326    2.4751 H   0  0  0  0  0  0  0  0  0  0  0  0
   -5.1980    2.5984   -0.0799 N   0  0  0  0  0  0  0  0  0  0  0  0
   -5.6474    3.8966   -0.5255 C   0  0  0  0  0  0  0  0  0  0  0  0
   -5.8749    1.8412   -0.0671 H   0  0  0  0  0  0  0  0  0  0  0  0
   -6.0181    4.4723    0.3354 H   0  0  0  0  0  0  0  0  0  0  0  0
   -4.8090    4.4344   -0.9924 H   0  0  0  0  0  0  0  0  0  0  0  0
   -6.4573    3.7721   -1.2593 H   0  0  0  0  0  0  0  0  0  0  0  0
  1  3  1  0  0  0  0
  1  7  1  0  0  0  0
  1  2  2  0  0  0  0
 37 38  1  0  0  0  0
 38 46  1  0  0  0  0
 38 39  2  0  0  0  0
  8  9  1  0  0  0  0
  9 17  1  0  0  0  0
  9 10  2  0  0  0  0
 18 19  1  0  0  0  0
 19 36  1  0  0  0  0
 19 20  2  0  0  0  0
 37 40  1  0  0  0  0
  8 11  1  0  0  0  0
 22 23  1  0  0  0  0
 22 24  1  0  0  0  0
 46 47  1  0  0  0  0
 18 21  1  0  0  0  0
 21 22  1  0  0  0  0
 36 37  1  0  0  0  0
  7  8  1  0  0  0  0
 17 18  1  0  0  0  0
  3  4  1  0  0  0  0
  3  5  1  0  0  0  0
  3  6  1  0  0  0  0
 40 43  1  0  0  0  0
 40 44  1  0  0  0  0
 40 45  1  0  0  0  0
 11 14  1  0  0  0  0
 11 15  1  0  0  0  0
 11 16  1  0  0  0  0
 23 30  1  0  0  0  0
 23 31  1  0  0  0  0
 23 32  1  0  0  0  0
 24 33  1  0  0  0  0
 24 34  1  0  0  0  0
 24 35  1  0  0  0  0
 47 49  1  0  0  0  0
 47 50  1  0  0  0  0
 47 51  1  0  0  0  0
 21 27  1  0  0  0  0
 21 28  1  0  0  0  0
 37 42  1  0  0  0  0
  8 13  1  0  0  0  0
 18 26  1  0  0  0  0
 22 29  1  0  0  0  0
 46 48  1  0  0  0  0
  7 12  1  0  0  0  0
 36 41  1  0  0  0  0
 17 25  1  0  0  0  0
M  END
$$$$

  -OEChem-05262214473D

 51 50  0     1  0  0  0  0  0999 V2000
    3.4018   -1.2440   -3.0186 C   0  0  0  0  0  0  0  0  0  0  0  0
    3.2697   -2.0909   -2.1427 O   0  0  0  0  0  0  0  0  0  0  0  0
    4.6845   -1.1645   -3.7779 C   0  0  0  0  0  0  0  0  0  0  0  0
    5.4123   -0.4862   -3.3041 H   0  0  0  0  0  0  0  0  0  0  0  0
    5.1949   -2.1387   -3.8443 H   0  0  0  0  0  0  0  0  0  0  0  0
    4.5953   -0.8128   -4.8182 H   0  0  0  0  0  0  0  0  0  0  0  0
    2.4540   -0.3103   -3.4040 N   0  0  0  0  0  0  0  0  0  0  0  0
    1.1494   -0.2128   -2.8039 C   0  0  2  0  0  0  0  0  0  0  0  0
    1.3350    0.0367   -1.3130 C   0  0  0  0  0  0  0  0  0  0  0  0
    2.3625   -0.2586   -0.7063 O   0  0  0  0  0  0  0  0  0  0  0  0
    0.3331   -1.4728   -3.0467 C   0  0  0  0  0  0  0  0  0  0  0  0
    2.6924    0.3404   -4.1502 H   0  0  0  0  0  0  0  0  0  0  0  0
    0.6550    0.6514   -3.2607 H   0  0  0  0  0  0  0  0  0  0  0  0
    0.8129   -2.3494   -2.5963 H   0  0  0  0  0  0  0  0  0  0  0  0
   -0.6690   -1.3857   -2.6142 H   0  0  0  0  0  0  0  0  0  0  0  0
    0.2259   -1.6670   -4.1194 H   0  0  0  0  0  0  0  0  0  0  0  0
    0.2019    0.5893   -0.7269 N   0  0  0  0  0  0  0  0  0  0  0  0
    0.1242    0.9059    0.6756 C   0  0  2  0  0  0  0  0  0  0  0  0
   -1.2633    1.4874    0.9284 C   0  0  0  0  0  0  0  0  0  0  0  0
   -1.4688    2.6911    1.0701 O   0  0  0  0  0  0  0  0  0  0  0  0
    1.2049    1.9060    1.1058 C   0  0  0  0  0  0  0  0  0  0  0  0
    2.6502    1.3752    1.0160 C   0  0  0  0  0  0  0  0  0  0  0  0
    3.6354    2.5057    1.3258 C   0  0  0  0  0  0  0  0  0  0  0  0
    2.9672    0.7772   -0.3554 C   0  0  0  0  0  0  0  0  0  0  0  0
   -0.5975    0.8179   -1.3140 H   0  0  0  0  0  0  0  0  0  0  0  0
    0.2148   -0.0384    1.2218 H   0  0  0  0  0  0  0  0  0  0  0  0
    1.0082    2.2166    2.1416 H   0  0  0  0  0  0  0  0  0  0  0  0
    1.1192    2.8176    0.4995 H   0  0  0  0  0  0  0  0  0  0  0  0
    2.7946    0.5948    1.7730 H   0  0  0  0  0  0  0  0  0  0  0  0
    3.5367    3.3184    0.5982 H   0  0  0  0  0  0  0  0  0  0  0  0
    4.6684    2.1445    1.2822 H   0  0  0  0  0  0  0  0  0  0  0  0
    3.4629    2.9218    2.3243 H   0  0  0  0  0  0  0  0  0  0  0  0
    2.8381    1.5185   -1.1512 H   0  0  0  0  0  0  0  0  0  0  0  0
    4.0016    0.4187   -0.3927 H   0  0  0  0  0  0  0  0  0  0  0  0
    2.3218   -0.0780   -0.5765 H   0  0  0  0  0  0  0  0  0  0  0  0
   -2.2467    0.5079    0.9256 N   0  0  0  0  0  0  0  0  0  0  0  0
   -3.6506    0.7937    1.1156 C   0  0  2  0  0  0  0  0  0  0  0  0
   -3.9735    2.0817    0.3697 C   0  0  0  0  0  0  0  0  0  0  0  0
   -3.1228    2.9207    0.0807 O   0  0  0  0  0  0  0  0  0  0  0  0
   -3.9949    0.9194    2.5915 C   0  0  0  0  0  0  0  0  0  0  0  0
   -1.9826   -0.4610    0.7739 H   0  0  0  0  0  0  0  0  0  0  0  0
   -4.2060   -0.0375    0.6676 H   0  0  0  0  0  0  0  0  0  0  0  0
   -3.4479    1.7471    3.0575 H   0  0  0  0  0  0  0  0  0  0  0  0
   -5.0640    1.1076    2.7349 H   0  0  0  0  0  0  0  0  0  0  0  0
   -3.7345    0.0029    3.1319 H   0  0  0  0  0  0  0  0  0  0  0  0
   -5.3299    2.2042    0.1028 N   0  0  0  0  0  0  0  0  0  0  0  0
   -5.8894    3.3448   -0.5842 C   0  0  0  0  0  0  0  0  0  0  0  0
   -5.9602    1.4510    0.3620 H   0  0  0  0  0  0  0  0  0  0  0  0
   -6.2089    4.0967    0.1524 H   0  0  0  0  0  0  0  0  0  0  0  0
   -5.1290    3.7820   -1.2481 H   0  0  0  0  0  0  0  0  0  0  0  0
   -6.7564    3.0244   -1.1806 H   0  0  0  0  0  0  0  0  0  0  0  0
  1  3  1  0  0  0  0
  1  7  1  0  0  0  0
  1  2  2  0  0  0  0
 37 38  1  0  0  0  0
 38 46  1  0  0  0  0
 38 39  2  0  0  0  0
  8  9  1  0  0  0  0
  9 17  1  0  0  0  0
  9 10  2  0  0  0  0
 18 19  1  0  0  0  0
 19 36  1  0  0  0  0
 19 20  2  0  0  0  0
 37 40  1  0  0  0  0
  8 11  1  0  0  0  0
 22 23  1  0  0  0  0
 22 24  1  0  0  0  0
 46 47  1  0  0  0  0
 18 21  1  0  0  0  0
 21 22  1  0  0  0  0
 36 37  1  0  0  0  0
  7  8  1  0  0  0  0
 17 18  1  0  0  0  0
  3  4  1  0  0  0  0
  3  5  1  0  0  0  0
  3  6  1  0  0  0  0
 40 43  1  0  0  0  0
 40 44  1  0  0  0  0
 40 45  1  0  0  0  0
 11 14  1  0  0  0  0
 11 15  1  0  0  0  0
 11 16  1  0  0  0  0
 23 30  1  0  0  0  0
 23 31  1  0  0  0  0
 23 32  1  0  0  0  0
 24 33  1  0  0  0  0
 24 34  1  0  0  0  0
 24 35  1  0  0  0  0
 47 49  1  0  0  0  0
 47 50  1  0  0  0  0
 47 51  1  0  0  0  0
 21 27  1  0  0  0  0
 21 28  1  0  0  0  0
 37 42  1  0  0  0  0
  8 13  1  0  0  0  0
 18 26  1  0  0  0  0
 22 29  1  0  0  0  0
 46 48  1  0  0  0  0
  7 12  1  0  0  0  0
 36 41  1  0  0  0  0
 17 25  1  0  0  0  0
M  END
$$$$

  -OEChem-05262214473D

 51 50  0     1  0  0  0  0  0999 V2000
    3.4018   -1.2440   -3.0186 C   0  0  0  0  0  0  0  0  0  0  0  0
    3.2697   -2.0909   -2.1427 O   0  0  0  0  0  0  0  0  0  0  0  0
    4.6845   -1.1645   -3.7779 C   0  0  0  0  0  0  0  0  0  0  0  0
    5.4123   -0.4862   -3.3041 H   0  0  0  0  0  0  0  0  0  0  0  0
    5.1949   -2.1387   -3.8443 H   0  0  0  0  0  0  0  0  0  0  0  0
    4.5953   -0.8128   -4.8182 H   0  0  0  0  0  0  0  0  0  0  0  0
    2.4540   -0.3103   -3.4040 N   0  0  0  0  0  0  0  0  0  0  0  0
    1.1494   -0.2128   -2.8039 C   0  0  2  0  0  0  0  0  0  0  0  0
    1.3350    0.0367   -1.3130 C   0  0  0  0  0  0  0  0  0  0  0  0
    2.3625   -0.2586   -0.7063 O   0  0  0  0  0  0  0  0  0  0  0  0
    0.3331   -1.4728   -3.0467 C   0  0  0  0  0  0  0  0  0  0  0  0
    2.6924    0.3404   -4.1502 H   0  0  0  0  0  0  0  0  0  0  0  0
    0.6550    0.6514   -3.2607 H   0  0  0  0  0  0  0  0  0  0  0  0
    0.8129   -2.3494   -2.5963 H   0  0  0  0  0  0  0  0  0  0  0  0
   -0.6690   -1.3857   -2.6142 H   0  0  0  0  0  0  0  0  0  0  0  0
    0.2259   -1.6670   -4.1194 H   0  0  0  0  0  0  0  0  0  0  0  0
    0.2019    0.5893   -0.7269 N   0  0  0  0  0  0  0  0  0  0  0  0
    0.1242    0.9059    0.6756 C   0  0  2  0  0  0  0  0  0  0  0  0
   -1.2633    1.4874    0.9284 C   0  0  0  0  0  0  0  0  0  0  0  0
   -1.5202    2.6833    0.8059 O   0  0  0  0  0  0  0  0  0  0  0  0
    1.2049    1.9060    1.1058 C   0  0  0  0  0  0  0  0  0  0  0  0
    2.6502    1.3752    1.0160 C   0  0  0  0  0  0  0  0  0  0  0  0
    3.6354    2.5057    1.3258 C   0  0  0  0  0  0  0  0  0  0  0  0
    2.9672    0.7772   -0.3554 C   0  0  0  0  0  0  0  0  0  0  0  0
   -0.5975    0.8179   -1.3140 H   0  0  0  0  0  0  0  0  0  0  0  0
    0.2148   -0.0384    1.2218 H   0  0  0  0  0  0  0  0  0  0  0  0
    1.0082    2.2166    2.1416 H   0  0  0  0  0  0  0  0  0  0  0  0
    1.1192    2.8176    0.4995 H   0  0  0  0  0  0  0  0  0  0  0  0
    2.7946    0.5948    1.7730 H   0  0  0  0  0  0  0  0  0  0  0  0
    3.5367    3.3184    0.5982 H   0  0  0  0  0  0  0  0  0  0  0  0
    4.6684    2.1445    1.2822 H   0  0  0  0  0  0  0  0  0  0  0  0
    3.4629    2.9218    2.3243 H   0  0  0  0  0  0  0  0  0  0  0  0
    2.8381    1.5185   -1.1512 H   0  0  0  0  0  0  0  0  0  0  0  0
    4.0016    0.4187   -0.3927 H   0  0  0  0  0  0  0  0  0  0  0  0
    2.3218   -0.0780   -0.5765 H   0  0  0  0  0  0  0  0  0  0  0  0
   -2.1876    0.5052    1.2562 N   0  0  0  0  0  0  0  0  0  0  0  0
   -3.5811    0.7842    1.5190 C   0  0  2  0  0  0  0  0  0  0  0  0
   -4.0423    1.8474    0.5309 C   0  0  0  0  0  0  0  0  0  0  0  0
   -3.2696    2.6198   -0.0325 O   0  0  0  0  0  0  0  0  0  0  0  0
   -3.7922    1.2461    2.9524 C   0  0  0  0  0  0  0  0  0  0  0  0
   -1.8862   -0.4633    1.3081 H   0  0  0  0  0  0  0  0  0  0  0  0
   -4.1296   -0.1465    1.3374 H   0  0  0  0  0  0  0  0  0  0  0  0
   -3.2501    2.1774    3.1532 H   0  0  0  0  0  0  0  0  0  0  0  0
   -4.8519    1.4297    3.1581 H   0  0  0  0  0  0  0  0  0  0  0  0
   -3.4326    0.4928    3.6616 H   0  0  0  0  0  0  0  0  0  0  0  0
   -5.4224    1.8608    0.3851 N   0  0  0  0  0  0  0  0  0  0  0  0
   -6.1052    2.7876   -0.4871 C   0  0  0  0  0  0  0  0  0  0  0  0
   -5.9835    1.1716    0.8768 H   0  0  0  0  0  0  0  0  0  0  0  0
   -6.3951    3.6827    0.0828 H   0  0  0  0  0  0  0  0  0  0  0  0
   -5.4354    3.0780   -1.3099 H   0  0  0  0  0  0  0  0  0  0  0  0
   -7.0054    2.3079   -0.8990 H   0  0  0  0  0  0  0  0  0  0  0  0
  1  3  1  0  0  0  0
  1  7  1  0  0  0  0
  1  2  2  0  0  0  0
 37 38  1  0  0  0  0
 38 46  1  0  0  0  0
 38 39  2  0  0  0  0
  8  9  1  0  0  0  0
  9 17  1  0  0  0  0
  9 10  2  0  0  0  0
 18 19  1  0  0  0  0
 19 36  1  0  0  0  0
 19 20  2  0  0  0  0
 37 40  1  0  0  0  0
  8 11  1  0  0  0  0
 22 23  1  0  0  0  0
 22 24  1  0  0  0  0
 46 47  1  0  0  0  0
 18 21  1  0  0  0  0
 21 22  1  0  0  0  0
 36 37  1  0  0  0  0
  7  8  1  0  0  0  0
 17 18  1  0  0  0  0
  3  4  1  0  0  0  0
  3  5  1  0  0  0  0
  3  6  1  0  0  0  0
 40 43  1  0  0  0  0
 40 44  1  0  0  0  0
 40 45  1  0  0  0  0
 11 14  1  0  0  0  0
 11 15  1  0  0  0  0
 11 16  1  0  0  0  0
 23 30  1  0  0  0  0
 23 31  1  0  0  0  0
 23 32  1  0  0  0  0
 24 33  1  0  0  0  0
 24 34  1  0  0  0  0
 24 35  1  0  0  0  0
 47 49  1  0  0  0  0
 47 50  1  0  0  0  0
 47 51  1  0  0  0  0
 21 27  1  0  0  0  0
 21 28  1  0  0  0  0
 37 42  1  0  0  0  0
  8 13  1  0  0  0  0
 18 26  1  0  0  0  0
 22 29  1  0  0  0  0
 46 48  1  0  0  0  0
  7 12  1  0  0  0  0
 36 41  1  0  0  0  0
 17 25  1  0  0  0  0
M  END
$$$$

  -OEChem-05262214473D

 51 50  0     1  0  0  0  0  0999 V2000
    3.4018   -1.2440   -3.0186 C   0  0  0  0  0  0  0  0  0  0  0  0
    3.2697   -2.0909   -2.1427 O   0  0  0  0  0  0  0  0  0  0  0  0
    4.6845   -1.1645   -3.7779 C   0  0  0  0  0  0  0  0  0  0  0  0
    5.4123   -0.4862   -3.3041 H   0  0  0  0  0  0  0  0  0  0  0  0
    5.1949   -2.1387   -3.8443 H   0  0  0  0  0  0  0  0  0  0  0  0
    4.5953   -0.8128   -4.8182 H   0  0  0  0  0  0  0  0  0  0  0  0
    2.4540   -0.3103   -3.4040 N   0  0  0  0  0  0  0  0  0  0  0  0
    1.1494   -0.2128   -2.8039 C   0  0  2  0  0  0  0  0  0  0  0  0
    1.3350    0.0367   -1.3130 C   0  0  0  0  0  0  0  0  0  0  0  0
    2.3625   -0.2586   -0.7063 O   0  0  0  0  0  0  0  0  0  0  0  0
    0.3331   -1.4728   -3.0467 C   0  0  0  0  0  0  0  0  0  0  0  0
    2.6924    0.3404   -4.1502 H   0  0  0  0  0  0  0  0  0  0  0  0
    0.6550    0.6514   -3.2607 H   0  0  0  0  0  0  0  0  0  0  0  0
    0.8129   -2.3494   -2.5963 H   0  0  0  0  0  0  0  0  0  0  0  0
   -0.6690   -1.3857   -2.6142 H   0  0  0  0  0  0  0  0  0  0  0  0
    0.2259   -1.6670   -4.1194 H   0  0  0  0  0  0  0  0  0  0  0  0
    0.2019    0.5893   -0.7269 N   0  0  0  0  0  0  0  0  0  0  0  0
    0.1242    0.9059    0.6756 C   0  0  2  0  0  0  0  0  0  0  0  0
   -1.2633    1.4874    0.9284 C   0  0  0  0  0  0  0  0  0  0  0  0
   -1.5956    2.6114    0.5577 O   0  0  0  0  0  0  0  0  0  0  0  0
    1.2049    1.9060    1.1058 C   0  0  0  0  0  0  0  0  0  0  0  0
    2.6502    1.3752    1.0160 C   0  0  0  0  0  0  0  0  0  0  0  0
    3.6354    2.5057    1.3258 C   0  0  0  0  0  0  0  0  0  0  0  0
    2.9672    0.7772   -0.3554 C   0  0  0  0  0  0  0  0  0  0  0  0
   -0.5975    0.8179   -1.3140 H   0  0  0  0  0  0  0  0  0  0  0  0
    0.2148   -0.0384    1.2218 H   0  0  0  0  0  0  0  0  0  0  0  0
    1.0082    2.2166    2.1416 H   0  0  0  0  0  0  0  0  0  0  0  0
    1.1192    2.8176    0.4995 H   0  0  0  0  0  0  0  0  0  0  0  0
    2.7946    0.5948    1.7730 H   0  0  0  0  0  0  0  0  0  0  0  0
    3.5367    3.3184    0.5982 H   0  0  0  0  0  0  0  0  0  0  0  0
    4.6684    2.1445    1.2822 H   0  0  0  0  0  0  0  0  0  0  0  0
    3.4629    2.9218    2.3243 H   0  0  0  0  0  0  0  0  0  0  0  0
    2.8381    1.5185   -1.1512 H   0  0  0  0  0  0  0  0  0  0  0  0
    4.0016    0.4187   -0.3927 H   0  0  0  0  0  0  0  0  0  0  0  0
    2.3218   -0.0780   -0.5765 H   0  0  0  0  0  0  0  0  0  0  0  0
   -2.0977    0.5829    1.5704 N   0  0  0  0  0  0  0  0  0  0  0  0
   -3.4737    0.8729    1.9040 C   0  0  2  0  0  0  0  0  0  0  0  0
   -4.0828    1.6561    0.7486 C   0  0  0  0  0  0  0  0  0  0  0  0
   -3.4096    2.2962   -0.0566 O   0  0  0  0  0  0  0  0  0  0  0  0
   -3.5748    1.6553    3.2041 C   0  0  0  0  0  0  0  0  0  0  0  0
   -1.7403   -0.3357    1.8152 H   0  0  0  0  0  0  0  0  0  0  0  0
   -3.9851   -0.0908    2.0024 H   0  0  0  0  0  0  0  0  0  0  0  0
   -3.0681    2.6241    3.1247 H   0  0  0  0  0  0  0  0  0  0  0  0
   -4.6191    1.8495    3.4702 H   0  0  0  0  0  0  0  0  0  0  0  0
   -3.1098    1.1036    4.0282 H   0  0  0  0  0  0  0  0  0  0  0  0
   -5.4691    1.5916    0.7477 N   0  0  0  0  0  0  0  0  0  0  0  0
   -6.2802    2.2630   -0.2409 C   0  0  0  0  0  0  0  0  0  0  0  0
   -5.9433    1.0218    1.4421 H   0  0  0  0  0  0  0  0  0  0  0  0
   -6.5641    3.2584    0.1314 H   0  0  0  0  0  0  0  0  0  0  0  0
   -5.7072    2.3703   -1.1737 H   0  0  0  0  0  0  0  0  0  0  0  0
   -7.1874    1.6714   -0.4339 H   0  0  0  0  0  0  0  0  0  0  0  0
  1  3  1  0  0  0  0
  1  7  1  0  0  0  0
  1  2  2  0  0  0  0
 37 38  1  0  0  0  0
 38 46  1  0  0  0  0
 38 39  2  0  0  0  0
  8  9  1  0  0  0  0
  9 17  1  0  0  0  0
  9 10  2  0  0  0  0
 18 19  1  0  0  0  0
 19 36  1  0  0  0  0
 19 20  2  0  0  0  0
 37 40  1  0  0  0  0
  8 11  1  0  0  0  0
 22 23  1  0  0  0  0
 22 24  1  0  0  0  0
 46 47  1  0  0  0  0
 18 21  1  0  0  0  0
 21 22  1  0  0  0  0
 36 37  1  0  0  0  0
  7  8  1  0  0  0  0
 17 18  1  0  0  0  0
  3  4  1  0  0  0  0
  3  5  1  0  0  0  0
  3  6  1  0  0  0  0
 40 43  1  0  0  0  0
 40 44  1  0  0  0  0
 40 45  1  0  0  0  0
 11 14  1  0  0  0  0
 11 15  1  0  0  0  0
 11 16  1  0  0  0  0
 23 30  1  0  0  0  0
 23 31  1  0  0  0  0
 23 32  1  0  0  0  0
 24 33  1  0  0  0  0
 24 34  1  0  0  0  0
 24 35  1  0  0  0  0
 47 49  1  0  0  0  0
 47 50  1  0  0  0  0
 47 51  1  0  0  0  0
 21 27  1  0  0  0  0
 21 28  1  0  0  0  0
 37 42  1  0  0  0  0
  8 13  1  0  0  0  0
 18 26  1  0  0  0  0
 22 29  1  0  0  0  0
 46 48  1  0  0  0  0
  7 12  1  0  0  0  0
 36 41  1  0  0  0  0
 17 25  1  0  0  0  0
M  END
$$$$

  -OEChem-05262214473D

 51 50  0     1  0  0  0  0  0999 V2000
    3.4018   -1.2440   -3.0186 C   0  0  0  0  0  0  0  0  0  0  0  0
    3.2697   -2.0909   -2.1427 O   0  0  0  0  0  0  0  0  0  0  0  0
    4.6845   -1.1645   -3.7779 C   0  0  0  0  0  0  0  0  0  0  0  0
    5.4123   -0.4862   -3.3041 H   0  0  0  0  0  0  0  0  0  0  0  0
    5.1949   -2.1387   -3.8443 H   0  0  0  0  0  0  0  0  0  0  0  0
    4.5953   -0.8128   -4.8182 H   0  0  0  0  0  0  0  0  0  0  0  0
    2.4540   -0.3103   -3.4040 N   0  0  0  0  0  0  0  0  0  0  0  0
    1.1494   -0.2128   -2.8039 C   0  0  2  0  0  0  0  0  0  0  0  0
    1.3350    0.0367   -1.3130 C   0  0  0  0  0  0  0  0  0  0  0  0
    2.3625   -0.2586   -0.7063 O   0  0  0  0  0  0  0  0  0  0  0  0
    0.3331   -1.4728   -3.0467 C   0  0  0  0  0  0  0  0  0  0  0  0
    2.6924    0.3404   -4.1502 H   0  0  0  0  0  0  0  0  0  0  0  0
    0.6550    0.6514   -3.2607 H   0  0  0  0  0  0  0  0  0  0  0  0
    0.8129   -2.3494   -2.5963 H   0  0  0  0  0  0  0  0  0  0  0  0
   -0.6690   -1.3857   -2.6142 H   0  0  0  0  0  0  0  0  0  0  0  0
    0.2259   -1.6670   -4.1194 H   0  0  0  0  0  0  0  0  0  0  0  0
    0.2019    0.5893   -0.7269 N   0  0  0  0  0  0  0  0  0  0  0  0
    0.1242    0.9059    0.6756 C   0  0  2  0  0  0  0  0  0  0  0  0
   -1.2633    1.4874    0.9284 C   0  0  0  0  0  0  0  0  0  0  0  0
   -1.6898    2.4803    0.3423 O   0  0  0  0  0  0  0  0  0  0  0  0
    1.2049    1.9060    1.1058 C   0  0  0  0  0  0  0  0  0  0  0  0
    2.6502    1.3752    1.0160 C   0  0  0  0  0  0  0  0  0  0  0  0
    3.6354    2.5057    1.3258 C   0  0  0  0  0  0  0  0  0  0  0  0
    2.9672    0.7772   -0.3554 C   0  0  0  0  0  0  0  0  0  0  0  0
   -0.5975    0.8179   -1.3140 H   0  0  0  0  0  0  0  0  0  0  0  0
    0.2148   -0.0384    1.2218 H   0  0  0  0  0  0  0  0  0  0  0  0
    1.0082    2.2166    2.1416 H   0  0  0  0  0  0  0  0  0  0  0  0
    1.1192    2.8176    0.4995 H   0  0  0  0  0  0  0  0  0  0  0  0
    2.7946    0.5948    1.7730 H   0  0  0  0  0  0  0  0  0  0  0  0
    3.5367    3.3184    0.5982 H   0  0  0  0  0  0  0  0  0  0  0  0
    4.6684    2.1445    1.2822 H   0  0  0  0  0  0  0  0  0  0  0  0
    3.4629    2.9218    2.3243 H   0  0  0  0  0  0  0  0  0  0  0  0
    2.8381    1.5185   -1.1512 H   0  0  0  0  0  0  0  0  0  0  0  0
    4.0016    0.4187   -0.3927 H   0  0  0  0  0  0  0  0  0  0  0  0
    2.3218   -0.0780   -0.5765 H   0  0  0  0  0  0  0  0  0  0  0  0
   -1.9833    0.7359    1.8467 N   0  0  0  0  0  0  0  0  0  0  0  0
   -3.3358    1.0539    2.2444 C   0  0  2  0  0  0  0  0  0  0  0  0
   -4.0922    1.5209    1.0078 C   0  0  0  0  0  0  0  0  0  0  0  0
   -3.5333    1.9719    0.0102 O   0  0  0  0  0  0  0  0  0  0  0  0
   -3.3575    2.1192    3.3295 C   0  0  0  0  0  0  0  0  0  0  0  0
   -1.5548   -0.0868    2.2606 H   0  0  0  0  0  0  0  0  0  0  0  0
   -3.7823    0.1257    2.6175 H   0  0  0  0  0  0  0  0  0  0  0  0
   -2.9142    3.0566    2.9742 H   0  0  0  0  0  0  0  0  0  0  0  0
   -4.3814    2.3384    3.6499 H   0  0  0  0  0  0  0  0  0  0  0  0
   -2.7880    1.7937    4.2067 H   0  0  0  0  0  0  0  0  0  0  0  0
   -5.4670    1.4149    1.1659 N   0  0  0  0  0  0  0  0  0  0  0  0
   -6.4025    1.8067    0.1377 C   0  0  0  0  0  0  0  0  0  0  0  0
   -5.8422    1.0119    2.0195 H   0  0  0  0  0  0  0  0  0  0  0  0
   -6.7043    2.8527    0.2950 H   0  0  0  0  0  0  0  0  0  0  0  0
   -5.9259    1.7071   -0.8487 H   0  0  0  0  0  0  0  0  0  0  0  0
   -7.2900    1.1583    0.1832 H   0  0  0  0  0  0  0  0  0  0  0  0
  1  3  1  0  0  0  0
  1  7  1  0  0  0  0
  1  2  2  0  0  0  0
 37 38  1  0  0  0  0
 38 46  1  0  0  0  0
 38 39  2  0  0  0  0
  8  9  1  0  0  0  0
  9 17  1  0  0  0  0
  9 10  2  0  0  0  0
 18 19  1  0  0  0  0
 19 36  1  0  0  0  0
 19 20  2  0  0  0  0
 37 40  1  0  0  0  0
  8 11  1  0  0  0  0
 22 23  1  0  0  0  0
 22 24  1  0  0  0  0
 46 47  1  0  0  0  0
 18 21  1  0  0  0  0
 21 22  1  0  0  0  0
 36 37  1  0  0  0  0
  7  8  1  0  0  0  0
 17 18  1  0  0  0  0
  3  4  1  0  0  0  0
  3  5  1  0  0  0  0
  3  6  1  0  0  0  0
 40 43  1  0  0  0  0
 40 44  1  0  0  0  0
 40 45  1  0  0  0  0
 11 14  1  0  0  0  0
 11 15  1  0  0  0  0
 11 16  1  0  0  0  0
 23 30  1  0  0  0  0
 23 31  1  0  0  0  0
 23 32  1  0  0  0  0
 24 33  1  0  0  0  0
 24 34  1  0  0  0  0
 24 35  1  0  0  0  0
 47 49  1  0  0  0  0
 47 50  1  0  0  0  0
 47 51  1  0  0  0  0
 21 27  1  0  0  0  0
 21 28  1  0  0  0  0
 37 42  1  0  0  0  0
  8 13  1  0  0  0  0
 18 26  1  0  0  0  0
 22 29  1  0  0  0  0
 46 48  1  0  0  0  0
  7 12  1  0  0  0  0
 36 41  1  0  0  0  0
 17 25  1  0  0  0  0
M  END
$$$$

  -OEChem-05262214473D

 51 50  0     1  0  0  0  0  0999 V2000
    3.4018   -1.2440   -3.0186 C   0  0  0  0  0  0  0  0  0  0  0  0
    3.2697   -2.0909   -2.1427 O   0  0  0  0  0  0  0  0  0  0  0  0
    4.6845   -1.1645   -3.7779 C   0  0  0  0  0  0  0  0  0  0  0  0
    5.4123   -0.4862   -3.3041 H   0  0  0  0  0  0  0  0  0  0  0  0
    5.1949   -2.1387   -3.8443 H   0  0  0  0  0  0  0  0  0  0  0  0
    4.5953   -0.8128   -4.8182 H   0  0  0  0  0  0  0  0  0  0  0  0
    2.4540   -0.3103   -3.4040 N   0  0  0  0  0  0  0  0  0  0  0  0
    1.1494   -0.2128   -2.8039 C   0  0  2  0  0  0  0  0  0  0  0  0
    1.3350    0.0367   -1.3130 C   0  0  0  0  0  0  0  0  0  0  0  0
    2.3625   -0.2586   -0.7063 O   0  0  0  0  0  0  0  0  0  0  0  0
    0.3331   -1.4728   -3.0467 C   0  0  0  0  0  0  0  0  0  0  0  0
    2.6924    0.3404   -4.1502 H   0  0  0  0  0  0  0  0  0  0  0  0
    0.6550    0.6514   -3.2607 H   0  0  0  0  0  0  0  0  0  0  0  0
    0.8129   -2.3494   -2.5963 H   0  0  0  0  0  0  0  0  0  0  0  0
   -0.6690   -1.3857   -2.6142 H   0  0  0  0  0  0  0  0  0  0  0  0
    0.2259   -1.6670   -4.1194 H   0  0  0  0  0  0  0  0  0  0  0  0
    0.2019    0.5893   -0.7269 N   0  0  0  0  0  0  0  0  0  0  0  0
    0.1242    0.9059    0.6756 C   0  0  2  0  0  0  0  0  0  0  0  0
   -1.2633    1.4874    0.9284 C   0  0  0  0  0  0  0  0  0  0  0  0
   -1.7964    2.2989    0.1744 O   0  0  0  0  0  0  0  0  0  0  0  0
    1.2049    1.9060    1.1058 C   0  0  0  0  0  0  0  0  0  0  0  0
    2.6502    1.3752    1.0160 C   0  0  0  0  0  0  0  0  0  0  0  0
    3.6354    2.5057    1.3258 C   0  0  0  0  0  0  0  0  0  0  0  0
    2.9672    0.7772   -0.3554 C   0  0  0  0  0  0  0  0  0  0  0  0
   -0.5975    0.8179   -1.3140 H   0  0  0  0  0  0  0  0  0  0  0  0
    0.2148   -0.0384    1.2218 H   0  0  0  0  0  0  0  0  0  0  0  0
    1.0082    2.2166    2.1416 H   0  0  0  0  0  0  0  0  0  0  0  0
    1.1192    2.8176    0.4995 H   0  0  0  0  0  0  0  0  0  0  0  0
    2.7946    0.5948    1.7730 H   0  0  0  0  0  0  0  0  0  0  0  0
    3.5367    3.3184    0.5982 H   0  0  0  0  0  0  0  0  0  0  0  0
    4.6684    2.1445    1.2822 H   0  0  0  0  0  0  0  0  0  0  0  0
    3.4629    2.9218    2.3243 H   0  0  0  0  0  0  0  0  0  0  0  0
    2.8381    1.5185   -1.1512 H   0  0  0  0  0  0  0  0  0  0  0  0
    4.0016    0.4187   -0.3927 H   0  0  0  0  0  0  0  0  0  0  0  0
    2.3218   -0.0780   -0.5765 H   0  0  0  0  0  0  0  0  0  0  0  0
   -1.8521    0.9535    2.0663 N   0  0  0  0  0  0  0  0  0  0  0  0
   -3.1768    1.3147    2.5171 C   0  0  2  0  0  0  0  0  0  0  0  0
   -4.0700    1.4508    1.2910 C   0  0  0  0  0  0  0  0  0  0  0  0
   -3.6323    1.6691    0.1632 O   0  0  0  0  0  0  0  0  0  0  0  0
   -3.1552    2.6061    3.3199 C   0  0  0  0  0  0  0  0  0  0  0  0
   -1.3423    0.2665    2.6138 H   0  0  0  0  0  0  0  0  0  0  0  0
   -3.5350    0.4883    3.1406 H   0  0  0  0  0  0  0  0  0  0  0  0
   -2.7990    3.4456    2.7117 H   0  0  0  0  0  0  0  0  0  0  0  0
   -4.1551    2.8632    3.6848 H   0  0  0  0  0  0  0  0  0  0  0  0
   -2.4892    2.5162    4.1849 H   0  0  0  0  0  0  0  0  0  0  0  0
   -5.4160    1.3428    1.6113 N   0  0  0  0  0  0  0  0  0  0  0  0
   -6.4637    1.4498    0.6228 C   0  0  0  0  0  0  0  0  0  0  0  0
   -5.6872    1.1426    2.5695 H   0  0  0  0  0  0  0  0  0  0  0  0
   -6.8062    2.4933    0.5623 H   0  0  0  0  0  0  0  0  0  0  0  0
   -6.0767    1.1336   -0.3571 H   0  0  0  0  0  0  0  0  0  0  0  0
   -7.3062    0.8036    0.9102 H   0  0  0  0  0  0  0  0  0  0  0  0
  1  3  1  0  0  0  0
  1  7  1  0  0  0  0
  1  2  2  0  0  0  0
 37 38  1  0  0  0  0
 38 46  1  0  0  0  0
 38 39  2  0  0  0  0
  8  9  1  0  0  0  0
  9 17  1  0  0  0  0
  9 10  2  0  0  0  0
 18 19  1  0  0  0  0
 19 36  1  0  0  0  0
 19 20  2  0  0  0  0
 37 40  1  0  0  0  0
  8 11  1  0  0  0  0
 22 23  1  0  0  0  0
 22 24  1  0  0  0  0
 46 47  1  0  0  0  0
 18 21  1  0  0  0  0
 21 22  1  0  0  0  0
 36 37  1  0  0  0  0
  7  8  1  0  0  0  0
 17 18  1  0  0  0  0
  3  4  1  0  0  0  0
  3  5  1  0  0  0  0
  3  6  1  0  0  0  0
 40 43  1  0  0  0  0
 40 44  1  0  0  0  0
 40 45  1  0  0  0  0
 11 14  1  0  0  0  0
 11 15  1  0  0  0  0
 11 16  1  0  0  0  0
 23 30  1  0  0  0  0
 23 31  1  0  0  0  0
 23 32  1  0  0  0  0
 24 33  1  0  0  0  0
 24 34  1  0  0  0  0
 24 35  1  0  0  0  0
 47 49  1  0  0  0  0
 47 50  1  0  0  0  0
 47 51  1  0  0  0  0
 21 27  1  0  0  0  0
 21 28  1  0  0  0  0
 37 42  1  0  0  0  0
  8 13  1  0  0  0  0
 18 26  1  0  0  0  0
 22 29  1  0  0  0  0
 46 48  1  0  0  0  0
  7 12  1  0  0  0  0
 36 41  1  0  0  0  0
 17 25  1  0  0  0  0
M  END
$$$$

  -OEChem-05262214473D

 51 50  0     1  0  0  0  0  0999 V2000
    3.4018   -1.2440   -3.0186 C   0  0  0  0  0  0  0  0  0  0  0  0
    3.2697   -2.0909   -2.1427 O   0  0  0  0  0  0  0  0  0  0  0  0
    4.6845   -1.1645   -3.7779 C   0  0  0  0  0  0  0  0  0  0  0  0
    5.4123   -0.4862   -3.3041 H   0  0  0  0  0  0  0  0  0  0  0  0
    5.1949   -2.1387   -3.8443 H   0  0  0  0  0  0  0  0  0  0  0  0
    4.5953   -0.8128   -4.8182 H   0  0  0  0  0  0  0  0  0  0  0  0
    2.4540   -0.3103   -3.4040 N   0  0  0  0  0  0  0  0  0  0  0  0
    1.1494   -0.2128   -2.8039 C   0  0  2  0  0  0  0  0  0  0  0  0
    1.3350    0.0367   -1.3130 C   0  0  0  0  0  0  0  0  0  0  0  0
    2.3625   -0.2586   -0.7063 O   0  0  0  0  0  0  0  0  0  0  0  0
    0.3331   -1.4728   -3.0467 C   0  0  0  0  0  0  0  0  0  0  0  0
    2.6924    0.3404   -4.1502 H   0  0  0  0  0  0  0  0  0  0  0  0
    0.6550    0.6514   -3.2607 H   0  0  0  0  0  0  0  0  0  0  0  0
    0.8129   -2.3494   -2.5963 H   0  0  0  0  0  0  0  0  0  0  0  0
   -0.6690   -1.3857   -2.6142 H   0  0  0  0  0  0  0  0  0  0  0  0
    0.2259   -1.6670   -4.1194 H   0  0  0  0  0  0  0  0  0  0  0  0
    0.2019    0.5893   -0.7269 N   0  0  0  0  0  0  0  0  0  0  0  0
    0.1242    0.9059    0.6756 C   0  0  2  0  0  0  0  0  0  0  0  0
   -1.2633    1.4874    0.9284 C   0  0  0  0  0  0  0  0  0  0  0  0
   -1.9082    2.0796    0.0655 O   0  0  0  0  0  0  0  0  0  0  0  0
    1.2049    1.9060    1.1058 C   0  0  0  0  0  0  0  0  0  0  0  0
    2.6502    1.3752    1.0160 C   0  0  0  0  0  0  0  0  0  0  0  0
    3.6354    2.5057    1.3258 C   0  0  0  0  0  0  0  0  0  0  0  0
    2.9672    0.7772   -0.3554 C   0  0  0  0  0  0  0  0  0  0  0  0
   -0.5975    0.8179   -1.3140 H   0  0  0  0  0  0  0  0  0  0  0  0
    0.2148   -0.0384    1.2218 H   0  0  0  0  0  0  0  0  0  0  0  0
    1.0082    2.2166    2.1416 H   0  0  0  0  0  0  0  0  0  0  0  0
    1.1192    2.8176    0.4995 H   0  0  0  0  0  0  0  0  0  0  0  0
    2.7946    0.5948    1.7730 H   0  0  0  0  0  0  0  0  0  0  0  0
    3.5367    3.3184    0.5982 H   0  0  0  0  0  0  0  0  0  0  0  0
    4.6684    2.1445    1.2822 H   0  0  0  0  0  0  0  0  0  0  0  0
    3.4629    2.9218    2.3243 H   0  0  0  0  0  0  0  0  0  0  0  0
    2.8381    1.5185   -1.1512 H   0  0  0  0  0  0  0  0  0  0  0  0
    4.0016    0.4187   -0.3927 H   0  0  0  0  0  0  0  0  0  0  0  0
    2.3218   -0.0780   -0.5765 H   0  0  0  0  0  0  0  0  0  0  0  0
   -1.7130    1.2211    2.2142 N   0  0  0  0  0  0  0  0  0  0  0  0
   -3.0075    1.6376    2.7033 C   0  0  2  0  0  0  0  0  0  0  0  0
   -4.0175    1.4508    1.5788 C   0  0  0  0  0  0  0  0  0  0  0  0
   -3.6999    1.4084    0.3921 O   0  0  0  0  0  0  0  0  0  0  0  0
   -2.9816    3.0828    3.1761 C   0  0  0  0  0  0  0  0  0  0  0  0
   -1.1175    0.7000    2.8510 H   0  0  0  0  0  0  0  0  0  0  0  0
   -3.2601    0.9723    3.5361 H   0  0  0  0  0  0  0  0  0  0  0  0
   -2.7303    3.7644    2.3553 H   0  0  0  0  0  0  0  0  0  0  0  0
   -3.9556    3.3881    3.5727 H   0  0  0  0  0  0  0  0  0  0  0  0
   -2.2337    3.2217    3.9642 H   0  0  0  0  0  0  0  0  0  0  0  0
   -5.3198    1.3801    2.0534 N   0  0  0  0  0  0  0  0  0  0  0  0
   -6.4596    1.2166    1.1815 C   0  0  0  0  0  0  0  0  0  0  0  0
   -5.4888    1.4050    3.0547 H   0  0  0  0  0  0  0  0  0  0  0  0
   -6.8628    2.2048    0.9151 H   0  0  0  0  0  0  0  0  0  0  0  0
   -6.1492    0.6889    0.2676 H   0  0  0  0  0  0  0  0  0  0  0  0
   -7.2349    0.6313    1.6976 H   0  0  0  0  0  0  0  0  0  0  0  0
  1  3  1  0  0  0  0
  1  7  1  0  0  0  0
  1  2  2  0  0  0  0
 37 38  1  0  0  0  0
 38 46  1  0  0  0  0
 38 39  2  0  0  0  0
  8  9  1  0  0  0  0
  9 17  1  0  0  0  0
  9 10  2  0  0  0  0
 18 19  1  0  0  0  0
 19 36  1  0  0  0  0
 19 20  2  0  0  0  0
 37 40  1  0  0  0  0
  8 11  1  0  0  0  0
 22 23  1  0  0  0  0
 22 24  1  0  0  0  0
 46 47  1  0  0  0  0
 18 21  1  0  0  0  0
 21 22  1  0  0  0  0
 36 37  1  0  0  0  0
  7  8  1  0  0  0  0
 17 18  1  0  0  0  0
  3  4  1  0  0  0  0
  3  5  1  0  0  0  0
  3  6  1  0  0  0  0
 40 43  1  0  0  0  0
 40 44  1  0  0  0  0
 40 45  1  0  0  0  0
 11 14  1  0  0  0  0
 11 15  1  0  0  0  0
 11 16  1  0  0  0  0
 23 30  1  0  0  0  0
 23 31  1  0  0  0  0
 23 32  1  0  0  0  0
 24 33  1  0  0  0  0
 24 34  1  0  0  0  0
 24 35  1  0  0  0  0
 47 49  1  0  0  0  0
 47 50  1  0  0  0  0
 47 51  1  0  0  0  0
 21 27  1  0  0  0  0
 21 28  1  0  0  0  0
 37 42  1  0  0  0  0
  8 13  1  0  0  0  0
 18 26  1  0  0  0  0
 22 29  1  0  0  0  0
 46 48  1  0  0  0  0
  7 12  1  0  0  0  0
 36 41  1  0  0  0  0
 17 25  1  0  0  0  0
M  END
$$$$

  -OEChem-05262214473D

 51 50  0     1  0  0  0  0  0999 V2000
    3.4018   -1.2440   -3.0186 C   0  0  0  0  0  0  0  0  0  0  0  0
    3.2697   -2.0909   -2.1427 O   0  0  0  0  0  0  0  0  0  0  0  0
    4.6845   -1.1645   -3.7779 C   0  0  0  0  0  0  0  0  0  0  0  0
    5.4123   -0.4862   -3.3041 H   0  0  0  0  0  0  0  0  0  0  0  0
    5.1949   -2.1387   -3.8443 H   0  0  0  0  0  0  0  0  0  0  0  0
    4.5953   -0.8128   -4.8182 H   0  0  0  0  0  0  0  0  0  0  0  0
    2.4540   -0.3103   -3.4040 N   0  0  0  0  0  0  0  0  0  0  0  0
    1.1494   -0.2128   -2.8039 C   0  0  2  0  0  0  0  0  0  0  0  0
    1.3350    0.0367   -1.3130 C   0  0  0  0  0  0  0  0  0  0  0  0
    2.3625   -0.2586   -0.7063 O   0  0  0  0  0  0  0  0  0  0  0  0
    0.3331   -1.4728   -3.0467 C   0  0  0  0  0  0  0  0  0  0  0  0
    2.6924    0.3404   -4.1502 H   0  0  0  0  0  0  0  0  0  0  0  0
    0.6550    0.6514   -3.2607 H   0  0  0  0  0  0  0  0  0  0  0  0
    0.8129   -2.3494   -2.5963 H   0  0  0  0  0  0  0  0  0  0  0  0
   -0.6690   -1.3857   -2.6142 H   0  0  0  0  0  0  0  0  0  0  0  0
    0.2259   -1.6670   -4.1194 H   0  0  0  0  0  0  0  0  0  0  0  0
    0.2019    0.5893   -0.7269 N   0  0  0  0  0  0  0  0  0  0  0  0
    0.1242    0.9059    0.6756 C   0  0  2  0  0  0  0  0  0  0  0  0
   -1.2633    1.4874    0.9284 C   0  0  0  0  0  0  0  0  0  0  0  0
   -2.0175    1.8373    0.0229 O   0  0  0  0  0  0  0  0  0  0  0  0
    1.2049    1.9060    1.1058 C   0  0  0  0  0  0  0  0  0  0  0  0
    2.6502    1.3752    1.0160 C   0  0  0  0  0  0  0  0  0  0  0  0
    3.6354    2.5057    1.3258 C   0  0  0  0  0  0  0  0  0  0  0  0
    2.9672    0.7772   -0.3554 C   0  0  0  0  0  0  0  0  0  0  0  0
   -0.5975    0.8179   -1.3140 H   0  0  0  0  0  0  0  0  0  0  0  0
    0.2148   -0.0384    1.2218 H   0  0  0  0  0  0  0  0  0  0  0  0
    1.0082    2.2166    2.1416 H   0  0  0  0  0  0  0  0  0  0  0  0
    1.1192    2.8176    0.4995 H   0  0  0  0  0  0  0  0  0  0  0  0
    2.7946    0.5948    1.7730 H   0  0  0  0  0  0  0  0  0  0  0  0
    3.5367    3.3184    0.5982 H   0  0  0  0  0  0  0  0  0  0  0  0
    4.6684    2.1445    1.2822 H   0  0  0  0  0  0  0  0  0  0  0  0
    3.4629    2.9218    2.3243 H   0  0  0  0  0  0  0  0  0  0  0  0
    2.8381    1.5185   -1.1512 H   0  0  0  0  0  0  0  0  0  0  0  0
    4.0016    0.4187   -0.3927 H   0  0  0  0  0  0  0  0  0  0  0  0
    2.3218   -0.0780   -0.5765 H   0  0  0  0  0  0  0  0  0  0  0  0
   -1.5755    1.5203    2.2804 N   0  0  0  0  0  0  0  0  0  0  0  0
   -2.8395    2.0007    2.7905 C   0  0  2  0  0  0  0  0  0  0  0  0
   -3.9385    1.5208    1.8517 C   0  0  0  0  0  0  0  0  0  0  0  0
   -3.7314    1.2076    0.6812 O   0  0  0  0  0  0  0  0  0  0  0  0
   -2.8486    3.5169    2.9078 C   0  0  0  0  0  0  0  0  0  0  0  0
   -0.8954    1.1841    2.9558 H   0  0  0  0  0  0  0  0  0  0  0  0
   -2.9763    1.5447    3.7771 H   0  0  0  0  0  0  0  0  0  0  0  0
   -2.7128    3.9915    1.9292 H   0  0  0  0  0  0  0  0  0  0  0  0
   -3.7964    3.8772    3.3212 H   0  0  0  0  0  0  0  0  0  0  0  0
   -2.0390    3.8622    3.5598 H   0  0  0  0  0  0  0  0  0  0  0  0
   -5.1849    1.5244    2.4622 N   0  0  0  0  0  0  0  0  0  0  0  0
   -6.3905    1.1231    1.7756 C   0  0  0  0  0  0  0  0  0  0  0  0
   -5.2605    1.7812    3.4421 H   0  0  0  0  0  0  0  0  0  0  0  0
   -6.8703    2.0067    1.3294 H   0  0  0  0  0  0  0  0  0  0  0  0
   -6.1386    0.4033    0.9829 H   0  0  0  0  0  0  0  0  0  0  0  0
   -7.0809    0.6534    2.4916 H   0  0  0  0  0  0  0  0  0  0  0  0
  1  3  1  0  0  0  0
  1  7  1  0  0  0  0
  1  2  2  0  0  0  0
 37 38  1  0  0  0  0
 38 46  1  0  0  0  0
 38 39  2  0  0  0  0
  8  9  1  0  0  0  0
  9 17  1  0  0  0  0
  9 10  2  0  0  0  0
 18 19  1  0  0  0  0
 19 36  1  0  0  0  0
 19 20  2  0  0  0  0
 37 40  1  0  0  0  0
  8 11  1  0  0  0  0
 22 23  1  0  0  0  0
 22 24  1  0  0  0  0
 46 47  1  0  0  0  0
 18 21  1  0  0  0  0
 21 22  1  0  0  0  0
 36 37  1  0  0  0  0
  7  8  1  0  0  0  0
 17 18  1  0  0  0  0
  3  4  1  0  0  0  0
  3  5  1  0  0  0  0
  3  6  1  0  0  0  0
 40 43  1  0  0  0  0
 40 44  1  0  0  0  0
 40 45  1  0  0  0  0
 11 14  1  0  0  0  0
 11 15  1  0  0  0  0
 11 16  1  0  0  0  0
 23 30  1  0  0  0  0
 23 31  1  0  0  0  0
 23 32  1  0  0  0  0
 24 33  1  0  0  0  0
 24 34  1  0  0  0  0
 24 35  1  0  0  0  0
 47 49  1  0  0  0  0
 47 50  1  0  0  0  0
 47 51  1  0  0  0  0
 21 27  1  0  0  0  0
 21 28  1  0  0  0  0
 37 42  1  0  0  0  0
  8 13  1  0  0  0  0
 18 26  1  0  0  0  0
 22 29  1  0  0  0  0
 46 48  1  0  0  0  0
  7 12  1  0  0  0  0
 36 41  1  0  0  0  0
 17 25  1  0  0  0  0
M  END
$$$$

  -OEChem-05262214473D

 51 50  0     1  0  0  0  0  0999 V2000
    3.4018   -1.2440   -3.0186 C   0  0  0  0  0  0  0  0  0  0  0  0
    3.2697   -2.0909   -2.1427 O   0  0  0  0  0  0  0  0  0  0  0  0
    4.6845   -1.1645   -3.7779 C   0  0  0  0  0  0  0  0  0  0  0  0
    5.4123   -0.4862   -3.3041 H   0  0  0  0  0  0  0  0  0  0  0  0
    5.1949   -2.1387   -3.8443 H   0  0  0  0  0  0  0  0  0  0  0  0
    4.5953   -0.8128   -4.8182 H   0  0  0  0  0  0  0  0  0  0  0  0
    2.4540   -0.3103   -3.4040 N   0  0  0  0  0  0  0  0  0  0  0  0
    1.1494   -0.2128   -2.8039 C   0  0  2  0  0  0  0  0  0  0  0  0
    1.3350    0.0367   -1.3130 C   0  0  0  0  0  0  0  0  0  0  0  0
    2.3625   -0.2586   -0.7063 O   0  0  0  0  0  0  0  0  0  0  0  0
    0.3331   -1.4728   -3.0467 C   0  0  0  0  0  0  0  0  0  0  0  0
    2.6924    0.3404   -4.1502 H   0  0  0  0  0  0  0  0  0  0  0  0
    0.6550    0.6514   -3.2607 H   0  0  0  0  0  0  0  0  0  0  0  0
    0.8129   -2.3494   -2.5963 H   0  0  0  0  0  0  0  0  0  0  0  0
   -0.6690   -1.3857   -2.6142 H   0  0  0  0  0  0  0  0  0  0  0  0
    0.2259   -1.6670   -4.1194 H   0  0  0  0  0  0  0  0  0  0  0  0
    0.2019    0.5893   -0.7269 N   0  0  0  0  0  0  0  0  0  0  0  0
    0.1242    0.9059    0.6756 C   0  0  2  0  0  0  0  0  0  0  0  0
   -1.3491    1.1247    1.0055 C   0  0  0  0  0  0  0  0  0  0  0  0
   -2.2476    0.9890    0.1776 O   0  0  0  0  0  0  0  0  0  0  0  0
    0.9393    2.1547    1.0349 C   0  0  0  0  0  0  0  0  0  0  0  0
    2.4646    2.0030    0.8639 C   0  0  0  0  0  0  0  0  0  0  0  0
    3.1480    3.3514    1.1078 C   0  0  0  0  0  0  0  0  0  0  0  0
    2.8463    1.4750   -0.5196 C   0  0  0  0  0  0  0  0  0  0  0  0
   -0.5975    0.8179   -1.3140 H   0  0  0  0  0  0  0  0  0  0  0  0
    0.4802    0.0266    1.2219 H   0  0  0  0  0  0  0  0  0  0  0  0
    0.7281    2.4278    2.0784 H   0  0  0  0  0  0  0  0  0  0  0  0
    0.5930    3.0023    0.4286 H   0  0  0  0  0  0  0  0  0  0  0  0
    2.8429    1.3003    1.6164 H   0  0  0  0  0  0  0  0  0  0  0  0
    2.8073    4.0974    0.3819 H   0  0  0  0  0  0  0  0  0  0  0  0
    4.2346    3.2610    1.0061 H   0  0  0  0  0  0  0  0  0  0  0  0
    2.9314    3.7318    2.1119 H   0  0  0  0  0  0  0  0  0  0  0  0
    2.4905    2.1429   -1.3115 H   0  0  0  0  0  0  0  0  0  0  0  0
    3.9340    1.3877   -0.6152 H   0  0  0  0  0  0  0  0  0  0  0  0
    2.4265    0.4804   -0.6968 H   0  0  0  0  0  0  0  0  0  0  0  0
   -1.5418    1.4386    2.3438 N   0  0  0  0  0  0  0  0  0  0  0  0
   -2.8451    1.6691    2.9241 C   0  0  2  0  0  0  0  0  0  0  0  0
   -3.8150    0.6645    2.3162 C   0  0  0  0  0  0  0  0  0  0  0  0
   -3.6195    0.1131    1.2350 O   0  0  0  0  0  0  0  0  0  0  0  0
   -3.3152    3.0946    2.6800 C   0  0  0  0  0  0  0  0  0  0  0  0
   -0.7369    1.5032    2.9599 H   0  0  0  0  0  0  0  0  0  0  0  0
   -2.7503    1.4815    3.9992 H   0  0  0  0  0  0  0  0  0  0  0  0
   -3.4161    3.3012    1.6082 H   0  0  0  0  0  0  0  0  0  0  0  0
   -4.2900    3.2760    3.1447 H   0  0  0  0  0  0  0  0  0  0  0  0
   -2.6015    3.8163    3.0918 H   0  0  0  0  0  0  0  0  0  0  0  0
   -4.9450    0.4885    3.1023 N   0  0  0  0  0  0  0  0  0  0  0  0
   -6.0192   -0.4043    2.7348 C   0  0  0  0  0  0  0  0  0  0  0  0
   -5.0145    0.9723    3.9928 H   0  0  0  0  0  0  0  0  0  0  0  0
   -6.7855    0.1535    2.1765 H   0  0  0  0  0  0  0  0  0  0  0  0
   -5.6232   -1.2141    2.1044 H   0  0  0  0  0  0  0  0  0  0  0  0
   -6.4670   -0.8327    3.6437 H   0  0  0  0  0  0  0  0  0  0  0  0
  1  3  1  0  0  0  0
  1  7  1  0  0  0  0
  1  2  2  0  0  0  0
 37 38  1  0  0  0  0
 38 46  1  0  0  0  0
 38 39  2  0  0  0  0
  8  9  1  0  0  0  0
  9 17  1  0  0  0  0
  9 10  2  0  0  0  0
 18 19  1  0  0  0  0
 19 36  1  0  0  0  0
 19 20  2  0  0  0  0
 37 40  1  0  0  0  0
  8 11  1  0  0  0  0
 22 23  1  0  0  0  0
 22 24  1  0  0  0  0
 46 47  1  0  0  0  0
 18 21  1  0  0  0  0
 21 22  1  0  0  0  0
 36 37  1  0  0  0  0
  7  8  1  0  0  0  0
 17 18  1  0  0  0  0
  3  4  1  0  0  0  0
  3  5  1  0  0  0  0
  3  6  1  0  0  0  0
 40 43  1  0  0  0  0
 40 44  1  0  0  0  0
 40 45  1  0  0  0  0
 11 14  1  0  0  0  0
 11 15  1  0  0  0  0
 11 16  1  0  0  0  0
 23 30  1  0  0  0  0
 23 31  1  0  0  0  0
 23 32  1  0  0  0  0
 24 33  1  0  0  0  0
 24 34  1  0  0  0  0
 24 35  1  0  0  0  0
 47 49  1  0  0  0  0
 47 50  1  0  0  0  0
 47 51  1  0  0  0  0
 21 27  1  0  0  0  0
 21 28  1  0  0  0  0
 37 42  1  0  0  0  0
  8 13  1  0  0  0  0
 18 26  1  0  0  0  0
 22 29  1  0  0  0  0
 46 48  1  0  0  0  0
  7 12  1  0  0  0  0
 36 41  1  0  0  0  0
 17 25  1  0  0  0  0
M  END
$$$$

  -OEChem-05262214473D

 51 50  0     1  0  0  0  0  0999 V2000
    3.4018   -1.2440   -3.0186 C   0  0  0  0  0  0  0  0  0  0  0  0
    3.2697   -2.0909   -2.1427 O   0  0  0  0  0  0  0  0  0  0  0  0
    4.6845   -1.1645   -3.7779 C   0  0  0  0  0  0  0  0  0  0  0  0
    5.4123   -0.4862   -3.3041 H   0  0  0  0  0  0  0  0  0  0  0  0
    5.1949   -2.1387   -3.8443 H   0  0  0  0  0  0  0  0  0  0  0  0
    4.5953   -0.8128   -4.8182 H   0  0  0  0  0  0  0  0  0  0  0  0
    2.4540   -0.3103   -3.4040 N   0  0  0  0  0  0  0  0  0  0  0  0
    1.1494   -0.2128   -2.8039 C   0  0  2  0  0  0  0  0  0  0  0  0
    1.3350    0.0367   -1.3130 C   0  0  0  0  0  0  0  0  0  0  0  0
    2.3625   -0.2586   -0.7063 O   0  0  0  0  0  0  0  0  0  0  0  0
    0.3331   -1.4728   -3.0467 C   0  0  0  0  0  0  0  0  0  0  0  0
    2.6924    0.3404   -4.1502 H   0  0  0  0  0  0  0  0  0  0  0  0
    0.6550    0.6514   -3.2607 H   0  0  0  0  0  0  0  0  0  0  0  0
    0.8129   -2.3494   -2.5963 H   0  0  0  0  0  0  0  0  0  0  0  0
   -0.6690   -1.3857   -2.6142 H   0  0  0  0  0  0  0  0  0  0  0  0
    0.2259   -1.6670   -4.1194 H   0  0  0  0  0  0  0  0  0  0  0  0
    0.2019    0.5893   -0.7269 N   0  0  0  0  0  0  0  0  0  0  0  0
    0.1242    0.9059    0.6756 C   0  0  2  0  0  0  0  0  0  0  0  0
   -1.3491    1.1247    1.0055 C   0  0  0  0  0  0  0  0  0  0  0  0
   -2.2622    0.7397    0.2781 O   0  0  0  0  0  0  0  0  0  0  0  0
    0.9393    2.1547    1.0349 C   0  0  0  0  0  0  0  0  0  0  0  0
    2.4646    2.0030    0.8639 C   0  0  0  0  0  0  0  0  0  0  0  0
    3.1480    3.3514    1.1078 C   0  0  0  0  0  0  0  0  0  0  0  0
    2.8463    1.4750   -0.5196 C   0  0  0  0  0  0  0  0  0  0  0  0
   -0.5975    0.8179   -1.3140 H   0  0  0  0  0  0  0  0  0  0  0  0
    0.4802    0.0266    1.2219 H   0  0  0  0  0  0  0  0  0  0  0  0
    0.7281    2.4278    2.0784 H   0  0  0  0  0  0  0  0  0  0  0  0
    0.5930    3.0023    0.4286 H   0  0  0  0  0  0  0  0  0  0  0  0
    2.8429    1.3003    1.6164 H   0  0  0  0  0  0  0  0  0  0  0  0
    2.8073    4.0974    0.3819 H   0  0  0  0  0  0  0  0  0  0  0  0
    4.2346    3.2610    1.0061 H   0  0  0  0  0  0  0  0  0  0  0  0
    2.9314    3.7318    2.1119 H   0  0  0  0  0  0  0  0  0  0  0  0
    2.4905    2.1429   -1.3115 H   0  0  0  0  0  0  0  0  0  0  0  0
    3.9340    1.3877   -0.6152 H   0  0  0  0  0  0  0  0  0  0  0  0
    2.4265    0.4804   -0.6968 H   0  0  0  0  0  0  0  0  0  0  0  0
   -1.5202    1.7541    2.2307 N   0  0  0  0  0  0  0  0  0  0  0  0
   -2.8172    2.0558    2.7925 C   0  0  2  0  0  0  0  0  0  0  0  0
   -3.7420    0.8824    2.4972 C   0  0  0  0  0  0  0  0  0  0  0  0
   -3.5459    0.0880    1.5798 O   0  0  0  0  0  0  0  0  0  0  0  0
   -3.3801    3.3484    2.2223 C   0  0  0  0  0  0  0  0  0  0  0  0
   -0.7026    2.0125    2.7751 H   0  0  0  0  0  0  0  0  0  0  0  0
   -2.6789    2.1492    3.8751 H   0  0  0  0  0  0  0  0  0  0  0  0
   -3.5254    3.2739    1.1384 H   0  0  0  0  0  0  0  0  0  0  0  0
   -4.3496    3.5904    2.6699 H   0  0  0  0  0  0  0  0  0  0  0  0
   -2.6994    4.1859    2.4095 H   0  0  0  0  0  0  0  0  0  0  0  0
   -4.8353    0.8517    3.3517 N   0  0  0  0  0  0  0  0  0  0  0  0
   -5.8638   -0.1586    3.2658 C   0  0  0  0  0  0  0  0  0  0  0  0
   -4.9072    1.5393    4.0959 H   0  0  0  0  0  0  0  0  0  0  0  0
   -6.6789    0.2011    2.6208 H   0  0  0  0  0  0  0  0  0  0  0  0
   -5.4385   -1.0794    2.8400 H   0  0  0  0  0  0  0  0  0  0  0  0
   -6.2572   -0.3675    4.2716 H   0  0  0  0  0  0  0  0  0  0  0  0
  1  3  1  0  0  0  0
  1  7  1  0  0  0  0
  1  2  2  0  0  0  0
 37 38  1  0  0  0  0
 38 46  1  0  0  0  0
 38 39  2  0  0  0  0
  8  9  1  0  0  0  0
  9 17  1  0  0  0  0
  9 10  2  0  0  0  0
 18 19  1  0  0  0  0
 19 36  1  0  0  0  0
 19 20  2  0  0  0  0
 37 40  1  0  0  0  0
  8 11  1  0  0  0  0
 22 23  1  0  0  0  0
 22 24  1  0  0  0  0
 46 47  1  0  0  0  0
 18 21  1  0  0  0  0
 21 22  1  0  0  0  0
 36 37  1  0  0  0  0
  7  8  1  0  0  0  0
 17 18  1  0  0  0  0
  3  4  1  0  0  0  0
  3  5  1  0  0  0  0
  3  6  1  0  0  0  0
 40 43  1  0  0  0  0
 40 44  1  0  0  0  0
 40 45  1  0  0  0  0
 11 14  1  0  0  0  0
 11 15  1  0  0  0  0
 11 16  1  0  0  0  0
 23 30  1  0  0  0  0
 23 31  1  0  0  0  0
 23 32  1  0  0  0  0
 24 33  1  0  0  0  0
 24 34  1  0  0  0  0
 24 35  1  0  0  0  0
 47 49  1  0  0  0  0
 47 50  1  0  0  0  0
 47 51  1  0  0  0  0
 21 27  1  0  0  0  0
 21 28  1  0  0  0  0
 37 42  1  0  0  0  0
  8 13  1  0  0  0  0
 18 26  1  0  0  0  0
 22 29  1  0  0  0  0
 46 48  1  0  0  0  0
  7 12  1  0  0  0  0
 36 41  1  0  0  0  0
 17 25  1  0  0  0  0
M  END
$$$$

  -OEChem-05262214473D

 51 50  0     1  0  0  0  0  0999 V2000
    3.4018   -1.2440   -3.0186 C   0  0  0  0  0  0  0  0  0  0  0  0
    3.2697   -2.0909   -2.1427 O   0  0  0  0  0  0  0  0  0  0  0  0
    4.6845   -1.1645   -3.7779 C   0  0  0  0  0  0  0  0  0  0  0  0
    5.4123   -0.4862   -3.3041 H   0  0  0  0  0  0  0  0  0  0  0  0
    5.1949   -2.1387   -3.8443 H   0  0  0  0  0  0  0  0  0  0  0  0
    4.5953   -0.8128   -4.8182 H   0  0  0  0  0  0  0  0  0  0  0  0
    2.4540   -0.3103   -3.4040 N   0  0  0  0  0  0  0  0  0  0  0  0
    1.1494   -0.2128   -2.8039 C   0  0  2  0  0  0  0  0  0  0  0  0
    1.3350    0.0367   -1.3130 C   0  0  0  0  0  0  0  0  0  0  0  0
    2.3625   -0.2586   -0.7063 O   0  0  0  0  0  0  0  0  0  0  0  0
    0.3331   -1.4728   -3.0467 C   0  0  0  0  0  0  0  0  0  0  0  0
    2.6924    0.3404   -4.1502 H   0  0  0  0  0  0  0  0  0  0  0  0
    0.6550    0.6514   -3.2607 H   0  0  0  0  0  0  0  0  0  0  0  0
    0.8129   -2.3494   -2.5963 H   0  0  0  0  0  0  0  0  0  0  0  0
   -0.6690   -1.3857   -2.6142 H   0  0  0  0  0  0  0  0  0  0  0  0
    0.2259   -1.6670   -4.1194 H   0  0  0  0  0  0  0  0  0  0  0  0
    0.2019    0.5893   -0.7269 N   0  0  0  0  0  0  0  0  0  0  0  0
    0.1242    0.9059    0.6756 C   0  0  2  0  0  0  0  0  0  0  0  0
   -1.3491    1.1247    1.0055 C   0  0  0  0  0  0  0  0  0  0  0  0
   -2.2585    0.5231    0.4379 O   0  0  0  0  0  0  0  0  0  0  0  0
    0.9393    2.1547    1.0349 C   0  0  0  0  0  0  0  0  0  0  0  0
    2.4646    2.0030    0.8639 C   0  0  0  0  0  0  0  0  0  0  0  0
    3.1480    3.3514    1.1078 C   0  0  0  0  0  0  0  0  0  0  0  0
    2.8463    1.4750   -0.5196 C   0  0  0  0  0  0  0  0  0  0  0  0
   -0.5975    0.8179   -1.3140 H   0  0  0  0  0  0  0  0  0  0  0  0
    0.4802    0.0266    1.2219 H   0  0  0  0  0  0  0  0  0  0  0  0
    0.7281    2.4278    2.0784 H   0  0  0  0  0  0  0  0  0  0  0  0
    0.5930    3.0023    0.4286 H   0  0  0  0  0  0  0  0  0  0  0  0
    2.8429    1.3003    1.6164 H   0  0  0  0  0  0  0  0  0  0  0  0
    2.8073    4.0974    0.3819 H   0  0  0  0  0  0  0  0  0  0  0  0
    4.2346    3.2610    1.0061 H   0  0  0  0  0  0  0  0  0  0  0  0
    2.9314    3.7318    2.1119 H   0  0  0  0  0  0  0  0  0  0  0  0
    2.4905    2.1429   -1.3115 H   0  0  0  0  0  0  0  0  0  0  0  0
    3.9340    1.3877   -0.6152 H   0  0  0  0  0  0  0  0  0  0  0  0
    2.4265    0.4804   -0.6968 H   0  0  0  0  0  0  0  0  0  0  0  0
   -1.5213    2.0319    2.0418 N   0  0  0  0  0  0  0  0  0  0  0  0
   -2.8167    2.3980    2.5676 C   0  0  2  0  0  0  0  0  0  0  0  0
   -3.6771    1.1422    2.6150 C   0  0  0  0  0  0  0  0  0  0  0  0
   -3.4607    0.1542    1.9164 O   0  0  0  0  0  0  0  0  0  0  0  0
   -3.4739    3.4755    1.7191 C   0  0  0  0  0  0  0  0  0  0  0  0
   -0.7049    2.4602    2.4681 H   0  0  0  0  0  0  0  0  0  0  0  0
   -2.6519    2.7672    3.5858 H   0  0  0  0  0  0  0  0  0  0  0  0
   -3.6469    3.1239    0.6954 H   0  0  0  0  0  0  0  0  0  0  0  0
   -4.4425    3.7721    2.1349 H   0  0  0  0  0  0  0  0  0  0  0  0
   -2.8400    4.3670    1.6617 H   0  0  0  0  0  0  0  0  0  0  0  0
   -4.7403    1.2710    3.4977 N   0  0  0  0  0  0  0  0  0  0  0  0
   -5.7077    0.2201    3.7116 C   0  0  0  0  0  0  0  0  0  0  0  0
   -4.8315    2.1187    4.0497 H   0  0  0  0  0  0  0  0  0  0  0  0
   -6.5622    0.3642    3.0340 H   0  0  0  0  0  0  0  0  0  0  0  0
   -5.2403   -0.7550    3.5099 H   0  0  0  0  0  0  0  0  0  0  0  0
   -6.0574    0.2505    4.7541 H   0  0  0  0  0  0  0  0  0  0  0  0
  1  3  1  0  0  0  0
  1  7  1  0  0  0  0
  1  2  2  0  0  0  0
 37 38  1  0  0  0  0
 38 46  1  0  0  0  0
 38 39  2  0  0  0  0
  8  9  1  0  0  0  0
  9 17  1  0  0  0  0
  9 10  2  0  0  0  0
 18 19  1  0  0  0  0
 19 36  1  0  0  0  0
 19 20  2  0  0  0  0
 37 40  1  0  0  0  0
  8 11  1  0  0  0  0
 22 23  1  0  0  0  0
 22 24  1  0  0  0  0
 46 47  1  0  0  0  0
 18 21  1  0  0  0  0
 21 22  1  0  0  0  0
 36 37  1  0  0  0  0
  7  8  1  0  0  0  0
 17 18  1  0  0  0  0
  3  4  1  0  0  0  0
  3  5  1  0  0  0  0
  3  6  1  0  0  0  0
 40 43  1  0  0  0  0
 40 44  1  0  0  0  0
 40 45  1  0  0  0  0
 11 14  1  0  0  0  0
 11 15  1  0  0  0  0
 11 16  1  0  0  0  0
 23 30  1  0  0  0  0
 23 31  1  0  0  0  0
 23 32  1  0  0  0  0
 24 33  1  0  0  0  0
 24 34  1  0  0  0  0
 24 35  1  0  0  0  0
 47 49  1  0  0  0  0
 47 50  1  0  0  0  0
 47 51  1  0  0  0  0
 21 27  1  0  0  0  0
 21 28  1  0  0  0  0
 37 42  1  0  0  0  0
  8 13  1  0  0  0  0
 18 26  1  0  0  0  0
 22 29  1  0  0  0  0
 46 48  1  0  0  0  0
  7 12  1  0  0  0  0
 36 41  1  0  0  0  0
 17 25  1  0  0  0  0
M  END
$$$$

  -OEChem-05262214473D

 51 50  0     1  0  0  0  0  0999 V2000
    3.4018   -1.2440   -3.0186 C   0  0  0  0  0  0  0  0  0  0  0  0
    3.2697   -2.0909   -2.1427 O   0  0  0  0  0  0  0  0  0  0  0  0
    4.6845   -1.1645   -3.7779 C   0  0  0  0  0  0  0  0  0  0  0  0
    5.4123   -0.4862   -3.3041 H   0  0  0  0  0  0  0  0  0  0  0  0
    5.1949   -2.1387   -3.8443 H   0  0  0  0  0  0  0  0  0  0  0  0
    4.5953   -0.8128   -4.8182 H   0  0  0  0  0  0  0  0  0  0  0  0
    2.4540   -0.3103   -3.4040 N   0  0  0  0  0  0  0  0  0  0  0  0
    1.1494   -0.2128   -2.8039 C   0  0  2  0  0  0  0  0  0  0  0  0
    1.3350    0.0367   -1.3130 C   0  0  0  0  0  0  0  0  0  0  0  0
    2.3625   -0.2586   -0.7063 O   0  0  0  0  0  0  0  0  0  0  0  0
    0.3331   -1.4728   -3.0467 C   0  0  0  0  0  0  0  0  0  0  0  0
    2.6924    0.3404   -4.1502 H   0  0  0  0  0  0  0  0  0  0  0  0
    0.6550    0.6514   -3.2607 H   0  0  0  0  0  0  0  0  0  0  0  0
    0.8129   -2.3494   -2.5963 H   0  0  0  0  0  0  0  0  0  0  0  0
   -0.6690   -1.3857   -2.6142 H   0  0  0  0  0  0  0  0  0  0  0  0
    0.2259   -1.6670   -4.1194 H   0  0  0  0  0  0  0  0  0  0  0  0
    0.2019    0.5893   -0.7269 N   0  0  0  0  0  0  0  0  0  0  0  0
    0.1242    0.9059    0.6756 C   0  0  2  0  0  0  0  0  0  0  0  0
   -1.3491    1.1247    1.0055 C   0  0  0  0  0  0  0  0  0  0  0  0
   -2.2369    0.3541    0.6463 O   0  0  0  0  0  0  0  0  0  0  0  0
    0.9393    2.1547    1.0349 C   0  0  0  0  0  0  0  0  0  0  0  0
    2.4646    2.0030    0.8639 C   0  0  0  0  0  0  0  0  0  0  0  0
    3.1480    3.3514    1.1078 C   0  0  0  0  0  0  0  0  0  0  0  0
    2.8463    1.4750   -0.5196 C   0  0  0  0  0  0  0  0  0  0  0  0
   -0.5975    0.8179   -1.3140 H   0  0  0  0  0  0  0  0  0  0  0  0
    0.4802    0.0266    1.2219 H   0  0  0  0  0  0  0  0  0  0  0  0
    0.7281    2.4278    2.0784 H   0  0  0  0  0  0  0  0  0  0  0  0
    0.5930    3.0023    0.4286 H   0  0  0  0  0  0  0  0  0  0  0  0
    2.8429    1.3003    1.6164 H   0  0  0  0  0  0  0  0  0  0  0  0
    2.8073    4.0974    0.3819 H   0  0  0  0  0  0  0  0  0  0  0  0
    4.2346    3.2610    1.0061 H   0  0  0  0  0  0  0  0  0  0  0  0
    2.9314    3.7318    2.1119 H   0  0  0  0  0  0  0  0  0  0  0  0
    2.4905    2.1429   -1.3115 H   0  0  0  0  0  0  0  0  0  0  0  0
    3.9340    1.3877   -0.6152 H   0  0  0  0  0  0  0  0  0  0  0  0
    2.4265    0.4804   -0.6968 H   0  0  0  0  0  0  0  0  0  0  0  0
   -1.5448    2.2529    1.7900 N   0  0  0  0  0  0  0  0  0  0  0  0
   -2.8437    2.6724    2.2649 C   0  0  2  0  0  0  0  0  0  0  0  0
   -3.6245    1.4263    2.6613 C   0  0  0  0  0  0  0  0  0  0  0  0
   -3.3697    0.3069    2.2218 O   0  0  0  0  0  0  0  0  0  0  0  0
   -3.5903    3.4672    1.2049 C   0  0  0  0  0  0  0  0  0  0  0  0
   -0.7435    2.8158    2.0597 H   0  0  0  0  0  0  0  0  0  0  0  0
   -2.6712    3.2932    3.1508 H   0  0  0  0  0  0  0  0  0  0  0  0
   -3.7723    2.8616    0.3096 H   0  0  0  0  0  0  0  0  0  0  0  0
   -4.5622    3.8086    1.5761 H   0  0  0  0  0  0  0  0  0  0  0  0
   -3.0137    4.3470    0.8994 H   0  0  0  0  0  0  0  0  0  0  0  0
   -4.6666    1.7178    3.5304 N   0  0  0  0  0  0  0  0  0  0  0  0
   -5.5616    0.7061    4.0417 C   0  0  0  0  0  0  0  0  0  0  0  0
   -4.7925    2.6712    3.8575 H   0  0  0  0  0  0  0  0  0  0  0  0
   -6.4432    0.6315    3.3880 H   0  0  0  0  0  0  0  0  0  0  0  0
   -5.0421   -0.2631    4.0685 H   0  0  0  0  0  0  0  0  0  0  0  0
   -5.8810    0.9792    5.0582 H   0  0  0  0  0  0  0  0  0  0  0  0
  1  3  1  0  0  0  0
  1  7  1  0  0  0  0
  1  2  2  0  0  0  0
 37 38  1  0  0  0  0
 38 46  1  0  0  0  0
 38 39  2  0  0  0  0
  8  9  1  0  0  0  0
  9 17  1  0  0  0  0
  9 10  2  0  0  0  0
 18 19  1  0  0  0  0
 19 36  1  0  0  0  0
 19 20  2  0  0  0  0
 37 40  1  0  0  0  0
  8 11  1  0  0  0  0
 22 23  1  0  0  0  0
 22 24  1  0  0  0  0
 46 47  1  0  0  0  0
 18 21  1  0  0  0  0
 21 22  1  0  0  0  0
 36 37  1  0  0  0  0
  7  8  1  0  0  0  0
 17 18  1  0  0  0  0
  3  4  1  0  0  0  0
  3  5  1  0  0  0  0
  3  6  1  0  0  0  0
 40 43  1  0  0  0  0
 40 44  1  0  0  0  0
 40 45  1  0  0  0  0
 11 14  1  0  0  0  0
 11 15  1  0  0  0  0
 11 16  1  0  0  0  0
 23 30  1  0  0  0  0
 23 31  1  0  0  0  0
 23 32  1  0  0  0  0
 24 33  1  0  0  0  0
 24 34  1  0  0  0  0
 24 35  1  0  0  0  0
 47 49  1  0  0  0  0
 47 50  1  0  0  0  0
 47 51  1  0  0  0  0
 21 27  1  0  0  0  0
 21 28  1  0  0  0  0
 37 42  1  0  0  0  0
  8 13  1  0  0  0  0
 18 26  1  0  0  0  0
 22 29  1  0  0  0  0
 46 48  1  0  0  0  0
  7 12  1  0  0  0  0
 36 41  1  0  0  0  0
 17 25  1  0  0  0  0
M  END
$$$$

  -OEChem-05262214473D

 51 50  0     1  0  0  0  0  0999 V2000
    3.4018   -1.2440   -3.0186 C   0  0  0  0  0  0  0  0  0  0  0  0
    3.2697   -2.0909   -2.1427 O   0  0  0  0  0  0  0  0  0  0  0  0
    4.6845   -1.1645   -3.7779 C   0  0  0  0  0  0  0  0  0  0  0  0
    5.4123   -0.4862   -3.3041 H   0  0  0  0  0  0  0  0  0  0  0  0
    5.1949   -2.1387   -3.8443 H   0  0  0  0  0  0  0  0  0  0  0  0
    4.5953   -0.8128   -4.8182 H   0  0  0  0  0  0  0  0  0  0  0  0
    2.4540   -0.3103   -3.4040 N   0  0  0  0  0  0  0  0  0  0  0  0
    1.1494   -0.2128   -2.8039 C   0  0  2  0  0  0  0  0  0  0  0  0
    1.3350    0.0367   -1.3130 C   0  0  0  0  0  0  0  0  0  0  0  0
    2.3625   -0.2586   -0.7063 O   0  0  0  0  0  0  0  0  0  0  0  0
    0.3331   -1.4728   -3.0467 C   0  0  0  0  0  0  0  0  0  0  0  0
    2.6924    0.3404   -4.1502 H   0  0  0  0  0  0  0  0  0  0  0  0
    0.6550    0.6514   -3.2607 H   0  0  0  0  0  0  0  0  0  0  0  0
    0.8129   -2.3494   -2.5963 H   0  0  0  0  0  0  0  0  0  0  0  0
   -0.6690   -1.3857   -2.6142 H   0  0  0  0  0  0  0  0  0  0  0  0
    0.2259   -1.6670   -4.1194 H   0  0  0  0  0  0  0  0  0  0  0  0
    0.2019    0.5893   -0.7269 N   0  0  0  0  0  0  0  0  0  0  0  0
    0.1242    0.9059    0.6756 C   0  0  2  0  0  0  0  0  0  0  0  0
   -1.3491    1.1247    1.0055 C   0  0  0  0  0  0  0  0  0  0  0  0
   -2.1989    0.2442    0.8891 O   0  0  0  0  0  0  0  0  0  0  0  0
    0.9393    2.1547    1.0349 C   0  0  0  0  0  0  0  0  0  0  0  0
    2.4646    2.0030    0.8639 C   0  0  0  0  0  0  0  0  0  0  0  0
    3.1480    3.3514    1.1078 C   0  0  0  0  0  0  0  0  0  0  0  0
    2.8463    1.4750   -0.5196 C   0  0  0  0  0  0  0  0  0  0  0  0
   -0.5975    0.8179   -1.3140 H   0  0  0  0  0  0  0  0  0  0  0  0
    0.4802    0.0266    1.2219 H   0  0  0  0  0  0  0  0  0  0  0  0
    0.7281    2.4278    2.0784 H   0  0  0  0  0  0  0  0  0  0  0  0
    0.5930    3.0023    0.4286 H   0  0  0  0  0  0  0  0  0  0  0  0
    2.8429    1.3003    1.6164 H   0  0  0  0  0  0  0  0  0  0  0  0
    2.8073    4.0974    0.3819 H   0  0  0  0  0  0  0  0  0  0  0  0
    4.2346    3.2610    1.0061 H   0  0  0  0  0  0  0  0  0  0  0  0
    2.9314    3.7318    2.1119 H   0  0  0  0  0  0  0  0  0  0  0  0
    2.4905    2.1429   -1.3115 H   0  0  0  0  0  0  0  0  0  0  0  0
    3.9340    1.3877   -0.6152 H   0  0  0  0  0  0  0  0  0  0  0  0
    2.4265    0.4804   -0.6968 H   0  0  0  0  0  0  0  0  0  0  0  0
   -1.5893    2.4021    1.4924 N   0  0  0  0  0  0  0  0  0  0  0  0
   -2.8965    2.8602    1.9049 C   0  0  2  0  0  0  0  0  0  0  0  0
   -3.5879    1.7152    2.6332 C   0  0  0  0  0  0  0  0  0  0  0  0
   -3.2789    0.5359    2.4752 O   0  0  0  0  0  0  0  0  0  0  0  0
   -3.7213    3.3242    0.7145 C   0  0  0  0  0  0  0  0  0  0  0  0
   -0.8160    3.0550    1.5778 H   0  0  0  0  0  0  0  0  0  0  0  0
   -2.7355    3.6915    2.5999 H   0  0  0  0  0  0  0  0  0  0  0  0
   -3.8930    2.5047    0.0071 H   0  0  0  0  0  0  0  0  0  0  0  0
   -4.7006    3.6975    1.0318 H   0  0  0  0  0  0  0  0  0  0  0  0
   -3.2087    4.1275    0.1745 H   0  0  0  0  0  0  0  0  0  0  0  0
   -4.6192    2.1617    3.4475 N   0  0  0  0  0  0  0  0  0  0  0  0
   -5.4354    1.2662    4.2336 C   0  0  0  0  0  0  0  0  0  0  0  0
   -4.7929    3.1589    3.5323 H   0  0  0  0  0  0  0  0  0  0  0  0
   -6.3300    0.9848    3.6588 H   0  0  0  0  0  0  0  0  0  0  0  0
   -4.8574    0.3627    4.4779 H   0  0  0  0  0  0  0  0  0  0  0  0
   -5.7402    1.7690    5.1633 H   0  0  0  0  0  0  0  0  0  0  0  0
  1  3  1  0  0  0  0
  1  7  1  0  0  0  0
  1  2  2  0  0  0  0
 37 38  1  0  0  0  0
 38 46  1  0  0  0  0
 38 39  2  0  0  0  0
  8  9  1  0  0  0  0
  9 17  1  0  0  0  0
  9 10  2  0  0  0  0
 18 19  1  0  0  0  0
 19 36  1  0  0  0  0
 19 20  2  0  0  0  0
 37 40  1  0  0  0  0
  8 11  1  0  0  0  0
 22 23  1  0  0  0  0
 22 24  1  0  0  0  0
 46 47  1  0  0  0  0
 18 21  1  0  0  0  0
 21 22  1  0  0  0  0
 36 37  1  0  0  0  0
  7  8  1  0  0  0  0
 17 18  1  0  0  0  0
  3  4  1  0  0  0  0
  3  5  1  0  0  0  0
  3  6  1  0  0  0  0
 40 43  1  0  0  0  0
 40 44  1  0  0  0  0
 40 45  1  0  0  0  0
 11 14  1  0  0  0  0
 11 15  1  0  0  0  0
 11 16  1  0  0  0  0
 23 30  1  0  0  0  0
 23 31  1  0  0  0  0
 23 32  1  0  0  0  0
 24 33  1  0  0  0  0
 24 34  1  0  0  0  0
 24 35  1  0  0  0  0
 47 49  1  0  0  0  0
 47 50  1  0  0  0  0
 47 51  1  0  0  0  0
 21 27  1  0  0  0  0
 21 28  1  0  0  0  0
 37 42  1  0  0  0  0
  8 13  1  0  0  0  0
 18 26  1  0  0  0  0
 22 29  1  0  0  0  0
 46 48  1  0  0  0  0
  7 12  1  0  0  0  0
 36 41  1  0  0  0  0
 17 25  1  0  0  0  0
M  END
$$$$

  -OEChem-05262214473D

 51 50  0     1  0  0  0  0  0999 V2000
    3.4018   -1.2440   -3.0186 C   0  0  0  0  0  0  0  0  0  0  0  0
    3.2697   -2.0909   -2.1427 O   0  0  0  0  0  0  0  0  0  0  0  0
    4.6845   -1.1645   -3.7779 C   0  0  0  0  0  0  0  0  0  0  0  0
    5.4123   -0.4862   -3.3041 H   0  0  0  0  0  0  0  0  0  0  0  0
    5.1949   -2.1387   -3.8443 H   0  0  0  0  0  0  0  0  0  0  0  0
    4.5953   -0.8128   -4.8182 H   0  0  0  0  0  0  0  0  0  0  0  0
    2.4540   -0.3103   -3.4040 N   0  0  0  0  0  0  0  0  0  0  0  0
    1.1494   -0.2128   -2.8039 C   0  0  2  0  0  0  0  0  0  0  0  0
    1.3350    0.0367   -1.3130 C   0  0  0  0  0  0  0  0  0  0  0  0
    2.3625   -0.2586   -0.7063 O   0  0  0  0  0  0  0  0  0  0  0  0
    0.3331   -1.4728   -3.0467 C   0  0  0  0  0  0  0  0  0  0  0  0
    2.6924    0.3404   -4.1502 H   0  0  0  0  0  0  0  0  0  0  0  0
    0.6550    0.6514   -3.2607 H   0  0  0  0  0  0  0  0  0  0  0  0
    0.8129   -2.3494   -2.5963 H   0  0  0  0  0  0  0  0  0  0  0  0
   -0.6690   -1.3857   -2.6142 H   0  0  0  0  0  0  0  0  0  0  0  0
    0.2259   -1.6670   -4.1194 H   0  0  0  0  0  0  0  0  0  0  0  0
    0.2019    0.5893   -0.7269 N   0  0  0  0  0  0  0  0  0  0  0  0
    0.1242    0.9059    0.6756 C   0  0  2  0  0  0  0  0  0  0  0  0
   -1.3491    1.1247    1.0055 C   0  0  0  0  0  0  0  0  0  0  0  0
   -2.1470    0.2007    1.1496 O   0  0  0  0  0  0  0  0  0  0  0  0
    0.9393    2.1547    1.0349 C   0  0  0  0  0  0  0  0  0  0  0  0
    2.4646    2.0030    0.8639 C   0  0  0  0  0  0  0  0  0  0  0  0
    3.1480    3.3514    1.1078 C   0  0  0  0  0  0  0  0  0  0  0  0
    2.8463    1.4750   -0.5196 C   0  0  0  0  0  0  0  0  0  0  0  0
   -0.5975    0.8179   -1.3140 H   0  0  0  0  0  0  0  0  0  0  0  0
    0.4802    0.0266    1.2219 H   0  0  0  0  0  0  0  0  0  0  0  0
    0.7281    2.4278    2.0784 H   0  0  0  0  0  0  0  0  0  0  0  0
    0.5930    3.0023    0.4286 H   0  0  0  0  0  0  0  0  0  0  0  0
    2.8429    1.3003    1.6164 H   0  0  0  0  0  0  0  0  0  0  0  0
    2.8073    4.0974    0.3819 H   0  0  0  0  0  0  0  0  0  0  0  0
    4.2346    3.2610    1.0061 H   0  0  0  0  0  0  0  0  0  0  0  0
    2.9314    3.7318    2.1119 H   0  0  0  0  0  0  0  0  0  0  0  0
    2.4905    2.1429   -1.3115 H   0  0  0  0  0  0  0  0  0  0  0  0
    3.9340    1.3877   -0.6152 H   0  0  0  0  0  0  0  0  0  0  0  0
    2.4265    0.4804   -0.6968 H   0  0  0  0  0  0  0  0  0  0  0  0
   -1.6517    2.4694    1.1693 N   0  0  0  0  0  0  0  0  0  0  0  0
   -2.9713    2.9487    1.5122 C   0  0  2  0  0  0  0  0  0  0  0  0
   -3.5698    1.9893    2.5324 C   0  0  0  0  0  0  0  0  0  0  0  0
   -3.1946    0.8256    2.6594 O   0  0  0  0  0  0  0  0  0  0  0  0
   -3.8581    3.0561    0.2815 C   0  0  0  0  0  0  0  0  0  0  0  0
   -0.9172    3.1615    1.0552 H   0  0  0  0  0  0  0  0  0  0  0  0
   -2.8402    3.9350    1.9706 H   0  0  0  0  0  0  0  0  0  0  0  0
   -4.0009    2.0776   -0.1914 H   0  0  0  0  0  0  0  0  0  0  0  0
   -4.8483    3.4465    0.5388 H   0  0  0  0  0  0  0  0  0  0  0  0
   -3.4116    3.7234   -0.4636 H   0  0  0  0  0  0  0  0  0  0  0  0
   -4.6014    2.5724    3.2548 N   0  0  0  0  0  0  0  0  0  0  0  0
   -5.3377    1.8623    4.2743 C   0  0  0  0  0  0  0  0  0  0  0  0
   -4.8326    3.5487    3.0963 H   0  0  0  0  0  0  0  0  0  0  0  0
   -6.2305    1.4001    3.8278 H   0  0  0  0  0  0  0  0  0  0  0  0
   -4.6989    1.0799    4.7100 H   0  0  0  0  0  0  0  0  0  0  0  0
   -5.6445    2.5660    5.0622 H   0  0  0  0  0  0  0  0  0  0  0  0
  1  3  1  0  0  0  0
  1  7  1  0  0  0  0
  1  2  2  0  0  0  0
 37 38  1  0  0  0  0
 38 46  1  0  0  0  0
 38 39  2  0  0  0  0
  8  9  1  0  0  0  0
  9 17  1  0  0  0  0
  9 10  2  0  0  0  0
 18 19  1  0  0  0  0
 19 36  1  0  0  0  0
 19 20  2  0  0  0  0
 37 40  1  0  0  0  0
  8 11  1  0  0  0  0
 22 23  1  0  0  0  0
 22 24  1  0  0  0  0
 46 47  1  0  0  0  0
 18 21  1  0  0  0  0
 21 22  1  0  0  0  0
 36 37  1  0  0  0  0
  7  8  1  0  0  0  0
 17 18  1  0  0  0  0
  3  4  1  0  0  0  0
  3  5  1  0  0  0  0
  3  6  1  0  0  0  0
 40 43  1  0  0  0  0
 40 44  1  0  0  0  0
 40 45  1  0  0  0  0
 11 14  1  0  0  0  0
 11 15  1  0  0  0  0
 11 16  1  0  0  0  0
 23 30  1  0  0  0  0
 23 31  1  0  0  0  0
 23 32  1  0  0  0  0
 24 33  1  0  0  0  0
 24 34  1  0  0  0  0
 24 35  1  0  0  0  0
 47 49  1  0  0  0  0
 47 50  1  0  0  0  0
 47 51  1  0  0  0  0
 21 27  1  0  0  0  0
 21 28  1  0  0  0  0
 37 42  1  0  0  0  0
  8 13  1  0  0  0  0
 18 26  1  0  0  0  0
 22 29  1  0  0  0  0
 46 48  1  0  0  0  0
  7 12  1  0  0  0  0
 36 41  1  0  0  0  0
 17 25  1  0  0  0  0
M  END
$$$$

  -OEChem-05262214473D

 51 50  0     1  0  0  0  0  0999 V2000
    3.4018   -1.2440   -3.0186 C   0  0  0  0  0  0  0  0  0  0  0  0
    3.2697   -2.0909   -2.1427 O   0  0  0  0  0  0  0  0  0  0  0  0
    4.6845   -1.1645   -3.7779 C   0  0  0  0  0  0  0  0  0  0  0  0
    5.4123   -0.4862   -3.3041 H   0  0  0  0  0  0  0  0  0  0  0  0
    5.1949   -2.1387   -3.8443 H   0  0  0  0  0  0  0  0  0  0  0  0
    4.5953   -0.8128   -4.8182 H   0  0  0  0  0  0  0  0  0  0  0  0
    2.4540   -0.3103   -3.4040 N   0  0  0  0  0  0  0  0  0  0  0  0
    1.1494   -0.2128   -2.8039 C   0  0  2  0  0  0  0  0  0  0  0  0
    1.3350    0.0367   -1.3130 C   0  0  0  0  0  0  0  0  0  0  0  0
    2.3625   -0.2586   -0.7063 O   0  0  0  0  0  0  0  0  0  0  0  0
    0.3331   -1.4728   -3.0467 C   0  0  0  0  0  0  0  0  0  0  0  0
    2.6924    0.3404   -4.1502 H   0  0  0  0  0  0  0  0  0  0  0  0
    0.6550    0.6514   -3.2607 H   0  0  0  0  0  0  0  0  0  0  0  0
    0.8129   -2.3494   -2.5963 H   0  0  0  0  0  0  0  0  0  0  0  0
   -0.6690   -1.3857   -2.6142 H   0  0  0  0  0  0  0  0  0  0  0  0
    0.2259   -1.6670   -4.1194 H   0  0  0  0  0  0  0  0  0  0  0  0
    0.2019    0.5893   -0.7269 N   0  0  0  0  0  0  0  0  0  0  0  0
    0.1242    0.9059    0.6756 C   0  0  2  0  0  0  0  0  0  0  0  0
   -1.3491    1.1247    1.0055 C   0  0  0  0  0  0  0  0  0  0  0  0
   -2.0848    0.2268    1.4102 O   0  0  0  0  0  0  0  0  0  0  0  0
    0.9393    2.1547    1.0349 C   0  0  0  0  0  0  0  0  0  0  0  0
    2.4646    2.0030    0.8639 C   0  0  0  0  0  0  0  0  0  0  0  0
    3.1480    3.3514    1.1078 C   0  0  0  0  0  0  0  0  0  0  0  0
    2.8463    1.4750   -0.5196 C   0  0  0  0  0  0  0  0  0  0  0  0
   -0.5975    0.8179   -1.3140 H   0  0  0  0  0  0  0  0  0  0  0  0
    0.4802    0.0266    1.2219 H   0  0  0  0  0  0  0  0  0  0  0  0
    0.7281    2.4278    2.0784 H   0  0  0  0  0  0  0  0  0  0  0  0
    0.5930    3.0023    0.4286 H   0  0  0  0  0  0  0  0  0  0  0  0
    2.8429    1.3003    1.6164 H   0  0  0  0  0  0  0  0  0  0  0  0
    2.8073    4.0974    0.3819 H   0  0  0  0  0  0  0  0  0  0  0  0
    4.2346    3.2610    1.0061 H   0  0  0  0  0  0  0  0  0  0  0  0
    2.9314    3.7318    2.1119 H   0  0  0  0  0  0  0  0  0  0  0  0
    2.4905    2.1429   -1.3115 H   0  0  0  0  0  0  0  0  0  0  0  0
    3.9340    1.3877   -0.6152 H   0  0  0  0  0  0  0  0  0  0  0  0
    2.4265    0.4804   -0.6968 H   0  0  0  0  0  0  0  0  0  0  0  0
   -1.7277    2.4501    0.8426 N   0  0  0  0  0  0  0  0  0  0  0  0
   -3.0631    2.9319    1.1135 C   0  0  2  0  0  0  0  0  0  0  0  0
   -3.5713    2.2298    2.3659 C   0  0  0  0  0  0  0  0  0  0  0  0
   -3.1226    1.1561    2.7618 O   0  0  0  0  0  0  0  0  0  0  0  0
   -3.9914    2.6813   -0.0647 C   0  0  0  0  0  0  0  0  0  0  0  0
   -1.0403    3.1281    0.5275 H   0  0  0  0  0  0  0  0  0  0  0  0
   -2.9785    4.0070    1.3058 H   0  0  0  0  0  0  0  0  0  0  0  0
   -4.0886    1.6095   -0.2724 H   0  0  0  0  0  0  0  0  0  0  0  0
   -4.9952    3.0725    0.1309 H   0  0  0  0  0  0  0  0  0  0  0  0
   -3.6087    3.1622   -0.9714 H   0  0  0  0  0  0  0  0  0  0  0  0
   -4.6143    2.9220    2.9653 N   0  0  0  0  0  0  0  0  0  0  0  0
   -5.2753    2.4537    4.1610 C   0  0  0  0  0  0  0  0  0  0  0  0
   -4.9091    3.8141    2.5792 H   0  0  0  0  0  0  0  0  0  0  0  0
   -6.1513    1.8491    3.8836 H   0  0  0  0  0  0  0  0  0  0  0  0
   -4.5774    1.8395    4.7490 H   0  0  0  0  0  0  0  0  0  0  0  0
   -5.6004    3.3160    4.7617 H   0  0  0  0  0  0  0  0  0  0  0  0
  1  3  1  0  0  0  0
  1  7  1  0  0  0  0
  1  2  2  0  0  0  0
 37 38  1  0  0  0  0
 38 46  1  0  0  0  0
 38 39  2  0  0  0  0
  8  9  1  0  0  0  0
  9 17  1  0  0  0  0
  9 10  2  0  0  0  0
 18 19  1  0  0  0  0
 19 36  1  0  0  0  0
 19 20  2  0  0  0  0
 37 40  1  0  0  0  0
  8 11  1  0  0  0  0
 22 23  1  0  0  0  0
 22 24  1  0  0  0  0
 46 47  1  0  0  0  0
 18 21  1  0  0  0  0
 21 22  1  0  0  0  0
 36 37  1  0  0  0  0
  7  8  1  0  0  0  0
 17 18  1  0  0  0  0
  3  4  1  0  0  0  0
  3  5  1  0  0  0  0
  3  6  1  0  0  0  0
 40 43  1  0  0  0  0
 40 44  1  0  0  0  0
 40 45  1  0  0  0  0
 11 14  1  0  0  0  0
 11 15  1  0  0  0  0
 11 16  1  0  0  0  0
 23 30  1  0  0  0  0
 23 31  1  0  0  0  0
 23 32  1  0  0  0  0
 24 33  1  0  0  0  0
 24 34  1  0  0  0  0
 24 35  1  0  0  0  0
 47 49  1  0  0  0  0
 47 50  1  0  0  0  0
 47 51  1  0  0  0  0
 21 27  1  0  0  0  0
 21 28  1  0  0  0  0
 37 42  1  0  0  0  0
  8 13  1  0  0  0  0
 18 26  1  0  0  0  0
 22 29  1  0  0  0  0
 46 48  1  0  0  0  0
  7 12  1  0  0  0  0
 36 41  1  0  0  0  0
 17 25  1  0  0  0  0
M  END
$$$$

  -OEChem-05262214473D

 51 50  0     1  0  0  0  0  0999 V2000
    3.4018   -1.2440   -3.0186 C   0  0  0  0  0  0  0  0  0  0  0  0
    3.2697   -2.0909   -2.1427 O   0  0  0  0  0  0  0  0  0  0  0  0
    4.6845   -1.1645   -3.7779 C   0  0  0  0  0  0  0  0  0  0  0  0
    5.4123   -0.4862   -3.3041 H   0  0  0  0  0  0  0  0  0  0  0  0
    5.1949   -2.1387   -3.8443 H   0  0  0  0  0  0  0  0  0  0  0  0
    4.5953   -0.8128   -4.8182 H   0  0  0  0  0  0  0  0  0  0  0  0
    2.4540   -0.3103   -3.4040 N   0  0  0  0  0  0  0  0  0  0  0  0
    1.1494   -0.2128   -2.8039 C   0  0  2  0  0  0  0  0  0  0  0  0
    1.3350    0.0367   -1.3130 C   0  0  0  0  0  0  0  0  0  0  0  0
    2.3625   -0.2586   -0.7063 O   0  0  0  0  0  0  0  0  0  0  0  0
    0.3331   -1.4728   -3.0467 C   0  0  0  0  0  0  0  0  0  0  0  0
    2.6924    0.3404   -4.1502 H   0  0  0  0  0  0  0  0  0  0  0  0
    0.6550    0.6514   -3.2607 H   0  0  0  0  0  0  0  0  0  0  0  0
    0.8129   -2.3494   -2.5963 H   0  0  0  0  0  0  0  0  0  0  0  0
   -0.6690   -1.3857   -2.6142 H   0  0  0  0  0  0  0  0  0  0  0  0
    0.2259   -1.6670   -4.1194 H   0  0  0  0  0  0  0  0  0  0  0  0
    0.2019    0.5893   -0.7269 N   0  0  0  0  0  0  0  0  0  0  0  0
    0.1242    0.9059    0.6756 C   0  0  2  0  0  0  0  0  0  0  0  0
   -1.3491    1.1247    1.0055 C   0  0  0  0  0  0  0  0  0  0  0  0
   -2.0164    0.3207    1.6531 O   0  0  0  0  0  0  0  0  0  0  0  0
    0.9393    2.1547    1.0349 C   0  0  0  0  0  0  0  0  0  0  0  0
    2.4646    2.0030    0.8639 C   0  0  0  0  0  0  0  0  0  0  0  0
    3.1480    3.3514    1.1078 C   0  0  0  0  0  0  0  0  0  0  0  0
    2.8463    1.4750   -0.5196 C   0  0  0  0  0  0  0  0  0  0  0  0
   -0.5975    0.8179   -1.3140 H   0  0  0  0  0  0  0  0  0  0  0  0
    0.4802    0.0266    1.2219 H   0  0  0  0  0  0  0  0  0  0  0  0
    0.7281    2.4278    2.0784 H   0  0  0  0  0  0  0  0  0  0  0  0
    0.5930    3.0023    0.4286 H   0  0  0  0  0  0  0  0  0  0  0  0
    2.8429    1.3003    1.6164 H   0  0  0  0  0  0  0  0  0  0  0  0
    2.8073    4.0974    0.3819 H   0  0  0  0  0  0  0  0  0  0  0  0
    4.2346    3.2610    1.0061 H   0  0  0  0  0  0  0  0  0  0  0  0
    2.9314    3.7318    2.1119 H   0  0  0  0  0  0  0  0  0  0  0  0
    2.4905    2.1429   -1.3115 H   0  0  0  0  0  0  0  0  0  0  0  0
    3.9340    1.3877   -0.6152 H   0  0  0  0  0  0  0  0  0  0  0  0
    2.4265    0.4804   -0.6968 H   0  0  0  0  0  0  0  0  0  0  0  0
   -1.8122    2.3456    0.5348 N   0  0  0  0  0  0  0  0  0  0  0  0
   -3.1656    2.8108    0.7361 C   0  0  2  0  0  0  0  0  0  0  0  0
   -3.5925    2.4205    2.1449 C   0  0  0  0  0  0  0  0  0  0  0  0
   -3.0677    1.5050    2.7754 O   0  0  0  0  0  0  0  0  0  0  0  0
   -4.1119    2.2253   -0.3004 C   0  0  0  0  0  0  0  0  0  0  0  0
   -1.1770    2.9571    0.0307 H   0  0  0  0  0  0  0  0  0  0  0  0
   -3.1407    3.9027    0.6507 H   0  0  0  0  0  0  0  0  0  0  0  0
   -4.1501    1.1321   -0.2303 H   0  0  0  0  0  0  0  0  0  0  0  0
   -5.1313    2.6010   -0.1641 H   0  0  0  0  0  0  0  0  0  0  0  0
   -3.7865    2.4821   -1.3143 H   0  0  0  0  0  0  0  0  0  0  0  0
   -4.6571    3.1865    2.5988 N   0  0  0  0  0  0  0  0  0  0  0  0
   -5.2522    3.0002    3.9015 C   0  0  0  0  0  0  0  0  0  0  0  0
   -5.0169    3.9368    2.0163 H   0  0  0  0  0  0  0  0  0  0  0  0
   -6.0979    2.3012    3.8223 H   0  0  0  0  0  0  0  0  0  0  0  0
   -4.5010    2.5898    4.5923 H   0  0  0  0  0  0  0  0  0  0  0  0
   -5.6109    3.9677    4.2824 H   0  0  0  0  0  0  0  0  0  0  0  0
  1  3  1  0  0  0  0
  1  7  1  0  0  0  0
  1  2  2  0  0  0  0
 37 38  1  0  0  0  0
 38 46  1  0  0  0  0
 38 39  2  0  0  0  0
  8  9  1  0  0  0  0
  9 17  1  0  0  0  0
  9 10  2  0  0  0  0
 18 19  1  0  0  0  0
 19 36  1  0  0  0  0
 19 20  2  0  0  0  0
 37 40  1  0  0  0  0
  8 11  1  0  0  0  0
 22 23  1  0  0  0  0
 22 24  1  0  0  0  0
 46 47  1  0  0  0  0
 18 21  1  0  0  0  0
 21 22  1  0  0  0  0
 36 37  1  0  0  0  0
  7  8  1  0  0  0  0
 17 18  1  0  0  0  0
  3  4  1  0  0  0  0
  3  5  1  0  0  0  0
  3  6  1  0  0  0  0
 40 43  1  0  0  0  0
 40 44  1  0  0  0  0
 40 45  1  0  0  0  0
 11 14  1  0  0  0  0
 11 15  1  0  0  0  0
 11 16  1  0  0  0  0
 23 30  1  0  0  0  0
 23 31  1  0  0  0  0
 23 32  1  0  0  0  0
 24 33  1  0  0  0  0
 24 34  1  0  0  0  0
 24 35  1  0  0  0  0
 47 49  1  0  0  0  0
 47 50  1  0  0  0  0
 47 51  1  0  0  0  0
 21 27  1  0  0  0  0
 21 28  1  0  0  0  0
 37 42  1  0  0  0  0
  8 13  1  0  0  0  0
 18 26  1  0  0  0  0
 22 29  1  0  0  0  0
 46 48  1  0  0  0  0
  7 12  1  0  0  0  0
 36 41  1  0  0  0  0
 17 25  1  0  0  0  0
M  END
$$$$

  -OEChem-05262214473D

 51 50  0     1  0  0  0  0  0999 V2000
    3.4018   -1.2440   -3.0186 C   0  0  0  0  0  0  0  0  0  0  0  0
    3.2697   -2.0909   -2.1427 O   0  0  0  0  0  0  0  0  0  0  0  0
    4.6845   -1.1645   -3.7779 C   0  0  0  0  0  0  0  0  0  0  0  0
    5.4123   -0.4862   -3.3041 H   0  0  0  0  0  0  0  0  0  0  0  0
    5.1949   -2.1387   -3.8443 H   0  0  0  0  0  0  0  0  0  0  0  0
    4.5953   -0.8128   -4.8182 H   0  0  0  0  0  0  0  0  0  0  0  0
    2.4540   -0.3103   -3.4040 N   0  0  0  0  0  0  0  0  0  0  0  0
    1.1494   -0.2128   -2.8039 C   0  0  2  0  0  0  0  0  0  0  0  0
    1.3350    0.0367   -1.3130 C   0  0  0  0  0  0  0  0  0  0  0  0
    2.3625   -0.2586   -0.7063 O   0  0  0  0  0  0  0  0  0  0  0  0
    0.3331   -1.4728   -3.0467 C   0  0  0  0  0  0  0  0  0  0  0  0
    2.6924    0.3404   -4.1502 H   0  0  0  0  0  0  0  0  0  0  0  0
    0.6550    0.6514   -3.2607 H   0  0  0  0  0  0  0  0  0  0  0  0
    0.8129   -2.3494   -2.5963 H   0  0  0  0  0  0  0  0  0  0  0  0
   -0.6690   -1.3857   -2.6142 H   0  0  0  0  0  0  0  0  0  0  0  0
    0.2259   -1.6670   -4.1194 H   0  0  0  0  0  0  0  0  0  0  0  0
    0.2019    0.5893   -0.7269 N   0  0  0  0  0  0  0  0  0  0  0  0
    0.1242    0.9059    0.6756 C   0  0  2  0  0  0  0  0  0  0  0  0
   -1.3491    1.1247    1.0055 C   0  0  0  0  0  0  0  0  0  0  0  0
   -1.9467    0.4758    1.8617 O   0  0  0  0  0  0  0  0  0  0  0  0
    0.9393    2.1547    1.0349 C   0  0  0  0  0  0  0  0  0  0  0  0
    2.4646    2.0030    0.8639 C   0  0  0  0  0  0  0  0  0  0  0  0
    3.1480    3.3514    1.1078 C   0  0  0  0  0  0  0  0  0  0  0  0
    2.8463    1.4750   -0.5196 C   0  0  0  0  0  0  0  0  0  0  0  0
   -0.5975    0.8179   -1.3140 H   0  0  0  0  0  0  0  0  0  0  0  0
    0.4802    0.0266    1.2219 H   0  0  0  0  0  0  0  0  0  0  0  0
    0.7281    2.4278    2.0784 H   0  0  0  0  0  0  0  0  0  0  0  0
    0.5930    3.0023    0.4286 H   0  0  0  0  0  0  0  0  0  0  0  0
    2.8429    1.3003    1.6164 H   0  0  0  0  0  0  0  0  0  0  0  0
    2.8073    4.0974    0.3819 H   0  0  0  0  0  0  0  0  0  0  0  0
    4.2346    3.2610    1.0061 H   0  0  0  0  0  0  0  0  0  0  0  0
    2.9314    3.7318    2.1119 H   0  0  0  0  0  0  0  0  0  0  0  0
    2.4905    2.1429   -1.3115 H   0  0  0  0  0  0  0  0  0  0  0  0
    3.9340    1.3877   -0.6152 H   0  0  0  0  0  0  0  0  0  0  0  0
    2.4265    0.4804   -0.6968 H   0  0  0  0  0  0  0  0  0  0  0  0
   -1.8994    2.1629    0.2667 N   0  0  0  0  0  0  0  0  0  0  0  0
   -3.2719    2.5938    0.4055 C   0  0  2  0  0  0  0  0  0  0  0  0
   -3.6318    2.5482    1.8847 C   0  0  0  0  0  0  0  0  0  0  0  0
   -3.0337    1.8484    2.6993 O   0  0  0  0  0  0  0  0  0  0  0  0
   -4.2116    1.7191   -0.4097 C   0  0  0  0  0  0  0  0  0  0  0  0
   -1.3179    2.6601   -0.4013 H   0  0  0  0  0  0  0  0  0  0  0  0
   -3.3158    3.6290    0.0501 H   0  0  0  0  0  0  0  0  0  0  0  0
   -4.1812    0.6781   -0.0681 H   0  0  0  0  0  0  0  0  0  0  0  0
   -5.2474    2.0643   -0.3262 H   0  0  0  0  0  0  0  0  0  0  0  0
   -3.9330    1.7295   -1.4690 H   0  0  0  0  0  0  0  0  0  0  0  0
   -4.7269    3.3480    2.1802 N   0  0  0  0  0  0  0  0  0  0  0  0
   -5.2702    3.4644    3.5133 C   0  0  0  0  0  0  0  0  0  0  0  0
   -5.1489    3.9087    1.4458 H   0  0  0  0  0  0  0  0  0  0  0  0
   -6.0739    2.7255    3.6481 H   0  0  0  0  0  0  0  0  0  0  0  0
   -4.4751    3.2796    4.2506 H   0  0  0  0  0  0  0  0  0  0  0  0
   -5.6754    4.4769    3.6569 H   0  0  0  0  0  0  0  0  0  0  0  0
  1  3  1  0  0  0  0
  1  7  1  0  0  0  0
  1  2  2  0  0  0  0
 37 38  1  0  0  0  0
 38 46  1  0  0  0  0
 38 39  2  0  0  0  0
  8  9  1  0  0  0  0
  9 17  1  0  0  0  0
  9 10  2  0  0  0  0
 18 19  1  0  0  0  0
 19 36  1  0  0  0  0
 19 20  2  0  0  0  0
 37 40  1  0  0  0  0
  8 11  1  0  0  0  0
 22 23  1  0  0  0  0
 22 24  1  0  0  0  0
 46 47  1  0  0  0  0
 18 21  1  0  0  0  0
 21 22  1  0  0  0  0
 36 37  1  0  0  0  0
  7  8  1  0  0  0  0
 17 18  1  0  0  0  0
  3  4  1  0  0  0  0
  3  5  1  0  0  0  0
  3  6  1  0  0  0  0
 40 43  1  0  0  0  0
 40 44  1  0  0  0  0
 40 45  1  0  0  0  0
 11 14  1  0  0  0  0
 11 15  1  0  0  0  0
 11 16  1  0  0  0  0
 23 30  1  0  0  0  0
 23 31  1  0  0  0  0
 23 32  1  0  0  0  0
 24 33  1  0  0  0  0
 24 34  1  0  0  0  0
 24 35  1  0  0  0  0
 47 49  1  0  0  0  0
 47 50  1  0  0  0  0
 47 51  1  0  0  0  0
 21 27  1  0  0  0  0
 21 28  1  0  0  0  0
 37 42  1  0  0  0  0
  8 13  1  0  0  0  0
 18 26  1  0  0  0  0
 22 29  1  0  0  0  0
 46 48  1  0  0  0  0
  7 12  1  0  0  0  0
 36 41  1  0  0  0  0
 17 25  1  0  0  0  0
M  END
$$$$

  -OEChem-05262214473D

 51 50  0     1  0  0  0  0  0999 V2000
    3.4018   -1.2440   -3.0186 C   0  0  0  0  0  0  0  0  0  0  0  0
    3.2697   -2.0909   -2.1427 O   0  0  0  0  0  0  0  0  0  0  0  0
    4.6845   -1.1645   -3.7779 C   0  0  0  0  0  0  0  0  0  0  0  0
    5.4123   -0.4862   -3.3041 H   0  0  0  0  0  0  0  0  0  0  0  0
    5.1949   -2.1387   -3.8443 H   0  0  0  0  0  0  0  0  0  0  0  0
    4.5953   -0.8128   -4.8182 H   0  0  0  0  0  0  0  0  0  0  0  0
    2.4540   -0.3103   -3.4040 N   0  0  0  0  0  0  0  0  0  0  0  0
    1.1494   -0.2128   -2.8039 C   0  0  2  0  0  0  0  0  0  0  0  0
    1.3350    0.0367   -1.3130 C   0  0  0  0  0  0  0  0  0  0  0  0
    2.3625   -0.2586   -0.7063 O   0  0  0  0  0  0  0  0  0  0  0  0
    0.3331   -1.4728   -3.0467 C   0  0  0  0  0  0  0  0  0  0  0  0
    2.6924    0.3404   -4.1502 H   0  0  0  0  0  0  0  0  0  0  0  0
    0.6550    0.6514   -3.2607 H   0  0  0  0  0  0  0  0  0  0  0  0
    0.8129   -2.3494   -2.5963 H   0  0  0  0  0  0  0  0  0  0  0  0
   -0.6690   -1.3857   -2.6142 H   0  0  0  0  0  0  0  0  0  0  0  0
    0.2259   -1.6670   -4.1194 H   0  0  0  0  0  0  0  0  0  0  0  0
    0.2019    0.5893   -0.7269 N   0  0  0  0  0  0  0  0  0  0  0  0
    0.1242    0.9059    0.6756 C   0  0  2  0  0  0  0  0  0  0  0  0
   -1.3491    1.1247    1.0055 C   0  0  0  0  0  0  0  0  0  0  0  0
   -1.8802    0.6817    2.0218 O   0  0  0  0  0  0  0  0  0  0  0  0
    0.9393    2.1547    1.0349 C   0  0  0  0  0  0  0  0  0  0  0  0
    2.4646    2.0030    0.8639 C   0  0  0  0  0  0  0  0  0  0  0  0
    3.1480    3.3514    1.1078 C   0  0  0  0  0  0  0  0  0  0  0  0
    2.8463    1.4750   -0.5196 C   0  0  0  0  0  0  0  0  0  0  0  0
   -0.5975    0.8179   -1.3140 H   0  0  0  0  0  0  0  0  0  0  0  0
    0.4802    0.0266    1.2219 H   0  0  0  0  0  0  0  0  0  0  0  0
    0.7281    2.4278    2.0784 H   0  0  0  0  0  0  0  0  0  0  0  0
    0.5930    3.0023    0.4286 H   0  0  0  0  0  0  0  0  0  0  0  0
    2.8429    1.3003    1.6164 H   0  0  0  0  0  0  0  0  0  0  0  0
    2.8073    4.0974    0.3819 H   0  0  0  0  0  0  0  0  0  0  0  0
    4.2346    3.2610    1.0061 H   0  0  0  0  0  0  0  0  0  0  0  0
    2.9314    3.7318    2.1119 H   0  0  0  0  0  0  0  0  0  0  0  0
    2.4905    2.1429   -1.3115 H   0  0  0  0  0  0  0  0  0  0  0  0
    3.9340    1.3877   -0.6152 H   0  0  0  0  0  0  0  0  0  0  0  0
    2.4265    0.4804   -0.6968 H   0  0  0  0  0  0  0  0  0  0  0  0
   -1.9833    1.9146    0.0567 N   0  0  0  0  0  0  0  0  0  0  0  0
   -3.3746    2.2956    0.1445 C   0  0  2  0  0  0  0  0  0  0  0  0
   -3.6866    2.6044    1.6028 C   0  0  0  0  0  0  0  0  0  0  0  0
   -3.0230    2.1631    2.5387 O   0  0  0  0  0  0  0  0  0  0  0  0
   -4.2835    1.1973   -0.3850 C   0  0  0  0  0  0  0  0  0  0  0  0
   -1.4534    2.2573   -0.7391 H   0  0  0  0  0  0  0  0  0  0  0  0
   -3.4920    3.2048   -0.4552 H   0  0  0  0  0  0  0  0  0  0  0  0
   -4.1798    0.2783    0.2033 H   0  0  0  0  0  0  0  0  0  0  0  0
   -5.3354    1.4988   -0.3443 H   0  0  0  0  0  0  0  0  0  0  0  0
   -4.0380    0.9558   -1.4248 H   0  0  0  0  0  0  0  0  0  0  0  0
   -4.8188    3.3955    1.7381 N   0  0  0  0  0  0  0  0  0  0  0  0
   -5.3280    3.8148    3.0230 C   0  0  0  0  0  0  0  0  0  0  0  0
   -5.2959    3.7315    0.9067 H   0  0  0  0  0  0  0  0  0  0  0  0
   -6.0809    3.0932    3.3728 H   0  0  0  0  0  0  0  0  0  0  0  0
   -4.5013    3.8620    3.7472 H   0  0  0  0  0  0  0  0  0  0  0  0
   -5.7894    4.8088    2.9279 H   0  0  0  0  0  0  0  0  0  0  0  0
  1  3  1  0  0  0  0
  1  7  1  0  0  0  0
  1  2  2  0  0  0  0
 37 38  1  0  0  0  0
 38 46  1  0  0  0  0
 38 39  2  0  0  0  0
  8  9  1  0  0  0  0
  9 17  1  0  0  0  0
  9 10  2  0  0  0  0
 18 19  1  0  0  0  0
 19 36  1  0  0  0  0
 19 20  2  0  0  0  0
 37 40  1  0  0  0  0
  8 11  1  0  0  0  0
 22 23  1  0  0  0  0
 22 24  1  0  0  0  0
 46 47  1  0  0  0  0
 18 21  1  0  0  0  0
 21 22  1  0  0  0  0
 36 37  1  0  0  0  0
  7  8  1  0  0  0  0
 17 18  1  0  0  0  0
  3  4  1  0  0  0  0
  3  5  1  0  0  0  0
  3  6  1  0  0  0  0
 40 43  1  0  0  0  0
 40 44  1  0  0  0  0
 40 45  1  0  0  0  0
 11 14  1  0  0  0  0
 11 15  1  0  0  0  0
 11 16  1  0  0  0  0
 23 30  1  0  0  0  0
 23 31  1  0  0  0  0
 23 32  1  0  0  0  0
 24 33  1  0  0  0  0
 24 34  1  0  0  0  0
 24 35  1  0  0  0  0
 47 49  1  0  0  0  0
 47 50  1  0  0  0  0
 47 51  1  0  0  0  0
 21 27  1  0  0  0  0
 21 28  1  0  0  0  0
 37 42  1  0  0  0  0
  8 13  1  0  0  0  0
 18 26  1  0  0  0  0
 22 29  1  0  0  0  0
 46 48  1  0  0  0  0
  7 12  1  0  0  0  0
 36 41  1  0  0  0  0
 17 25  1  0  0  0  0
M  END
$$$$

  -OEChem-05262214473D

 51 50  0     1  0  0  0  0  0999 V2000
    3.4018   -1.2440   -3.0186 C   0  0  0  0  0  0  0  0  0  0  0  0
    3.2697   -2.0909   -2.1427 O   0  0  0  0  0  0  0  0  0  0  0  0
    4.6845   -1.1645   -3.7779 C   0  0  0  0  0  0  0  0  0  0  0  0
    5.4123   -0.4862   -3.3041 H   0  0  0  0  0  0  0  0  0  0  0  0
    5.1949   -2.1387   -3.8443 H   0  0  0  0  0  0  0  0  0  0  0  0
    4.5953   -0.8128   -4.8182 H   0  0  0  0  0  0  0  0  0  0  0  0
    2.4540   -0.3103   -3.4040 N   0  0  0  0  0  0  0  0  0  0  0  0
    1.1494   -0.2128   -2.8039 C   0  0  2  0  0  0  0  0  0  0  0  0
    1.3350    0.0367   -1.3130 C   0  0  0  0  0  0  0  0  0  0  0  0
    2.3625   -0.2586   -0.7063 O   0  0  0  0  0  0  0  0  0  0  0  0
    0.3331   -1.4728   -3.0467 C   0  0  0  0  0  0  0  0  0  0  0  0
    2.6924    0.3404   -4.1502 H   0  0  0  0  0  0  0  0  0  0  0  0
    0.6550    0.6514   -3.2607 H   0  0  0  0  0  0  0  0  0  0  0  0
    0.8129   -2.3494   -2.5963 H   0  0  0  0  0  0  0  0  0  0  0  0
   -0.6690   -1.3857   -2.6142 H   0  0  0  0  0  0  0  0  0  0  0  0
    0.2259   -1.6670   -4.1194 H   0  0  0  0  0  0  0  0  0  0  0  0
    0.2019    0.5893   -0.7269 N   0  0  0  0  0  0  0  0  0  0  0  0
    0.1242    0.9059    0.6756 C   0  0  2  0  0  0  0  0  0  0  0  0
   -1.3491    1.1247    1.0055 C   0  0  0  0  0  0  0  0  0  0  0  0
   -1.8216    0.9244    2.1226 O   0  0  0  0  0  0  0  0  0  0  0  0
    0.9393    2.1547    1.0349 C   0  0  0  0  0  0  0  0  0  0  0  0
    2.4646    2.0030    0.8639 C   0  0  0  0  0  0  0  0  0  0  0  0
    3.1480    3.3514    1.1078 C   0  0  0  0  0  0  0  0  0  0  0  0
    2.8463    1.4750   -0.5196 C   0  0  0  0  0  0  0  0  0  0  0  0
   -0.5975    0.8179   -1.3140 H   0  0  0  0  0  0  0  0  0  0  0  0
    0.4802    0.0266    1.2219 H   0  0  0  0  0  0  0  0  0  0  0  0
    0.7281    2.4278    2.0784 H   0  0  0  0  0  0  0  0  0  0  0  0
    0.5930    3.0023    0.4286 H   0  0  0  0  0  0  0  0  0  0  0  0
    2.8429    1.3003    1.6164 H   0  0  0  0  0  0  0  0  0  0  0  0
    2.8073    4.0974    0.3819 H   0  0  0  0  0  0  0  0  0  0  0  0
    4.2346    3.2610    1.0061 H   0  0  0  0  0  0  0  0  0  0  0  0
    2.9314    3.7318    2.1119 H   0  0  0  0  0  0  0  0  0  0  0  0
    2.4905    2.1429   -1.3115 H   0  0  0  0  0  0  0  0  0  0  0  0
    3.9340    1.3877   -0.6152 H   0  0  0  0  0  0  0  0  0  0  0  0
    2.4265    0.4804   -0.6968 H   0  0  0  0  0  0  0  0  0  0  0  0
   -2.0583    1.6176   -0.0810 N   0  0  0  0  0  0  0  0  0  0  0  0
   -3.4669    1.9365   -0.0294 C   0  0  2  0  0  0  0  0  0  0  0  0
   -3.7531    2.5851    1.3186 C   0  0  0  0  0  0  0  0  0  0  0  0
   -3.0362    2.4274    2.3045 O   0  0  0  0  0  0  0  0  0  0  0  0
   -4.3229    0.6954   -0.2281 C   0  0  0  0  0  0  0  0  0  0  0  0
   -1.5742    1.7763   -0.9598 H   0  0  0  0  0  0  0  0  0  0  0  0
   -3.6572    2.6589   -0.8306 H   0  0  0  0  0  0  0  0  0  0  0  0
   -4.1460   -0.0399    0.5652 H   0  0  0  0  0  0  0  0  0  0  0  0
   -5.3895    0.9431   -0.2172 H   0  0  0  0  0  0  0  0  0  0  0  0
   -4.0945    0.2135   -1.1849 H   0  0  0  0  0  0  0  0  0  0  0  0
   -4.9267    3.3258    1.3027 N   0  0  0  0  0  0  0  0  0  0  0  0
   -5.4216    4.0274    2.4640 C   0  0  0  0  0  0  0  0  0  0  0  0
   -5.4481    3.4174    0.4357 H   0  0  0  0  0  0  0  0  0  0  0  0
   -6.1185    3.3791    3.0154 H   0  0  0  0  0  0  0  0  0  0  0  0
   -4.5780    4.2973    3.1163 H   0  0  0  0  0  0  0  0  0  0  0  0
   -5.9451    4.9407    2.1450 H   0  0  0  0  0  0  0  0  0  0  0  0
  1  3  1  0  0  0  0
  1  7  1  0  0  0  0
  1  2  2  0  0  0  0
 37 38  1  0  0  0  0
 38 46  1  0  0  0  0
 38 39  2  0  0  0  0
  8  9  1  0  0  0  0
  9 17  1  0  0  0  0
  9 10  2  0  0  0  0
 18 19  1  0  0  0  0
 19 36  1  0  0  0  0
 19 20  2  0  0  0  0
 37 40  1  0  0  0  0
  8 11  1  0  0  0  0
 22 23  1  0  0  0  0
 22 24  1  0  0  0  0
 46 47  1  0  0  0  0
 18 21  1  0  0  0  0
 21 22  1  0  0  0  0
 36 37  1  0  0  0  0
  7  8  1  0  0  0  0
 17 18  1  0  0  0  0
  3  4  1  0  0  0  0
  3  5  1  0  0  0  0
  3  6  1  0  0  0  0
 40 43  1  0  0  0  0
 40 44  1  0  0  0  0
 40 45  1  0  0  0  0
 11 14  1  0  0  0  0
 11 15  1  0  0  0  0
 11 16  1  0  0  0  0
 23 30  1  0  0  0  0
 23 31  1  0  0  0  0
 23 32  1  0  0  0  0
 24 33  1  0  0  0  0
 24 34  1  0  0  0  0
 24 35  1  0  0  0  0
 47 49  1  0  0  0  0
 47 50  1  0  0  0  0
 47 51  1  0  0  0  0
 21 27  1  0  0  0  0
 21 28  1  0  0  0  0
 37 42  1  0  0  0  0
  8 13  1  0  0  0  0
 18 26  1  0  0  0  0
 22 29  1  0  0  0  0
 46 48  1  0  0  0  0
  7 12  1  0  0  0  0
 36 41  1  0  0  0  0
 17 25  1  0  0  0  0
M  END
$$$$

  -OEChem-05262214473D

 51 50  0     1  0  0  0  0  0999 V2000
    3.4018   -1.2440   -3.0186 C   0  0  0  0  0  0  0  0  0  0  0  0
    3.2697   -2.0909   -2.1427 O   0  0  0  0  0  0  0  0  0  0  0  0
    4.6845   -1.1645   -3.7779 C   0  0  0  0  0  0  0  0  0  0  0  0
    5.4123   -0.4862   -3.3041 H   0  0  0  0  0  0  0  0  0  0  0  0
    5.1949   -2.1387   -3.8443 H   0  0  0  0  0  0  0  0  0  0  0  0
    4.5953   -0.8128   -4.8182 H   0  0  0  0  0  0  0  0  0  0  0  0
    2.4540   -0.3103   -3.4040 N   0  0  0  0  0  0  0  0  0  0  0  0
    1.1494   -0.2128   -2.8039 C   0  0  2  0  0  0  0  0  0  0  0  0
    1.3350    0.0367   -1.3130 C   0  0  0  0  0  0  0  0  0  0  0  0
    2.3625   -0.2586   -0.7063 O   0  0  0  0  0  0  0  0  0  0  0  0
    0.3331   -1.4728   -3.0467 C   0  0  0  0  0  0  0  0  0  0  0  0
    2.6924    0.3404   -4.1502 H   0  0  0  0  0  0  0  0  0  0  0  0
    0.6550    0.6514   -3.2607 H   0  0  0  0  0  0  0  0  0  0  0  0
    0.8129   -2.3494   -2.5963 H   0  0  0  0  0  0  0  0  0  0  0  0
   -0.6690   -1.3857   -2.6142 H   0  0  0  0  0  0  0  0  0  0  0  0
    0.2259   -1.6670   -4.1194 H   0  0  0  0  0  0  0  0  0  0  0  0
    0.2019    0.5893   -0.7269 N   0  0  0  0  0  0  0  0  0  0  0  0
    0.1242    0.9059    0.6756 C   0  0  2  0  0  0  0  0  0  0  0  0
   -1.3491    1.1247    1.0055 C   0  0  0  0  0  0  0  0  0  0  0  0
   -1.7748    1.1872    2.1571 O   0  0  0  0  0  0  0  0  0  0  0  0
    0.9393    2.1547    1.0349 C   0  0  0  0  0  0  0  0  0  0  0  0
    2.4646    2.0030    0.8639 C   0  0  0  0  0  0  0  0  0  0  0  0
    3.1480    3.3514    1.1078 C   0  0  0  0  0  0  0  0  0  0  0  0
    2.8463    1.4750   -0.5196 C   0  0  0  0  0  0  0  0  0  0  0  0
   -0.5975    0.8179   -1.3140 H   0  0  0  0  0  0  0  0  0  0  0  0
    0.4802    0.0266    1.2219 H   0  0  0  0  0  0  0  0  0  0  0  0
    0.7281    2.4278    2.0784 H   0  0  0  0  0  0  0  0  0  0  0  0
    0.5930    3.0023    0.4286 H   0  0  0  0  0  0  0  0  0  0  0  0
    2.8429    1.3003    1.6164 H   0  0  0  0  0  0  0  0  0  0  0  0
    2.8073    4.0974    0.3819 H   0  0  0  0  0  0  0  0  0  0  0  0
    4.2346    3.2610    1.0061 H   0  0  0  0  0  0  0  0  0  0  0  0
    2.9314    3.7318    2.1119 H   0  0  0  0  0  0  0  0  0  0  0  0
    2.4905    2.1429   -1.3115 H   0  0  0  0  0  0  0  0  0  0  0  0
    3.9340    1.3877   -0.6152 H   0  0  0  0  0  0  0  0  0  0  0  0
    2.4265    0.4804   -0.6968 H   0  0  0  0  0  0  0  0  0  0  0  0
   -2.1192    1.2920   -0.1370 N   0  0  0  0  0  0  0  0  0  0  0  0
   -3.5424    1.5411   -0.1041 C   0  0  2  0  0  0  0  0  0  0  0  0
   -3.8269    2.4917    1.0513 C   0  0  0  0  0  0  0  0  0  0  0  0
   -3.0724    2.6235    2.0128 O   0  0  0  0  0  0  0  0  0  0  0  0
   -4.3271    0.2476    0.0504 C   0  0  0  0  0  0  0  0  0  0  0  0
   -1.6722    1.2497   -1.0481 H   0  0  0  0  0  0  0  0  0  0  0  0
   -3.8001    2.0285   -1.0507 H   0  0  0  0  0  0  0  0  0  0  0  0
   -4.0821   -0.2550    0.9932 H   0  0  0  0  0  0  0  0  0  0  0  0
   -5.4059    0.4351    0.0464 H   0  0  0  0  0  0  0  0  0  0  0  0
   -4.0986   -0.4466   -0.7655 H   0  0  0  0  0  0  0  0  0  0  0  0
   -5.0432    3.1435    0.9035 N   0  0  0  0  0  0  0  0  0  0  0  0
   -5.5447    4.0879    1.8744 C   0  0  0  0  0  0  0  0  0  0  0  0
   -5.5949    2.9877    0.0650 H   0  0  0  0  0  0  0  0  0  0  0  0
   -6.1841    3.5639    2.6000 H   0  0  0  0  0  0  0  0  0  0  0  0
   -4.6998    4.5557    2.4010 H   0  0  0  0  0  0  0  0  0  0  0  0
   -6.1320    4.8638    1.3615 H   0  0  0  0  0  0  0  0  0  0  0  0
  1  3  1  0  0  0  0
  1  7  1  0  0  0  0
  1  2  2  0  0  0  0
 37 38  1  0  0  0  0
 38 46  1  0  0  0  0
 38 39  2  0  0  0  0
  8  9  1  0  0  0  0
  9 17  1  0  0  0  0
  9 10  2  0  0  0  0
 18 19  1  0  0  0  0
 19 36  1  0  0  0  0
 19 20  2  0  0  0  0
 37 40  1  0  0  0  0
  8 11  1  0  0  0  0
 22 23  1  0  0  0  0
 22 24  1  0  0  0  0
 46 47  1  0  0  0  0
 18 21  1  0  0  0  0
 21 22  1  0  0  0  0
 36 37  1  0  0  0  0
  7  8  1  0  0  0  0
 17 18  1  0  0  0  0
  3  4  1  0  0  0  0
  3  5  1  0  0  0  0
  3  6  1  0  0  0  0
 40 43  1  0  0  0  0
 40 44  1  0  0  0  0
 40 45  1  0  0  0  0
 11 14  1  0  0  0  0
 11 15  1  0  0  0  0
 11 16  1  0  0  0  0
 23 30  1  0  0  0  0
 23 31  1  0  0  0  0
 23 32  1  0  0  0  0
 24 33  1  0  0  0  0
 24 34  1  0  0  0  0
 24 35  1  0  0  0  0
 47 49  1  0  0  0  0
 47 50  1  0  0  0  0
 47 51  1  0  0  0  0
 21 27  1  0  0  0  0
 21 28  1  0  0  0  0
 37 42  1  0  0  0  0
  8 13  1  0  0  0  0
 18 26  1  0  0  0  0
 22 29  1  0  0  0  0
 46 48  1  0  0  0  0
  7 12  1  0  0  0  0
 36 41  1  0  0  0  0
 17 25  1  0  0  0  0
M  END
$$$$

  -OEChem-05262214473D

 51 50  0     1  0  0  0  0  0999 V2000
    3.4018   -1.2440   -3.0186 C   0  0  0  0  0  0  0  0  0  0  0  0
    3.2697   -2.0909   -2.1427 O   0  0  0  0  0  0  0  0  0  0  0  0
    4.6845   -1.1645   -3.7779 C   0  0  0  0  0  0  0  0  0  0  0  0
    5.4123   -0.4862   -3.3041 H   0  0  0  0  0  0  0  0  0  0  0  0
    5.1949   -2.1387   -3.8443 H   0  0  0  0  0  0  0  0  0  0  0  0
    4.5953   -0.8128   -4.8182 H   0  0  0  0  0  0  0  0  0  0  0  0
    2.4540   -0.3103   -3.4040 N   0  0  0  0  0  0  0  0  0  0  0  0
    1.1494   -0.2128   -2.8039 C   0  0  2  0  0  0  0  0  0  0  0  0
    1.3350    0.0367   -1.3130 C   0  0  0  0  0  0  0  0  0  0  0  0
    2.3625   -0.2586   -0.7063 O   0  0  0  0  0  0  0  0  0  0  0  0
    0.3331   -1.4728   -3.0467 C   0  0  0  0  0  0  0  0  0  0  0  0
    2.6924    0.3404   -4.1502 H   0  0  0  0  0  0  0  0  0  0  0  0
    0.6550    0.6514   -3.2607 H   0  0  0  0  0  0  0  0  0  0  0  0
    0.8129   -2.3494   -2.5963 H   0  0  0  0  0  0  0  0  0  0  0  0
   -0.6690   -1.3857   -2.6142 H   0  0  0  0  0  0  0  0  0  0  0  0
    0.2259   -1.6670   -4.1194 H   0  0  0  0  0  0  0  0  0  0  0  0
    0.2019    0.5893   -0.7269 N   0  0  0  0  0  0  0  0  0  0  0  0
    0.1242    0.9059    0.6756 C   0  0  2  0  0  0  0  0  0  0  0  0
   -1.3491    1.1247    1.0055 C   0  0  0  0  0  0  0  0  0  0  0  0
   -1.7431    1.4524    2.1229 O   0  0  0  0  0  0  0  0  0  0  0  0
    0.9393    2.1547    1.0349 C   0  0  0  0  0  0  0  0  0  0  0  0
    2.4646    2.0030    0.8639 C   0  0  0  0  0  0  0  0  0  0  0  0
    3.1480    3.3514    1.1078 C   0  0  0  0  0  0  0  0  0  0  0  0
    2.8463    1.4750   -0.5196 C   0  0  0  0  0  0  0  0  0  0  0  0
   -0.5975    0.8179   -1.3140 H   0  0  0  0  0  0  0  0  0  0  0  0
    0.4802    0.0266    1.2219 H   0  0  0  0  0  0  0  0  0  0  0  0
    0.7281    2.4278    2.0784 H   0  0  0  0  0  0  0  0  0  0  0  0
    0.5930    3.0023    0.4286 H   0  0  0  0  0  0  0  0  0  0  0  0
    2.8429    1.3003    1.6164 H   0  0  0  0  0  0  0  0  0  0  0  0
    2.8073    4.0974    0.3819 H   0  0  0  0  0  0  0  0  0  0  0  0
    4.2346    3.2610    1.0061 H   0  0  0  0  0  0  0  0  0  0  0  0
    2.9314    3.7318    2.1119 H   0  0  0  0  0  0  0  0  0  0  0  0
    2.4905    2.1429   -1.3115 H   0  0  0  0  0  0  0  0  0  0  0  0
    3.9340    1.3877   -0.6152 H   0  0  0  0  0  0  0  0  0  0  0  0
    2.4265    0.4804   -0.6968 H   0  0  0  0  0  0  0  0  0  0  0  0
   -2.1618    0.9602   -0.1075 N   0  0  0  0  0  0  0  0  0  0  0  0
   -3.5959    1.1363   -0.0747 C   0  0  2  0  0  0  0  0  0  0  0  0
   -3.9028    2.3305    0.8192 C   0  0  0  0  0  0  0  0  0  0  0  0
   -3.1292    2.7380    1.6832 O   0  0  0  0  0  0  0  0  0  0  0  0
   -4.2957   -0.1155    0.4314 C   0  0  0  0  0  0  0  0  0  0  0  0
   -1.7407    0.7135   -0.9982 H   0  0  0  0  0  0  0  0  0  0  0  0
   -3.9111    1.3566   -1.1004 H   0  0  0  0  0  0  0  0  0  0  0  0
   -3.9924   -0.3521    1.4579 H   0  0  0  0  0  0  0  0  0  0  0  0
   -5.3835    0.0095    0.4287 H   0  0  0  0  0  0  0  0  0  0  0  0
   -4.0501   -0.9797   -0.1952 H   0  0  0  0  0  0  0  0  0  0  0  0
   -5.1603    2.8611    0.5678 N   0  0  0  0  0  0  0  0  0  0  0  0
   -5.6889    3.9920    1.2943 C   0  0  0  0  0  0  0  0  0  0  0  0
   -5.7265    2.4718   -0.1803 H   0  0  0  0  0  0  0  0  0  0  0  0
   -6.2732    3.6348    2.1551 H   0  0  0  0  0  0  0  0  0  0  0  0
   -4.8585    4.6197    1.6500 H   0  0  0  0  0  0  0  0  0  0  0  0
   -6.3373    4.5832    0.6309 H   0  0  0  0  0  0  0  0  0  0  0  0
  1  3  1  0  0  0  0
  1  7  1  0  0  0  0
  1  2  2  0  0  0  0
 37 38  1  0  0  0  0
 38 46  1  0  0  0  0
 38 39  2  0  0  0  0
  8  9  1  0  0  0  0
  9 17  1  0  0  0  0
  9 10  2  0  0  0  0
 18 19  1  0  0  0  0
 19 36  1  0  0  0  0
 19 20  2  0  0  0  0
 37 40  1  0  0  0  0
  8 11  1  0  0  0  0
 22 23  1  0  0  0  0
 22 24  1  0  0  0  0
 46 47  1  0  0  0  0
 18 21  1  0  0  0  0
 21 22  1  0  0  0  0
 36 37  1  0  0  0  0
  7  8  1  0  0  0  0
 17 18  1  0  0  0  0
  3  4  1  0  0  0  0
  3  5  1  0  0  0  0
  3  6  1  0  0  0  0
 40 43  1  0  0  0  0
 40 44  1  0  0  0  0
 40 45  1  0  0  0  0
 11 14  1  0  0  0  0
 11 15  1  0  0  0  0
 11 16  1  0  0  0  0
 23 30  1  0  0  0  0
 23 31  1  0  0  0  0
 23 32  1  0  0  0  0
 24 33  1  0  0  0  0
 24 34  1  0  0  0  0
 24 35  1  0  0  0  0
 47 49  1  0  0  0  0
 47 50  1  0  0  0  0
 47 51  1  0  0  0  0
 21 27  1  0  0  0  0
 21 28  1  0  0  0  0
 37 42  1  0  0  0  0
  8 13  1  0  0  0  0
 18 26  1  0  0  0  0
 22 29  1  0  0  0  0
 46 48  1  0  0  0  0
  7 12  1  0  0  0  0
 36 41  1  0  0  0  0
 17 25  1  0  0  0  0
M  END
$$$$

  -OEChem-05262214473D

 51 50  0     1  0  0  0  0  0999 V2000
    3.4018   -1.2440   -3.0186 C   0  0  0  0  0  0  0  0  0  0  0  0
    3.2697   -2.0909   -2.1427 O   0  0  0  0  0  0  0  0  0  0  0  0
    4.6845   -1.1645   -3.7779 C   0  0  0  0  0  0  0  0  0  0  0  0
    5.4123   -0.4862   -3.3041 H   0  0  0  0  0  0  0  0  0  0  0  0
    5.1949   -2.1387   -3.8443 H   0  0  0  0  0  0  0  0  0  0  0  0
    4.5953   -0.8128   -4.8182 H   0  0  0  0  0  0  0  0  0  0  0  0
    2.4540   -0.3103   -3.4040 N   0  0  0  0  0  0  0  0  0  0  0  0
    1.1494   -0.2128   -2.8039 C   0  0  2  0  0  0  0  0  0  0  0  0
    1.3350    0.0367   -1.3130 C   0  0  0  0  0  0  0  0  0  0  0  0
    2.3625   -0.2586   -0.7063 O   0  0  0  0  0  0  0  0  0  0  0  0
    0.3331   -1.4728   -3.0467 C   0  0  0  0  0  0  0  0  0  0  0  0
    2.6924    0.3404   -4.1502 H   0  0  0  0  0  0  0  0  0  0  0  0
    0.6550    0.6514   -3.2607 H   0  0  0  0  0  0  0  0  0  0  0  0
    0.8129   -2.3494   -2.5963 H   0  0  0  0  0  0  0  0  0  0  0  0
   -0.6690   -1.3857   -2.6142 H   0  0  0  0  0  0  0  0  0  0  0  0
    0.2259   -1.6670   -4.1194 H   0  0  0  0  0  0  0  0  0  0  0  0
    0.2019    0.5893   -0.7269 N   0  0  0  0  0  0  0  0  0  0  0  0
    0.1242    0.9059    0.6756 C   0  0  2  0  0  0  0  0  0  0  0  0
   -1.3491    1.1247    1.0055 C   0  0  0  0  0  0  0  0  0  0  0  0
   -1.7285    1.7017    2.0225 O   0  0  0  0  0  0  0  0  0  0  0  0
    0.9393    2.1547    1.0349 C   0  0  0  0  0  0  0  0  0  0  0  0
    2.4646    2.0030    0.8639 C   0  0  0  0  0  0  0  0  0  0  0  0
    3.1480    3.3514    1.1078 C   0  0  0  0  0  0  0  0  0  0  0  0
    2.8463    1.4750   -0.5196 C   0  0  0  0  0  0  0  0  0  0  0  0
   -0.5975    0.8179   -1.3140 H   0  0  0  0  0  0  0  0  0  0  0  0
    0.4802    0.0266    1.2219 H   0  0  0  0  0  0  0  0  0  0  0  0
    0.7281    2.4278    2.0784 H   0  0  0  0  0  0  0  0  0  0  0  0
    0.5930    3.0023    0.4286 H   0  0  0  0  0  0  0  0  0  0  0  0
    2.8429    1.3003    1.6164 H   0  0  0  0  0  0  0  0  0  0  0  0
    2.8073    4.0974    0.3819 H   0  0  0  0  0  0  0  0  0  0  0  0
    4.2346    3.2610    1.0061 H   0  0  0  0  0  0  0  0  0  0  0  0
    2.9314    3.7318    2.1119 H   0  0  0  0  0  0  0  0  0  0  0  0
    2.4905    2.1429   -1.3115 H   0  0  0  0  0  0  0  0  0  0  0  0
    3.9340    1.3877   -0.6152 H   0  0  0  0  0  0  0  0  0  0  0  0
    2.4265    0.4804   -0.6968 H   0  0  0  0  0  0  0  0  0  0  0  0
   -2.1834    0.6446    0.0056 N   0  0  0  0  0  0  0  0  0  0  0  0
   -3.6239    0.7495    0.0569 C   0  0  2  0  0  0  0  0  0  0  0  0
   -3.9757    2.1126    0.6381 C   0  0  0  0  0  0  0  0  0  0  0  0
   -3.2027    2.7630    1.3385 O   0  0  0  0  0  0  0  0  0  0  0  0
   -4.2308   -0.3693    0.8891 C   0  0  0  0  0  0  0  0  0  0  0  0
   -1.7750    0.2041   -0.8135 H   0  0  0  0  0  0  0  0  0  0  0  0
   -3.9825    0.6889   -0.9764 H   0  0  0  0  0  0  0  0  0  0  0  0
   -3.8831   -0.3248    1.9277 H   0  0  0  0  0  0  0  0  0  0  0  0
   -5.3238   -0.3049    0.9035 H   0  0  0  0  0  0  0  0  0  0  0  0
   -3.9522   -1.3493    0.4870 H   0  0  0  0  0  0  0  0  0  0  0  0
   -5.2701    2.4979    0.3184 N   0  0  0  0  0  0  0  0  0  0  0  0
   -5.8443    3.7463    0.7632 C   0  0  0  0  0  0  0  0  0  0  0  0
   -5.8338    1.9048   -0.2834 H   0  0  0  0  0  0  0  0  0  0  0  0
   -6.3798    3.5872    1.7108 H   0  0  0  0  0  0  0  0  0  0  0  0
   -5.0433    4.4849    0.9144 H   0  0  0  0  0  0  0  0  0  0  0  0
   -6.5471    4.1180    0.0030 H   0  0  0  0  0  0  0  0  0  0  0  0
  1  3  1  0  0  0  0
  1  7  1  0  0  0  0
  1  2  2  0  0  0  0
 37 38  1  0  0  0  0
 38 46  1  0  0  0  0
 38 39  2  0  0  0  0
  8  9  1  0  0  0  0
  9 17  1  0  0  0  0
  9 10  2  0  0  0  0
 18 19  1  0  0  0  0
 19 36  1  0  0  0  0
 19 20  2  0  0  0  0
 37 40  1  0  0  0  0
  8 11  1  0  0  0  0
 22 23  1  0  0  0  0
 22 24  1  0  0  0  0
 46 47  1  0  0  0  0
 18 21  1  0  0  0  0
 21 22  1  0  0  0  0
 36 37  1  0  0  0  0
  7  8  1  0  0  0  0
 17 18  1  0  0  0  0
  3  4  1  0  0  0  0
  3  5  1  0  0  0  0
  3  6  1  0  0  0  0
 40 43  1  0  0  0  0
 40 44  1  0  0  0  0
 40 45  1  0  0  0  0
 11 14  1  0  0  0  0
 11 15  1  0  0  0  0
 11 16  1  0  0  0  0
 23 30  1  0  0  0  0
 23 31  1  0  0  0  0
 23 32  1  0  0  0  0
 24 33  1  0  0  0  0
 24 34  1  0  0  0  0
 24 35  1  0  0  0  0
 47 49  1  0  0  0  0
 47 50  1  0  0  0  0
 47 51  1  0  0  0  0
 21 27  1  0  0  0  0
 21 28  1  0  0  0  0
 37 42  1  0  0  0  0
  8 13  1  0  0  0  0
 18 26  1  0  0  0  0
 22 29  1  0  0  0  0
 46 48  1  0  0  0  0
  7 12  1  0  0  0  0
 36 41  1  0  0  0  0
 17 25  1  0  0  0  0
M  END
$$$$

  -OEChem-05262214473D

 51 50  0     1  0  0  0  0  0999 V2000
    3.4018   -1.2440   -3.0186 C   0  0  0  0  0  0  0  0  0  0  0  0
    3.2697   -2.0909   -2.1427 O   0  0  0  0  0  0  0  0  0  0  0  0
    4.6845   -1.1645   -3.7779 C   0  0  0  0  0  0  0  0  0  0  0  0
    5.4123   -0.4862   -3.3041 H   0  0  0  0  0  0  0  0  0  0  0  0
    5.1949   -2.1387   -3.8443 H   0  0  0  0  0  0  0  0  0  0  0  0
    4.5953   -0.8128   -4.8182 H   0  0  0  0  0  0  0  0  0  0  0  0
    2.4540   -0.3103   -3.4040 N   0  0  0  0  0  0  0  0  0  0  0  0
    1.1494   -0.2128   -2.8039 C   0  0  2  0  0  0  0  0  0  0  0  0
    1.3350    0.0367   -1.3130 C   0  0  0  0  0  0  0  0  0  0  0  0
    2.3625   -0.2586   -0.7063 O   0  0  0  0  0  0  0  0  0  0  0  0
    0.3331   -1.4728   -3.0467 C   0  0  0  0  0  0  0  0  0  0  0  0
    2.6924    0.3404   -4.1502 H   0  0  0  0  0  0  0  0  0  0  0  0
    0.6550    0.6514   -3.2607 H   0  0  0  0  0  0  0  0  0  0  0  0
    0.8129   -2.3494   -2.5963 H   0  0  0  0  0  0  0  0  0  0  0  0
   -0.6690   -1.3857   -2.6142 H   0  0  0  0  0  0  0  0  0  0  0  0
    0.2259   -1.6670   -4.1194 H   0  0  0  0  0  0  0  0  0  0  0  0
    0.2019    0.5893   -0.7269 N   0  0  0  0  0  0  0  0  0  0  0  0
    0.1242    0.9059    0.6756 C   0  0  2  0  0  0  0  0  0  0  0  0
   -1.3491    1.1247    1.0055 C   0  0  0  0  0  0  0  0  0  0  0  0
   -1.7322    1.9183    1.8627 O   0  0  0  0  0  0  0  0  0  0  0  0
    0.9393    2.1547    1.0349 C   0  0  0  0  0  0  0  0  0  0  0  0
    2.4646    2.0030    0.8639 C   0  0  0  0  0  0  0  0  0  0  0  0
    3.1480    3.3514    1.1078 C   0  0  0  0  0  0  0  0  0  0  0  0
    2.8463    1.4750   -0.5196 C   0  0  0  0  0  0  0  0  0  0  0  0
   -0.5975    0.8179   -1.3140 H   0  0  0  0  0  0  0  0  0  0  0  0
    0.4802    0.0266    1.2219 H   0  0  0  0  0  0  0  0  0  0  0  0
    0.7281    2.4278    2.0784 H   0  0  0  0  0  0  0  0  0  0  0  0
    0.5930    3.0023    0.4286 H   0  0  0  0  0  0  0  0  0  0  0  0
    2.8429    1.3003    1.6164 H   0  0  0  0  0  0  0  0  0  0  0  0
    2.8073    4.0974    0.3819 H   0  0  0  0  0  0  0  0  0  0  0  0
    4.2346    3.2610    1.0061 H   0  0  0  0  0  0  0  0  0  0  0  0
    2.9314    3.7318    2.1119 H   0  0  0  0  0  0  0  0  0  0  0  0
    2.4905    2.1429   -1.3115 H   0  0  0  0  0  0  0  0  0  0  0  0
    3.9340    1.3877   -0.6152 H   0  0  0  0  0  0  0  0  0  0  0  0
    2.4265    0.4804   -0.6968 H   0  0  0  0  0  0  0  0  0  0  0  0
   -2.1823    0.3669    0.1944 N   0  0  0  0  0  0  0  0  0  0  0  0
   -3.6243    0.4073    0.2818 C   0  0  2  0  0  0  0  0  0  0  0  0
   -4.0407    1.8528    0.5204 C   0  0  0  0  0  0  0  0  0  0  0  0
   -3.2879    2.6969    1.0019 O   0  0  0  0  0  0  0  0  0  0  0  0
   -4.1370   -0.4963    1.3923 C   0  0  0  0  0  0  0  0  0  0  0  0
   -1.7727   -0.2435   -0.5064 H   0  0  0  0  0  0  0  0  0  0  0  0
   -4.0094    0.0709   -0.6870 H   0  0  0  0  0  0  0  0  0  0  0  0
   -3.7616   -0.1749    2.3706 H   0  0  0  0  0  0  0  0  0  0  0  0
   -5.2310   -0.4866    1.4385 H   0  0  0  0  0  0  0  0  0  0  0  0
   -3.8116   -1.5303    1.2348 H   0  0  0  0  0  0  0  0  0  0  0  0
   -5.3651    2.0786    0.1724 N   0  0  0  0  0  0  0  0  0  0  0  0
   -6.0004    3.3676    0.3175 C   0  0  0  0  0  0  0  0  0  0  0  0
   -5.9095    1.3253   -0.2373 H   0  0  0  0  0  0  0  0  0  0  0  0
   -6.4966    3.4241    1.2976 H   0  0  0  0  0  0  0  0  0  0  0  0
   -5.2415    4.1605    0.2445 H   0  0  0  0  0  0  0  0  0  0  0  0
   -6.7469    3.5000   -0.4795 H   0  0  0  0  0  0  0  0  0  0  0  0
  1  3  1  0  0  0  0
  1  7  1  0  0  0  0
  1  2  2  0  0  0  0
 37 38  1  0  0  0  0
 38 46  1  0  0  0  0
 38 39  2  0  0  0  0
  8  9  1  0  0  0  0
  9 17  1  0  0  0  0
  9 10  2  0  0  0  0
 18 19  1  0  0  0  0
 19 36  1  0  0  0  0
 19 20  2  0  0  0  0
 37 40  1  0  0  0  0
  8 11  1  0  0  0  0
 22 23  1  0  0  0  0
 22 24  1  0  0  0  0
 46 47  1  0  0  0  0
 18 21  1  0  0  0  0
 21 22  1  0  0  0  0
 36 37  1  0  0  0  0
  7  8  1  0  0  0  0
 17 18  1  0  0  0  0
  3  4  1  0  0  0  0
  3  5  1  0  0  0  0
  3  6  1  0  0  0  0
 40 43  1  0  0  0  0
 40 44  1  0  0  0  0
 40 45  1  0  0  0  0
 11 14  1  0  0  0  0
 11 15  1  0  0  0  0
 11 16  1  0  0  0  0
 23 30  1  0  0  0  0
 23 31  1  0  0  0  0
 23 32  1  0  0  0  0
 24 33  1  0  0  0  0
 24 34  1  0  0  0  0
 24 35  1  0  0  0  0
 47 49  1  0  0  0  0
 47 50  1  0  0  0  0
 47 51  1  0  0  0  0
 21 27  1  0  0  0  0
 21 28  1  0  0  0  0
 37 42  1  0  0  0  0
  8 13  1  0  0  0  0
 18 26  1  0  0  0  0
 22 29  1  0  0  0  0
 46 48  1  0  0  0  0
  7 12  1  0  0  0  0
 36 41  1  0  0  0  0
 17 25  1  0  0  0  0
M  END
$$$$

  -OEChem-05262214473D

 51 50  0     1  0  0  0  0  0999 V2000
    3.4018   -1.2440   -3.0186 C   0  0  0  0  0  0  0  0  0  0  0  0
    3.2697   -2.0909   -2.1427 O   0  0  0  0  0  0  0  0  0  0  0  0
    4.6845   -1.1645   -3.7779 C   0  0  0  0  0  0  0  0  0  0  0  0
    5.4123   -0.4862   -3.3041 H   0  0  0  0  0  0  0  0  0  0  0  0
    5.1949   -2.1387   -3.8443 H   0  0  0  0  0  0  0  0  0  0  0  0
    4.5953   -0.8128   -4.8182 H   0  0  0  0  0  0  0  0  0  0  0  0
    2.4540   -0.3103   -3.4040 N   0  0  0  0  0  0  0  0  0  0  0  0
    1.1494   -0.2128   -2.8039 C   0  0  2  0  0  0  0  0  0  0  0  0
    1.3350    0.0367   -1.3130 C   0  0  0  0  0  0  0  0  0  0  0  0
    2.3625   -0.2586   -0.7063 O   0  0  0  0  0  0  0  0  0  0  0  0
    0.3331   -1.4728   -3.0467 C   0  0  0  0  0  0  0  0  0  0  0  0
    2.6924    0.3404   -4.1502 H   0  0  0  0  0  0  0  0  0  0  0  0
    0.6550    0.6514   -3.2607 H   0  0  0  0  0  0  0  0  0  0  0  0
    0.8129   -2.3494   -2.5963 H   0  0  0  0  0  0  0  0  0  0  0  0
   -0.6690   -1.3857   -2.6142 H   0  0  0  0  0  0  0  0  0  0  0  0
    0.2259   -1.6670   -4.1194 H   0  0  0  0  0  0  0  0  0  0  0  0
    0.2019    0.5893   -0.7269 N   0  0  0  0  0  0  0  0  0  0  0  0
    0.1242    0.9059    0.6756 C   0  0  2  0  0  0  0  0  0  0  0  0
   -1.3491    1.1247    1.0055 C   0  0  0  0  0  0  0  0  0  0  0  0
   -1.7538    2.0873    1.6543 O   0  0  0  0  0  0  0  0  0  0  0  0
    0.9393    2.1547    1.0349 C   0  0  0  0  0  0  0  0  0  0  0  0
    2.4646    2.0030    0.8639 C   0  0  0  0  0  0  0  0  0  0  0  0
    3.1480    3.3514    1.1078 C   0  0  0  0  0  0  0  0  0  0  0  0
    2.8463    1.4750   -0.5196 C   0  0  0  0  0  0  0  0  0  0  0  0
   -0.5975    0.8179   -1.3140 H   0  0  0  0  0  0  0  0  0  0  0  0
    0.4802    0.0266    1.2219 H   0  0  0  0  0  0  0  0  0  0  0  0
    0.7281    2.4278    2.0784 H   0  0  0  0  0  0  0  0  0  0  0  0
    0.5930    3.0023    0.4286 H   0  0  0  0  0  0  0  0  0  0  0  0
    2.8429    1.3003    1.6164 H   0  0  0  0  0  0  0  0  0  0  0  0
    2.8073    4.0974    0.3819 H   0  0  0  0  0  0  0  0  0  0  0  0
    4.2346    3.2610    1.0061 H   0  0  0  0  0  0  0  0  0  0  0  0
    2.9314    3.7318    2.1119 H   0  0  0  0  0  0  0  0  0  0  0  0
    2.4905    2.1429   -1.3115 H   0  0  0  0  0  0  0  0  0  0  0  0
    3.9340    1.3877   -0.6152 H   0  0  0  0  0  0  0  0  0  0  0  0
    2.4265    0.4804   -0.6968 H   0  0  0  0  0  0  0  0  0  0  0  0
   -2.1588    0.1459    0.4463 N   0  0  0  0  0  0  0  0  0  0  0  0
   -3.5973    0.1330    0.5845 C   0  0  2  0  0  0  0  0  0  0  0  0
   -4.0932    1.5687    0.4740 C   0  0  0  0  0  0  0  0  0  0  0  0
   -3.3790    2.5441    0.6965 O   0  0  0  0  0  0  0  0  0  0  0  0
   -4.0206   -0.4881    1.9065 C   0  0  0  0  0  0  0  0  0  0  0  0
   -1.7340   -0.5991   -0.0980 H   0  0  0  0  0  0  0  0  0  0  0  0
   -3.9901   -0.4551   -0.2521 H   0  0  0  0  0  0  0  0  0  0  0  0
   -3.6363    0.0875    2.7565 H   0  0  0  0  0  0  0  0  0  0  0  0
   -5.1113   -0.5231    1.9972 H   0  0  0  0  0  0  0  0  0  0  0  0
   -3.6379   -1.5104    1.9971 H   0  0  0  0  0  0  0  0  0  0  0  0
   -5.4388    1.6318    0.1398 N   0  0  0  0  0  0  0  0  0  0  0  0
   -6.1465    2.8816   -0.0126 C   0  0  0  0  0  0  0  0  0  0  0  0
   -5.9485    0.7729   -0.0451 H   0  0  0  0  0  0  0  0  0  0  0  0
   -6.6156    3.1568    0.9435 H   0  0  0  0  0  0  0  0  0  0  0  0
   -5.4397    3.6686   -0.3141 H   0  0  0  0  0  0  0  0  0  0  0  0
   -6.9233    2.7713   -0.7836 H   0  0  0  0  0  0  0  0  0  0  0  0
  1  3  1  0  0  0  0
  1  7  1  0  0  0  0
  1  2  2  0  0  0  0
 37 38  1  0  0  0  0
 38 46  1  0  0  0  0
 38 39  2  0  0  0  0
  8  9  1  0  0  0  0
  9 17  1  0  0  0  0
  9 10  2  0  0  0  0
 18 19  1  0  0  0  0
 19 36  1  0  0  0  0
 19 20  2  0  0  0  0
 37 40  1  0  0  0  0
  8 11  1  0  0  0  0
 22 23  1  0  0  0  0
 22 24  1  0  0  0  0
 46 47  1  0  0  0  0
 18 21  1  0  0  0  0
 21 22  1  0  0  0  0
 36 37  1  0  0  0  0
  7  8  1  0  0  0  0
 17 18  1  0  0  0  0
  3  4  1  0  0  0  0
  3  5  1  0  0  0  0
  3  6  1  0  0  0  0
 40 43  1  0  0  0  0
 40 44  1  0  0  0  0
 40 45  1  0  0  0  0
 11 14  1  0  0  0  0
 11 15  1  0  0  0  0
 11 16  1  0  0  0  0
 23 30  1  0  0  0  0
 23 31  1  0  0  0  0
 23 32  1  0  0  0  0
 24 33  1  0  0  0  0
 24 34  1  0  0  0  0
 24 35  1  0  0  0  0
 47 49  1  0  0  0  0
 47 50  1  0  0  0  0
 47 51  1  0  0  0  0
 21 27  1  0  0  0  0
 21 28  1  0  0  0  0
 37 42  1  0  0  0  0
  8 13  1  0  0  0  0
 18 26  1  0  0  0  0
 22 29  1  0  0  0  0
 46 48  1  0  0  0  0
  7 12  1  0  0  0  0
 36 41  1  0  0  0  0
 17 25  1  0  0  0  0
M  END
$$$$

  -OEChem-05262214473D

 51 50  0     1  0  0  0  0  0999 V2000
    3.4018   -1.2440   -3.0186 C   0  0  0  0  0  0  0  0  0  0  0  0
    3.2697   -2.0909   -2.1427 O   0  0  0  0  0  0  0  0  0  0  0  0
    4.6845   -1.1645   -3.7779 C   0  0  0  0  0  0  0  0  0  0  0  0
    5.4123   -0.4862   -3.3041 H   0  0  0  0  0  0  0  0  0  0  0  0
    5.1949   -2.1387   -3.8443 H   0  0  0  0  0  0  0  0  0  0  0  0
    4.5953   -0.8128   -4.8182 H   0  0  0  0  0  0  0  0  0  0  0  0
    2.4540   -0.3103   -3.4040 N   0  0  0  0  0  0  0  0  0  0  0  0
    1.1494   -0.2128   -2.8039 C   0  0  2  0  0  0  0  0  0  0  0  0
    1.3350    0.0367   -1.3130 C   0  0  0  0  0  0  0  0  0  0  0  0
    2.3625   -0.2586   -0.7063 O   0  0  0  0  0  0  0  0  0  0  0  0
    0.3331   -1.4728   -3.0467 C   0  0  0  0  0  0  0  0  0  0  0  0
    2.6924    0.3404   -4.1502 H   0  0  0  0  0  0  0  0  0  0  0  0
    0.6550    0.6514   -3.2607 H   0  0  0  0  0  0  0  0  0  0  0  0
    0.8129   -2.3494   -2.5963 H   0  0  0  0  0  0  0  0  0  0  0  0
   -0.6690   -1.3857   -2.6142 H   0  0  0  0  0  0  0  0  0  0  0  0
    0.2259   -1.6670   -4.1194 H   0  0  0  0  0  0  0  0  0  0  0  0
    0.2019    0.5893   -0.7269 N   0  0  0  0  0  0  0  0  0  0  0  0
    0.1242    0.9059    0.6756 C   0  0  2  0  0  0  0  0  0  0  0  0
   -1.3491    1.1247    1.0055 C   0  0  0  0  0  0  0  0  0  0  0  0
   -1.7918    2.1973    1.4115 O   0  0  0  0  0  0  0  0  0  0  0  0
    0.9393    2.1547    1.0349 C   0  0  0  0  0  0  0  0  0  0  0  0
    2.4646    2.0030    0.8639 C   0  0  0  0  0  0  0  0  0  0  0  0
    3.1480    3.3514    1.1078 C   0  0  0  0  0  0  0  0  0  0  0  0
    2.8463    1.4750   -0.5196 C   0  0  0  0  0  0  0  0  0  0  0  0
   -0.5975    0.8179   -1.3140 H   0  0  0  0  0  0  0  0  0  0  0  0
    0.4802    0.0266    1.2219 H   0  0  0  0  0  0  0  0  0  0  0  0
    0.7281    2.4278    2.0784 H   0  0  0  0  0  0  0  0  0  0  0  0
    0.5930    3.0023    0.4286 H   0  0  0  0  0  0  0  0  0  0  0  0
    2.8429    1.3003    1.6164 H   0  0  0  0  0  0  0  0  0  0  0  0
    2.8073    4.0974    0.3819 H   0  0  0  0  0  0  0  0  0  0  0  0
    4.2346    3.2610    1.0061 H   0  0  0  0  0  0  0  0  0  0  0  0
    2.9314    3.7318    2.1119 H   0  0  0  0  0  0  0  0  0  0  0  0
    2.4905    2.1429   -1.3115 H   0  0  0  0  0  0  0  0  0  0  0  0
    3.9340    1.3877   -0.6152 H   0  0  0  0  0  0  0  0  0  0  0  0
    2.4265    0.4804   -0.6968 H   0  0  0  0  0  0  0  0  0  0  0  0
   -2.1143   -0.0034    0.7439 N   0  0  0  0  0  0  0  0  0  0  0  0
   -3.5446   -0.0549    0.9445 C   0  0  2  0  0  0  0  0  0  0  0  0
   -4.1299    1.2798    0.5022 C   0  0  0  0  0  0  0  0  0  0  0  0
   -3.4698    2.3151    0.4431 O   0  0  0  0  0  0  0  0  0  0  0  0
   -3.8895   -0.3451    2.3969 C   0  0  0  0  0  0  0  0  0  0  0  0
   -1.6616   -0.8383    0.3839 H   0  0  0  0  0  0  0  0  0  0  0  0
   -3.9259   -0.8534    0.2988 H   0  0  0  0  0  0  0  0  0  0  0  0
   -3.5155    0.4444    3.0590 H   0  0  0  0  0  0  0  0  0  0  0  0
   -4.9729   -0.4121    2.5416 H   0  0  0  0  0  0  0  0  0  0  0  0
   -3.4429   -1.2909    2.7220 H   0  0  0  0  0  0  0  0  0  0  0  0
   -5.4862    1.1879    0.2226 N   0  0  0  0  0  0  0  0  0  0  0  0
   -6.2727    2.3214   -0.2045 C   0  0  0  0  0  0  0  0  0  0  0  0
   -5.9482    0.2851    0.2801 H   0  0  0  0  0  0  0  0  0  0  0  0
   -6.7287    2.8035    0.6728 H   0  0  0  0  0  0  0  0  0  0  0  0
   -5.6243    3.0428   -0.7235 H   0  0  0  0  0  0  0  0  0  0  0  0
   -7.0641    1.9815   -0.8887 H   0  0  0  0  0  0  0  0  0  0  0  0
  1  3  1  0  0  0  0
  1  7  1  0  0  0  0
  1  2  2  0  0  0  0
 37 38  1  0  0  0  0
 38 46  1  0  0  0  0
 38 39  2  0  0  0  0
  8  9  1  0  0  0  0
  9 17  1  0  0  0  0
  9 10  2  0  0  0  0
 18 19  1  0  0  0  0
 19 36  1  0  0  0  0
 19 20  2  0  0  0  0
 37 40  1  0  0  0  0
  8 11  1  0  0  0  0
 22 23  1  0  0  0  0
 22 24  1  0  0  0  0
 46 47  1  0  0  0  0
 18 21  1  0  0  0  0
 21 22  1  0  0  0  0
 36 37  1  0  0  0  0
  7  8  1  0  0  0  0
 17 18  1  0  0  0  0
  3  4  1  0  0  0  0
  3  5  1  0  0  0  0
  3  6  1  0  0  0  0
 40 43  1  0  0  0  0
 40 44  1  0  0  0  0
 40 45  1  0  0  0  0
 11 14  1  0  0  0  0
 11 15  1  0  0  0  0
 11 16  1  0  0  0  0
 23 30  1  0  0  0  0
 23 31  1  0  0  0  0
 23 32  1  0  0  0  0
 24 33  1  0  0  0  0
 24 34  1  0  0  0  0
 24 35  1  0  0  0  0
 47 49  1  0  0  0  0
 47 50  1  0  0  0  0
 47 51  1  0  0  0  0
 21 27  1  0  0  0  0
 21 28  1  0  0  0  0
 37 42  1  0  0  0  0
  8 13  1  0  0  0  0
 18 26  1  0  0  0  0
 22 29  1  0  0  0  0
 46 48  1  0  0  0  0
  7 12  1  0  0  0  0
 36 41  1  0  0  0  0
 17 25  1  0  0  0  0
M  END
$$$$

  -OEChem-05262214473D

 51 50  0     1  0  0  0  0  0999 V2000
    3.4018   -1.2440   -3.0186 C   0  0  0  0  0  0  0  0  0  0  0  0
    3.2697   -2.0909   -2.1427 O   0  0  0  0  0  0  0  0  0  0  0  0
    4.6845   -1.1645   -3.7779 C   0  0  0  0  0  0  0  0  0  0  0  0
    5.4123   -0.4862   -3.3041 H   0  0  0  0  0  0  0  0  0  0  0  0
    5.1949   -2.1387   -3.8443 H   0  0  0  0  0  0  0  0  0  0  0  0
    4.5953   -0.8128   -4.8182 H   0  0  0  0  0  0  0  0  0  0  0  0
    2.4540   -0.3103   -3.4040 N   0  0  0  0  0  0  0  0  0  0  0  0
    1.1494   -0.2128   -2.8039 C   0  0  2  0  0  0  0  0  0  0  0  0
    1.3350    0.0367   -1.3130 C   0  0  0  0  0  0  0  0  0  0  0  0
    2.3625   -0.2586   -0.7063 O   0  0  0  0  0  0  0  0  0  0  0  0
    0.3331   -1.4728   -3.0467 C   0  0  0  0  0  0  0  0  0  0  0  0
    2.6924    0.3404   -4.1502 H   0  0  0  0  0  0  0  0  0  0  0  0
    0.6550    0.6514   -3.2607 H   0  0  0  0  0  0  0  0  0  0  0  0
    0.8129   -2.3494   -2.5963 H   0  0  0  0  0  0  0  0  0  0  0  0
   -0.6690   -1.3857   -2.6142 H   0  0  0  0  0  0  0  0  0  0  0  0
    0.2259   -1.6670   -4.1194 H   0  0  0  0  0  0  0  0  0  0  0  0
    0.2019    0.5893   -0.7269 N   0  0  0  0  0  0  0  0  0  0  0  0
    0.1242    0.9059    0.6756 C   0  0  2  0  0  0  0  0  0  0  0  0
   -1.3491    1.1247    1.0055 C   0  0  0  0  0  0  0  0  0  0  0  0
   -1.8437    2.2407    1.1510 O   0  0  0  0  0  0  0  0  0  0  0  0
    0.9393    2.1547    1.0349 C   0  0  0  0  0  0  0  0  0  0  0  0
    2.4646    2.0030    0.8639 C   0  0  0  0  0  0  0  0  0  0  0  0
    3.1480    3.3514    1.1078 C   0  0  0  0  0  0  0  0  0  0  0  0
    2.8463    1.4750   -0.5196 C   0  0  0  0  0  0  0  0  0  0  0  0
   -0.5975    0.8179   -1.3140 H   0  0  0  0  0  0  0  0  0  0  0  0
    0.4802    0.0266    1.2219 H   0  0  0  0  0  0  0  0  0  0  0  0
    0.7281    2.4278    2.0784 H   0  0  0  0  0  0  0  0  0  0  0  0
    0.5930    3.0023    0.4286 H   0  0  0  0  0  0  0  0  0  0  0  0
    2.8429    1.3003    1.6164 H   0  0  0  0  0  0  0  0  0  0  0  0
    2.8073    4.0974    0.3819 H   0  0  0  0  0  0  0  0  0  0  0  0
    4.2346    3.2610    1.0061 H   0  0  0  0  0  0  0  0  0  0  0  0
    2.9314    3.7318    2.1119 H   0  0  0  0  0  0  0  0  0  0  0  0
    2.4905    2.1429   -1.3115 H   0  0  0  0  0  0  0  0  0  0  0  0
    3.9340    1.3877   -0.6152 H   0  0  0  0  0  0  0  0  0  0  0  0
    2.4265    0.4804   -0.6968 H   0  0  0  0  0  0  0  0  0  0  0  0
   -2.0519   -0.0706    1.0670 N   0  0  0  0  0  0  0  0  0  0  0  0
   -3.4698   -0.1434    1.3372 C   0  0  2  0  0  0  0  0  0  0  0  0
   -4.1480    1.0057    0.6029 C   0  0  0  0  0  0  0  0  0  0  0  0
   -3.5540    2.0255    0.2589 O   0  0  0  0  0  0  0  0  0  0  0  0
   -3.7527   -0.0770    2.8299 C   0  0  0  0  0  0  0  0  0  0  0  0
   -1.5604   -0.9449    0.9065 H   0  0  0  0  0  0  0  0  0  0  0  0
   -3.8211   -1.0969    0.9281 H   0  0  0  0  0  0  0  0  0  0  0  0
   -3.4076    0.8714    3.2575 H   0  0  0  0  0  0  0  0  0  0  0  0
   -4.8252   -0.1610    3.0345 H   0  0  0  0  0  0  0  0  0  0  0  0
   -3.2400   -0.8867    3.3602 H   0  0  0  0  0  0  0  0  0  0  0  0
   -5.5040    0.7772    0.4153 N   0  0  0  0  0  0  0  0  0  0  0  0
   -6.3703    1.7254   -0.2453 C   0  0  0  0  0  0  0  0  0  0  0  0
   -5.9084   -0.1047    0.7161 H   0  0  0  0  0  0  0  0  0  0  0  0
   -6.8282    2.3882    0.5038 H   0  0  0  0  0  0  0  0  0  0  0  0
   -5.7828    2.3256   -0.9555 H   0  0  0  0  0  0  0  0  0  0  0  0
   -7.1599    1.1845   -0.7876 H   0  0  0  0  0  0  0  0  0  0  0  0
  1  3  1  0  0  0  0
  1  7  1  0  0  0  0
  1  2  2  0  0  0  0
 37 38  1  0  0  0  0
 38 46  1  0  0  0  0
 38 39  2  0  0  0  0
  8  9  1  0  0  0  0
  9 17  1  0  0  0  0
  9 10  2  0  0  0  0
 18 19  1  0  0  0  0
 19 36  1  0  0  0  0
 19 20  2  0  0  0  0
 37 40  1  0  0  0  0
  8 11  1  0  0  0  0
 22 23  1  0  0  0  0
 22 24  1  0  0  0  0
 46 47  1  0  0  0  0
 18 21  1  0  0  0  0
 21 22  1  0  0  0  0
 36 37  1  0  0  0  0
  7  8  1  0  0  0  0
 17 18  1  0  0  0  0
  3  4  1  0  0  0  0
  3  5  1  0  0  0  0
  3  6  1  0  0  0  0
 40 43  1  0  0  0  0
 40 44  1  0  0  0  0
 40 45  1  0  0  0  0
 11 14  1  0  0  0  0
 11 15  1  0  0  0  0
 11 16  1  0  0  0  0
 23 30  1  0  0  0  0
 23 31  1  0  0  0  0
 23 32  1  0  0  0  0
 24 33  1  0  0  0  0
 24 34  1  0  0  0  0
 24 35  1  0  0  0  0
 47 49  1  0  0  0  0
 47 50  1  0  0  0  0
 47 51  1  0  0  0  0
 21 27  1  0  0  0  0
 21 28  1  0  0  0  0
 37 42  1  0  0  0  0
  8 13  1  0  0  0  0
 18 26  1  0  0  0  0
 22 29  1  0  0  0  0
 46 48  1  0  0  0  0
  7 12  1  0  0  0  0
 36 41  1  0  0  0  0
 17 25  1  0  0  0  0
M  END
$$$$

  -OEChem-05262214473D

 51 50  0     1  0  0  0  0  0999 V2000
    3.4018   -1.2440   -3.0186 C   0  0  0  0  0  0  0  0  0  0  0  0
    3.2697   -2.0909   -2.1427 O   0  0  0  0  0  0  0  0  0  0  0  0
    4.6845   -1.1645   -3.7779 C   0  0  0  0  0  0  0  0  0  0  0  0
    5.4123   -0.4862   -3.3041 H   0  0  0  0  0  0  0  0  0  0  0  0
    5.1949   -2.1387   -3.8443 H   0  0  0  0  0  0  0  0  0  0  0  0
    4.5953   -0.8128   -4.8182 H   0  0  0  0  0  0  0  0  0  0  0  0
    2.4540   -0.3103   -3.4040 N   0  0  0  0  0  0  0  0  0  0  0  0
    1.1494   -0.2128   -2.8039 C   0  0  2  0  0  0  0  0  0  0  0  0
    1.3350    0.0367   -1.3130 C   0  0  0  0  0  0  0  0  0  0  0  0
    2.3625   -0.2586   -0.7063 O   0  0  0  0  0  0  0  0  0  0  0  0
    0.3331   -1.4728   -3.0467 C   0  0  0  0  0  0  0  0  0  0  0  0
    2.6924    0.3404   -4.1502 H   0  0  0  0  0  0  0  0  0  0  0  0
    0.6550    0.6514   -3.2607 H   0  0  0  0  0  0  0  0  0  0  0  0
    0.8129   -2.3494   -2.5963 H   0  0  0  0  0  0  0  0  0  0  0  0
   -0.6690   -1.3857   -2.6142 H   0  0  0  0  0  0  0  0  0  0  0  0
    0.2259   -1.6670   -4.1194 H   0  0  0  0  0  0  0  0  0  0  0  0
    0.2019    0.5893   -0.7269 N   0  0  0  0  0  0  0  0  0  0  0  0
    0.1242    0.9059    0.6756 C   0  0  2  0  0  0  0  0  0  0  0  0
   -1.3491    1.1247    1.0055 C   0  0  0  0  0  0  0  0  0  0  0  0
   -1.9059    2.2146    0.8904 O   0  0  0  0  0  0  0  0  0  0  0  0
    0.9393    2.1547    1.0349 C   0  0  0  0  0  0  0  0  0  0  0  0
    2.4646    2.0030    0.8639 C   0  0  0  0  0  0  0  0  0  0  0  0
    3.1480    3.3514    1.1078 C   0  0  0  0  0  0  0  0  0  0  0  0
    2.8463    1.4750   -0.5196 C   0  0  0  0  0  0  0  0  0  0  0  0
   -0.5975    0.8179   -1.3140 H   0  0  0  0  0  0  0  0  0  0  0  0
    0.4802    0.0266    1.2219 H   0  0  0  0  0  0  0  0  0  0  0  0
    0.7281    2.4278    2.0784 H   0  0  0  0  0  0  0  0  0  0  0  0
    0.5930    3.0023    0.4286 H   0  0  0  0  0  0  0  0  0  0  0  0
    2.8429    1.3003    1.6164 H   0  0  0  0  0  0  0  0  0  0  0  0
    2.8073    4.0974    0.3819 H   0  0  0  0  0  0  0  0  0  0  0  0
    4.2346    3.2610    1.0061 H   0  0  0  0  0  0  0  0  0  0  0  0
    2.9314    3.7318    2.1119 H   0  0  0  0  0  0  0  0  0  0  0  0
    2.4905    2.1429   -1.3115 H   0  0  0  0  0  0  0  0  0  0  0  0
    3.9340    1.3877   -0.6152 H   0  0  0  0  0  0  0  0  0  0  0  0
    2.4265    0.4804   -0.6968 H   0  0  0  0  0  0  0  0  0  0  0  0
   -1.9759   -0.0513    1.3936 N   0  0  0  0  0  0  0  0  0  0  0  0
   -3.3780   -0.1265    1.7358 C   0  0  2  0  0  0  0  0  0  0  0  0
   -4.1464    0.7652    0.7695 C   0  0  0  0  0  0  0  0  0  0  0  0
   -3.6261    1.6950    0.1565 O   0  0  0  0  0  0  0  0  0  0  0  0
   -3.6195    0.2978    3.1761 C   0  0  0  0  0  0  0  0  0  0  0  0
   -1.4373   -0.9115    1.4342 H   0  0  0  0  0  0  0  0  0  0  0  0
   -3.6829   -1.1689    1.5930 H   0  0  0  0  0  0  0  0  0  0  0  0
   -3.3199    1.3396    3.3384 H   0  0  0  0  0  0  0  0  0  0  0  0
   -4.6783    0.2130    3.4424 H   0  0  0  0  0  0  0  0  0  0  0  0
   -3.0429   -0.3255    3.8680 H   0  0  0  0  0  0  0  0  0  0  0  0
   -5.4911    0.4277    0.7048 N   0  0  0  0  0  0  0  0  0  0  0  0
   -6.4328    1.1340   -0.1320 C   0  0  0  0  0  0  0  0  0  0  0  0
   -5.8320   -0.3700    1.2332 H   0  0  0  0  0  0  0  0  0  0  0  0
   -6.9074    1.9392    0.4480 H   0  0  0  0  0  0  0  0  0  0  0  0
   -5.9044    1.5660   -0.9946 H   0  0  0  0  0  0  0  0  0  0  0  0
   -7.2040    0.4345   -0.4871 H   0  0  0  0  0  0  0  0  0  0  0  0
  1  3  1  0  0  0  0
  1  7  1  0  0  0  0
  1  2  2  0  0  0  0
 37 38  1  0  0  0  0
 38 46  1  0  0  0  0
 38 39  2  0  0  0  0
  8  9  1  0  0  0  0
  9 17  1  0  0  0  0
  9 10  2  0  0  0  0
 18 19  1  0  0  0  0
 19 36  1  0  0  0  0
 19 20  2  0  0  0  0
 37 40  1  0  0  0  0
  8 11  1  0  0  0  0
 22 23  1  0  0  0  0
 22 24  1  0  0  0  0
 46 47  1  0  0  0  0
 18 21  1  0  0  0  0
 21 22  1  0  0  0  0
 36 37  1  0  0  0  0
  7  8  1  0  0  0  0
 17 18  1  0  0  0  0
  3  4  1  0  0  0  0
  3  5  1  0  0  0  0
  3  6  1  0  0  0  0
 40 43  1  0  0  0  0
 40 44  1  0  0  0  0
 40 45  1  0  0  0  0
 11 14  1  0  0  0  0
 11 15  1  0  0  0  0
 11 16  1  0  0  0  0
 23 30  1  0  0  0  0
 23 31  1  0  0  0  0
 23 32  1  0  0  0  0
 24 33  1  0  0  0  0
 24 34  1  0  0  0  0
 24 35  1  0  0  0  0
 47 49  1  0  0  0  0
 47 50  1  0  0  0  0
 47 51  1  0  0  0  0
 21 27  1  0  0  0  0
 21 28  1  0  0  0  0
 37 42  1  0  0  0  0
  8 13  1  0  0  0  0
 18 26  1  0  0  0  0
 22 29  1  0  0  0  0
 46 48  1  0  0  0  0
  7 12  1  0  0  0  0
 36 41  1  0  0  0  0
 17 25  1  0  0  0  0
M  END
$$$$

  -OEChem-05262214473D

 51 50  0     1  0  0  0  0  0999 V2000
    3.4018   -1.2440   -3.0186 C   0  0  0  0  0  0  0  0  0  0  0  0
    3.2697   -2.0909   -2.1427 O   0  0  0  0  0  0  0  0  0  0  0  0
    4.6845   -1.1645   -3.7779 C   0  0  0  0  0  0  0  0  0  0  0  0
    5.4123   -0.4862   -3.3041 H   0  0  0  0  0  0  0  0  0  0  0  0
    5.1949   -2.1387   -3.8443 H   0  0  0  0  0  0  0  0  0  0  0  0
    4.5953   -0.8128   -4.8182 H   0  0  0  0  0  0  0  0  0  0  0  0
    2.4540   -0.3103   -3.4040 N   0  0  0  0  0  0  0  0  0  0  0  0
    1.1494   -0.2128   -2.8039 C   0  0  2  0  0  0  0  0  0  0  0  0
    1.3350    0.0367   -1.3130 C   0  0  0  0  0  0  0  0  0  0  0  0
    2.3625   -0.2586   -0.7063 O   0  0  0  0  0  0  0  0  0  0  0  0
    0.3331   -1.4728   -3.0467 C   0  0  0  0  0  0  0  0  0  0  0  0
    2.6924    0.3404   -4.1502 H   0  0  0  0  0  0  0  0  0  0  0  0
    0.6550    0.6514   -3.2607 H   0  0  0  0  0  0  0  0  0  0  0  0
    0.8129   -2.3494   -2.5963 H   0  0  0  0  0  0  0  0  0  0  0  0
   -0.6690   -1.3857   -2.6142 H   0  0  0  0  0  0  0  0  0  0  0  0
    0.2259   -1.6670   -4.1194 H   0  0  0  0  0  0  0  0  0  0  0  0
    0.2019    0.5893   -0.7269 N   0  0  0  0  0  0  0  0  0  0  0  0
    0.1242    0.9059    0.6756 C   0  0  2  0  0  0  0  0  0  0  0  0
   -1.3491    1.1247    1.0055 C   0  0  0  0  0  0  0  0  0  0  0  0
   -1.9743    2.1207    0.6475 O   0  0  0  0  0  0  0  0  0  0  0  0
    0.9393    2.1547    1.0349 C   0  0  0  0  0  0  0  0  0  0  0  0
    2.4646    2.0030    0.8639 C   0  0  0  0  0  0  0  0  0  0  0  0
    3.1480    3.3514    1.1078 C   0  0  0  0  0  0  0  0  0  0  0  0
    2.8463    1.4750   -0.5196 C   0  0  0  0  0  0  0  0  0  0  0  0
   -0.5975    0.8179   -1.3140 H   0  0  0  0  0  0  0  0  0  0  0  0
    0.4802    0.0266    1.2219 H   0  0  0  0  0  0  0  0  0  0  0  0
    0.7281    2.4278    2.0784 H   0  0  0  0  0  0  0  0  0  0  0  0
    0.5930    3.0023    0.4286 H   0  0  0  0  0  0  0  0  0  0  0  0
    2.8429    1.3003    1.6164 H   0  0  0  0  0  0  0  0  0  0  0  0
    2.8073    4.0974    0.3819 H   0  0  0  0  0  0  0  0  0  0  0  0
    4.2346    3.2610    1.0061 H   0  0  0  0  0  0  0  0  0  0  0  0
    2.9314    3.7318    2.1119 H   0  0  0  0  0  0  0  0  0  0  0  0
    2.4905    2.1429   -1.3115 H   0  0  0  0  0  0  0  0  0  0  0  0
    3.9340    1.3877   -0.6152 H   0  0  0  0  0  0  0  0  0  0  0  0
    2.4265    0.4804   -0.6968 H   0  0  0  0  0  0  0  0  0  0  0  0
   -1.8914    0.0532    1.7014 N   0  0  0  0  0  0  0  0  0  0  0  0
   -3.2754   -0.0055    2.1133 C   0  0  2  0  0  0  0  0  0  0  0  0
   -4.1253    0.5745    0.9904 C   0  0  0  0  0  0  0  0  0  0  0  0
   -3.6809    1.3461    0.1429 O   0  0  0  0  0  0  0  0  0  0  0  0
   -3.4990    0.7538    3.4118 C   0  0  0  0  0  0  0  0  0  0  0  0
   -1.3006   -0.7405    1.9310 H   0  0  0  0  0  0  0  0  0  0  0  0
   -3.5207   -1.0646    2.2480 H   0  0  0  0  0  0  0  0  0  0  0  0
   -3.2585    1.8170    3.2964 H   0  0  0  0  0  0  0  0  0  0  0  0
   -4.5422    0.6845    3.7375 H   0  0  0  0  0  0  0  0  0  0  0  0
   -2.8650    0.3545    4.2109 H   0  0  0  0  0  0  0  0  0  0  0  0
   -5.4483    0.1631    1.0713 N   0  0  0  0  0  0  0  0  0  0  0  0
   -6.4558    0.5875    0.1276 C   0  0  0  0  0  0  0  0  0  0  0  0
   -5.7241   -0.4928    1.7962 H   0  0  0  0  0  0  0  0  0  0  0  0
   -6.9608    1.4871    0.5093 H   0  0  0  0  0  0  0  0  0  0  0  0
   -5.9808    0.8157   -0.8379 H   0  0  0  0  0  0  0  0  0  0  0  0
   -7.1934   -0.2172   -0.0078 H   0  0  0  0  0  0  0  0  0  0  0  0
  1  3  1  0  0  0  0
  1  7  1  0  0  0  0
  1  2  2  0  0  0  0
 37 38  1  0  0  0  0
 38 46  1  0  0  0  0
 38 39  2  0  0  0  0
  8  9  1  0  0  0  0
  9 17  1  0  0  0  0
  9 10  2  0  0  0  0
 18 19  1  0  0  0  0
 19 36  1  0  0  0  0
 19 20  2  0  0  0  0
 37 40  1  0  0  0  0
  8 11  1  0  0  0  0
 22 23  1  0  0  0  0
 22 24  1  0  0  0  0
 46 47  1  0  0  0  0
 18 21  1  0  0  0  0
 21 22  1  0  0  0  0
 36 37  1  0  0  0  0
  7  8  1  0  0  0  0
 17 18  1  0  0  0  0
  3  4  1  0  0  0  0
  3  5  1  0  0  0  0
  3  6  1  0  0  0  0
 40 43  1  0  0  0  0
 40 44  1  0  0  0  0
 40 45  1  0  0  0  0
 11 14  1  0  0  0  0
 11 15  1  0  0  0  0
 11 16  1  0  0  0  0
 23 30  1  0  0  0  0
 23 31  1  0  0  0  0
 23 32  1  0  0  0  0
 24 33  1  0  0  0  0
 24 34  1  0  0  0  0
 24 35  1  0  0  0  0
 47 49  1  0  0  0  0
 47 50  1  0  0  0  0
 47 51  1  0  0  0  0
 21 27  1  0  0  0  0
 21 28  1  0  0  0  0
 37 42  1  0  0  0  0
  8 13  1  0  0  0  0
 18 26  1  0  0  0  0
 22 29  1  0  0  0  0
 46 48  1  0  0  0  0
  7 12  1  0  0  0  0
 36 41  1  0  0  0  0
 17 25  1  0  0  0  0
M  END
$$$$

  -OEChem-05262214473D

 51 50  0     1  0  0  0  0  0999 V2000
    3.4018   -1.2440   -3.0186 C   0  0  0  0  0  0  0  0  0  0  0  0
    3.2697   -2.0909   -2.1427 O   0  0  0  0  0  0  0  0  0  0  0  0
    4.6845   -1.1645   -3.7779 C   0  0  0  0  0  0  0  0  0  0  0  0
    5.4123   -0.4862   -3.3041 H   0  0  0  0  0  0  0  0  0  0  0  0
    5.1949   -2.1387   -3.8443 H   0  0  0  0  0  0  0  0  0  0  0  0
    4.5953   -0.8128   -4.8182 H   0  0  0  0  0  0  0  0  0  0  0  0
    2.4540   -0.3103   -3.4040 N   0  0  0  0  0  0  0  0  0  0  0  0
    1.1494   -0.2128   -2.8039 C   0  0  2  0  0  0  0  0  0  0  0  0
    1.3350    0.0367   -1.3130 C   0  0  0  0  0  0  0  0  0  0  0  0
    2.3625   -0.2586   -0.7063 O   0  0  0  0  0  0  0  0  0  0  0  0
    0.3331   -1.4728   -3.0467 C   0  0  0  0  0  0  0  0  0  0  0  0
    2.6924    0.3404   -4.1502 H   0  0  0  0  0  0  0  0  0  0  0  0
    0.6550    0.6514   -3.2607 H   0  0  0  0  0  0  0  0  0  0  0  0
    0.8129   -2.3494   -2.5963 H   0  0  0  0  0  0  0  0  0  0  0  0
   -0.6690   -1.3857   -2.6142 H   0  0  0  0  0  0  0  0  0  0  0  0
    0.2259   -1.6670   -4.1194 H   0  0  0  0  0  0  0  0  0  0  0  0
    0.2019    0.5893   -0.7269 N   0  0  0  0  0  0  0  0  0  0  0  0
    0.1242    0.9059    0.6756 C   0  0  2  0  0  0  0  0  0  0  0  0
   -1.3491    1.1247    1.0055 C   0  0  0  0  0  0  0  0  0  0  0  0
   -2.0441    1.9656    0.4389 O   0  0  0  0  0  0  0  0  0  0  0  0
    0.9393    2.1547    1.0349 C   0  0  0  0  0  0  0  0  0  0  0  0
    2.4646    2.0030    0.8639 C   0  0  0  0  0  0  0  0  0  0  0  0
    3.1480    3.3514    1.1078 C   0  0  0  0  0  0  0  0  0  0  0  0
    2.8463    1.4750   -0.5196 C   0  0  0  0  0  0  0  0  0  0  0  0
   -0.5975    0.8179   -1.3140 H   0  0  0  0  0  0  0  0  0  0  0  0
    0.4802    0.0266    1.2219 H   0  0  0  0  0  0  0  0  0  0  0  0
    0.7281    2.4278    2.0784 H   0  0  0  0  0  0  0  0  0  0  0  0
    0.5930    3.0023    0.4286 H   0  0  0  0  0  0  0  0  0  0  0  0
    2.8429    1.3003    1.6164 H   0  0  0  0  0  0  0  0  0  0  0  0
    2.8073    4.0974    0.3819 H   0  0  0  0  0  0  0  0  0  0  0  0
    4.2346    3.2610    1.0061 H   0  0  0  0  0  0  0  0  0  0  0  0
    2.9314    3.7318    2.1119 H   0  0  0  0  0  0  0  0  0  0  0  0
    2.4905    2.1429   -1.3115 H   0  0  0  0  0  0  0  0  0  0  0  0
    3.9340    1.3877   -0.6152 H   0  0  0  0  0  0  0  0  0  0  0  0
    2.4265    0.4804   -0.6968 H   0  0  0  0  0  0  0  0  0  0  0  0
   -1.8042    0.2358    1.9695 N   0  0  0  0  0  0  0  0  0  0  0  0
   -3.1692    0.2116    2.4438 C   0  0  2  0  0  0  0  0  0  0  0  0
   -4.0859    0.4468    1.2506 C   0  0  0  0  0  0  0  0  0  0  0  0
   -3.7149    1.0026    0.2190 O   0  0  0  0  0  0  0  0  0  0  0  0
   -3.3993    1.2600    3.5211 C   0  0  0  0  0  0  0  0  0  0  0  0
   -1.1597   -0.4434    2.3630 H   0  0  0  0  0  0  0  0  0  0  0  0
   -3.3455   -0.7910    2.8486 H   0  0  0  0  0  0  0  0  0  0  0  0
   -3.2273    2.2710    3.1342 H   0  0  0  0  0  0  0  0  0  0  0  0
   -4.4261    1.2212    3.8996 H   0  0  0  0  0  0  0  0  0  0  0  0
   -2.7186    1.1071    4.3655 H   0  0  0  0  0  0  0  0  0  0  0  0
   -5.3785    0.0016    1.4899 N   0  0  0  0  0  0  0  0  0  0  0  0
   -6.4379    0.1233    0.5157 C   0  0  0  0  0  0  0  0  0  0  0  0
   -5.5922   -0.4646    2.3667 H   0  0  0  0  0  0  0  0  0  0  0  0
   -6.9848    1.0628    0.6835 H   0  0  0  0  0  0  0  0  0  0  0  0
   -6.0067    0.1259   -0.4962 H   0  0  0  0  0  0  0  0  0  0  0  0
   -7.1289   -0.7264    0.6177 H   0  0  0  0  0  0  0  0  0  0  0  0
  1  3  1  0  0  0  0
  1  7  1  0  0  0  0
  1  2  2  0  0  0  0
 37 38  1  0  0  0  0
 38 46  1  0  0  0  0
 38 39  2  0  0  0  0
  8  9  1  0  0  0  0
  9 17  1  0  0  0  0
  9 10  2  0  0  0  0
 18 19  1  0  0  0  0
 19 36  1  0  0  0  0
 19 20  2  0  0  0  0
 37 40  1  0  0  0  0
  8 11  1  0  0  0  0
 22 23  1  0  0  0  0
 22 24  1  0  0  0  0
 46 47  1  0  0  0  0
 18 21  1  0  0  0  0
 21 22  1  0  0  0  0
 36 37  1  0  0  0  0
  7  8  1  0  0  0  0
 17 18  1  0  0  0  0
  3  4  1  0  0  0  0
  3  5  1  0  0  0  0
  3  6  1  0  0  0  0
 40 43  1  0  0  0  0
 40 44  1  0  0  0  0
 40 45  1  0  0  0  0
 11 14  1  0  0  0  0
 11 15  1  0  0  0  0
 11 16  1  0  0  0  0
 23 30  1  0  0  0  0
 23 31  1  0  0  0  0
 23 32  1  0  0  0  0
 24 33  1  0  0  0  0
 24 34  1  0  0  0  0
 24 35  1  0  0  0  0
 47 49  1  0  0  0  0
 47 50  1  0  0  0  0
 47 51  1  0  0  0  0
 21 27  1  0  0  0  0
 21 28  1  0  0  0  0
 37 42  1  0  0  0  0
  8 13  1  0  0  0  0
 18 26  1  0  0  0  0
 22 29  1  0  0  0  0
 46 48  1  0  0  0  0
  7 12  1  0  0  0  0
 36 41  1  0  0  0  0
 17 25  1  0  0  0  0
M  END
$$$$

  -OEChem-05262214473D

 51 50  0     1  0  0  0  0  0999 V2000
    3.4018   -1.2440   -3.0186 C   0  0  0  0  0  0  0  0  0  0  0  0
    3.2697   -2.0909   -2.1427 O   0  0  0  0  0  0  0  0  0  0  0  0
    4.6845   -1.1645   -3.7779 C   0  0  0  0  0  0  0  0  0  0  0  0
    5.4123   -0.4862   -3.3041 H   0  0  0  0  0  0  0  0  0  0  0  0
    5.1949   -2.1387   -3.8443 H   0  0  0  0  0  0  0  0  0  0  0  0
    4.5953   -0.8128   -4.8182 H   0  0  0  0  0  0  0  0  0  0  0  0
    2.4540   -0.3103   -3.4040 N   0  0  0  0  0  0  0  0  0  0  0  0
    1.1494   -0.2128   -2.8039 C   0  0  2  0  0  0  0  0  0  0  0  0
    1.3350    0.0367   -1.3130 C   0  0  0  0  0  0  0  0  0  0  0  0
    2.3625   -0.2586   -0.7063 O   0  0  0  0  0  0  0  0  0  0  0  0
    0.3331   -1.4728   -3.0467 C   0  0  0  0  0  0  0  0  0  0  0  0
    2.6924    0.3404   -4.1502 H   0  0  0  0  0  0  0  0  0  0  0  0
    0.6550    0.6514   -3.2607 H   0  0  0  0  0  0  0  0  0  0  0  0
    0.8129   -2.3494   -2.5963 H   0  0  0  0  0  0  0  0  0  0  0  0
   -0.6690   -1.3857   -2.6142 H   0  0  0  0  0  0  0  0  0  0  0  0
    0.2259   -1.6670   -4.1194 H   0  0  0  0  0  0  0  0  0  0  0  0
    0.2019    0.5893   -0.7269 N   0  0  0  0  0  0  0  0  0  0  0  0
    0.1242    0.9059    0.6756 C   0  0  2  0  0  0  0  0  0  0  0  0
   -1.3491    1.1247    1.0055 C   0  0  0  0  0  0  0  0  0  0  0  0
   -2.1105    1.7597    0.2787 O   0  0  0  0  0  0  0  0  0  0  0  0
    0.9393    2.1547    1.0349 C   0  0  0  0  0  0  0  0  0  0  0  0
    2.4646    2.0030    0.8639 C   0  0  0  0  0  0  0  0  0  0  0  0
    3.1480    3.3514    1.1078 C   0  0  0  0  0  0  0  0  0  0  0  0
    2.8463    1.4750   -0.5196 C   0  0  0  0  0  0  0  0  0  0  0  0
   -0.5975    0.8179   -1.3140 H   0  0  0  0  0  0  0  0  0  0  0  0
    0.4802    0.0266    1.2219 H   0  0  0  0  0  0  0  0  0  0  0  0
    0.7281    2.4278    2.0784 H   0  0  0  0  0  0  0  0  0  0  0  0
    0.5930    3.0023    0.4286 H   0  0  0  0  0  0  0  0  0  0  0  0
    2.8429    1.3003    1.6164 H   0  0  0  0  0  0  0  0  0  0  0  0
    2.8073    4.0974    0.3819 H   0  0  0  0  0  0  0  0  0  0  0  0
    4.2346    3.2610    1.0061 H   0  0  0  0  0  0  0  0  0  0  0  0
    2.9314    3.7318    2.1119 H   0  0  0  0  0  0  0  0  0  0  0  0
    2.4905    2.1429   -1.3115 H   0  0  0  0  0  0  0  0  0  0  0  0
    3.9340    1.3877   -0.6152 H   0  0  0  0  0  0  0  0  0  0  0  0
    2.4265    0.4804   -0.6968 H   0  0  0  0  0  0  0  0  0  0  0  0
   -1.7203    0.4841    2.1796 N   0  0  0  0  0  0  0  0  0  0  0  0
   -3.0664    0.5098    2.7049 C   0  0  2  0  0  0  0  0  0  0  0  0
   -4.0312    0.3906    1.5325 C   0  0  0  0  0  0  0  0  0  0  0  0
   -3.7257    0.6880    0.3796 O   0  0  0  0  0  0  0  0  0  0  0  0
   -3.3274    1.7818    3.4964 C   0  0  0  0  0  0  0  0  0  0  0  0
   -1.0242   -0.0407    2.7008 H   0  0  0  0  0  0  0  0  0  0  0  0
   -3.1694   -0.3667    3.3539 H   0  0  0  0  0  0  0  0  0  0  0  0
   -3.2287    2.6708    2.8628 H   0  0  0  0  0  0  0  0  0  0  0  0
   -4.3381    1.7867    3.9177 H   0  0  0  0  0  0  0  0  0  0  0  0
   -2.6136    1.8809    4.3214 H   0  0  0  0  0  0  0  0  0  0  0  0
   -5.2866   -0.0459    1.9320 N   0  0  0  0  0  0  0  0  0  0  0  0
   -6.3801   -0.2271    1.0060 C   0  0  0  0  0  0  0  0  0  0  0  0
   -5.4451   -0.2874    2.9058 H   0  0  0  0  0  0  0  0  0  0  0  0
   -6.9778    0.6951    0.9587 H   0  0  0  0  0  0  0  0  0  0  0  0
   -5.9804   -0.4565    0.0072 H   0  0  0  0  0  0  0  0  0  0  0  0
   -7.0149   -1.0583    1.3467 H   0  0  0  0  0  0  0  0  0  0  0  0
  1  3  1  0  0  0  0
  1  7  1  0  0  0  0
  1  2  2  0  0  0  0
 37 38  1  0  0  0  0
 38 46  1  0  0  0  0
 38 39  2  0  0  0  0
  8  9  1  0  0  0  0
  9 17  1  0  0  0  0
  9 10  2  0  0  0  0
 18 19  1  0  0  0  0
 19 36  1  0  0  0  0
 19 20  2  0  0  0  0
 37 40  1  0  0  0  0
  8 11  1  0  0  0  0
 22 23  1  0  0  0  0
 22 24  1  0  0  0  0
 46 47  1  0  0  0  0
 18 21  1  0  0  0  0
 21 22  1  0  0  0  0
 36 37  1  0  0  0  0
  7  8  1  0  0  0  0
 17 18  1  0  0  0  0
  3  4  1  0  0  0  0
  3  5  1  0  0  0  0
  3  6  1  0  0  0  0
 40 43  1  0  0  0  0
 40 44  1  0  0  0  0
 40 45  1  0  0  0  0
 11 14  1  0  0  0  0
 11 15  1  0  0  0  0
 11 16  1  0  0  0  0
 23 30  1  0  0  0  0
 23 31  1  0  0  0  0
 23 32  1  0  0  0  0
 24 33  1  0  0  0  0
 24 34  1  0  0  0  0
 24 35  1  0  0  0  0
 47 49  1  0  0  0  0
 47 50  1  0  0  0  0
 47 51  1  0  0  0  0
 21 27  1  0  0  0  0
 21 28  1  0  0  0  0
 37 42  1  0  0  0  0
  8 13  1  0  0  0  0
 18 26  1  0  0  0  0
 22 29  1  0  0  0  0
 46 48  1  0  0  0  0
  7 12  1  0  0  0  0
 36 41  1  0  0  0  0
 17 25  1  0  0  0  0
M  END
$$$$

  -OEChem-05262214473D

 51 50  0     1  0  0  0  0  0999 V2000
    3.4018   -1.2440   -3.0186 C   0  0  0  0  0  0  0  0  0  0  0  0
    3.2697   -2.0909   -2.1427 O   0  0  0  0  0  0  0  0  0  0  0  0
    4.6845   -1.1645   -3.7779 C   0  0  0  0  0  0  0  0  0  0  0  0
    5.4123   -0.4862   -3.3041 H   0  0  0  0  0  0  0  0  0  0  0  0
    5.1949   -2.1387   -3.8443 H   0  0  0  0  0  0  0  0  0  0  0  0
    4.5953   -0.8128   -4.8182 H   0  0  0  0  0  0  0  0  0  0  0  0
    2.4540   -0.3103   -3.4040 N   0  0  0  0  0  0  0  0  0  0  0  0
    1.1494   -0.2128   -2.8039 C   0  0  2  0  0  0  0  0  0  0  0  0
    1.3350    0.0367   -1.3130 C   0  0  0  0  0  0  0  0  0  0  0  0
    2.3625   -0.2586   -0.7063 O   0  0  0  0  0  0  0  0  0  0  0  0
    0.3331   -1.4728   -3.0467 C   0  0  0  0  0  0  0  0  0  0  0  0
    2.6924    0.3404   -4.1502 H   0  0  0  0  0  0  0  0  0  0  0  0
    0.6550    0.6514   -3.2607 H   0  0  0  0  0  0  0  0  0  0  0  0
    0.8129   -2.3494   -2.5963 H   0  0  0  0  0  0  0  0  0  0  0  0
   -0.6690   -1.3857   -2.6142 H   0  0  0  0  0  0  0  0  0  0  0  0
    0.2259   -1.6670   -4.1194 H   0  0  0  0  0  0  0  0  0  0  0  0
    0.2019    0.5893   -0.7269 N   0  0  0  0  0  0  0  0  0  0  0  0
    0.1242    0.9059    0.6756 C   0  0  2  0  0  0  0  0  0  0  0  0
   -1.3491    1.1247    1.0055 C   0  0  0  0  0  0  0  0  0  0  0  0
   -2.1691    1.5170    0.1780 O   0  0  0  0  0  0  0  0  0  0  0  0
    0.9393    2.1547    1.0349 C   0  0  0  0  0  0  0  0  0  0  0  0
    2.4646    2.0030    0.8639 C   0  0  0  0  0  0  0  0  0  0  0  0
    3.1480    3.3514    1.1078 C   0  0  0  0  0  0  0  0  0  0  0  0
    2.8463    1.4750   -0.5196 C   0  0  0  0  0  0  0  0  0  0  0  0
   -0.5975    0.8179   -1.3140 H   0  0  0  0  0  0  0  0  0  0  0  0
    0.4802    0.0266    1.2219 H   0  0  0  0  0  0  0  0  0  0  0  0
    0.7281    2.4278    2.0784 H   0  0  0  0  0  0  0  0  0  0  0  0
    0.5930    3.0023    0.4286 H   0  0  0  0  0  0  0  0  0  0  0  0
    2.8429    1.3003    1.6164 H   0  0  0  0  0  0  0  0  0  0  0  0
    2.8073    4.0974    0.3819 H   0  0  0  0  0  0  0  0  0  0  0  0
    4.2346    3.2610    1.0061 H   0  0  0  0  0  0  0  0  0  0  0  0
    2.9314    3.7318    2.1119 H   0  0  0  0  0  0  0  0  0  0  0  0
    2.4905    2.1429   -1.3115 H   0  0  0  0  0  0  0  0  0  0  0  0
    3.9340    1.3877   -0.6152 H   0  0  0  0  0  0  0  0  0  0  0  0
    2.4265    0.4804   -0.6968 H   0  0  0  0  0  0  0  0  0  0  0  0
   -1.6453    0.7812    2.3173 N   0  0  0  0  0  0  0  0  0  0  0  0
   -2.9741    0.8688    2.8788 C   0  0  2  0  0  0  0  0  0  0  0  0
   -3.9646    0.4099    1.8168 C   0  0  0  0  0  0  0  0  0  0  0  0
   -3.7125    0.4236    0.6137 O   0  0  0  0  0  0  0  0  0  0  0  0
   -3.2880    2.2837    3.3395 C   0  0  0  0  0  0  0  0  0  0  0  0
   -0.9034    0.4404    2.9214 H   0  0  0  0  0  0  0  0  0  0  0  0
   -3.0042    0.1792    3.7294 H   0  0  0  0  0  0  0  0  0  0  0  0
   -3.2625    2.9890    2.5008 H   0  0  0  0  0  0  0  0  0  0  0  0
   -4.2840    2.3424    3.7906 H   0  0  0  0  0  0  0  0  0  0  0  0
   -2.5571    2.6231    4.0814 H   0  0  0  0  0  0  0  0  0  0  0  0
   -5.1787    0.0239    2.3675 N   0  0  0  0  0  0  0  0  0  0  0  0
   -6.2865   -0.4397    1.5651 C   0  0  0  0  0  0  0  0  0  0  0  0
   -5.2930    0.0267    3.3767 H   0  0  0  0  0  0  0  0  0  0  0  0
   -6.9402    0.4092    1.3162 H   0  0  0  0  0  0  0  0  0  0  0  0
   -5.9038   -0.8917    0.6381 H   0  0  0  0  0  0  0  0  0  0  0  0
   -6.8592   -1.1902    2.1296 H   0  0  0  0  0  0  0  0  0  0  0  0
  1  3  1  0  0  0  0
  1  7  1  0  0  0  0
  1  2  2  0  0  0  0
 37 38  1  0  0  0  0
 38 46  1  0  0  0  0
 38 39  2  0  0  0  0
  8  9  1  0  0  0  0
  9 17  1  0  0  0  0
  9 10  2  0  0  0  0
 18 19  1  0  0  0  0
 19 36  1  0  0  0  0
 19 20  2  0  0  0  0
 37 40  1  0  0  0  0
  8 11  1  0  0  0  0
 22 23  1  0  0  0  0
 22 24  1  0  0  0  0
 46 47  1  0  0  0  0
 18 21  1  0  0  0  0
 21 22  1  0  0  0  0
 36 37  1  0  0  0  0
  7  8  1  0  0  0  0
 17 18  1  0  0  0  0
  3  4  1  0  0  0  0
  3  5  1  0  0  0  0
  3  6  1  0  0  0  0
 40 43  1  0  0  0  0
 40 44  1  0  0  0  0
 40 45  1  0  0  0  0
 11 14  1  0  0  0  0
 11 15  1  0  0  0  0
 11 16  1  0  0  0  0
 23 30  1  0  0  0  0
 23 31  1  0  0  0  0
 23 32  1  0  0  0  0
 24 33  1  0  0  0  0
 24 34  1  0  0  0  0
 24 35  1  0  0  0  0
 47 49  1  0  0  0  0
 47 50  1  0  0  0  0
 47 51  1  0  0  0  0
 21 27  1  0  0  0  0
 21 28  1  0  0  0  0
 37 42  1  0  0  0  0
  8 13  1  0  0  0  0
 18 26  1  0  0  0  0
 22 29  1  0  0  0  0
 46 48  1  0  0  0  0
  7 12  1  0  0  0  0
 36 41  1  0  0  0  0
 17 25  1  0  0  0  0
M  END
$$$$

  -OEChem-05262214473D

 51 50  0     1  0  0  0  0  0999 V2000
    3.4018   -1.2440   -3.0186 C   0  0  0  0  0  0  0  0  0  0  0  0
    3.2697   -2.0909   -2.1427 O   0  0  0  0  0  0  0  0  0  0  0  0
    4.6845   -1.1645   -3.7779 C   0  0  0  0  0  0  0  0  0  0  0  0
    5.4123   -0.4862   -3.3041 H   0  0  0  0  0  0  0  0  0  0  0  0
    5.1949   -2.1387   -3.8443 H   0  0  0  0  0  0  0  0  0  0  0  0
    4.5953   -0.8128   -4.8182 H   0  0  0  0  0  0  0  0  0  0  0  0
    2.4540   -0.3103   -3.4040 N   0  0  0  0  0  0  0  0  0  0  0  0
    1.1494   -0.2128   -2.8039 C   0  0  2  0  0  0  0  0  0  0  0  0
    1.3350    0.0367   -1.3130 C   0  0  0  0  0  0  0  0  0  0  0  0
    2.3625   -0.2586   -0.7063 O   0  0  0  0  0  0  0  0  0  0  0  0
    0.3331   -1.4728   -3.0467 C   0  0  0  0  0  0  0  0  0  0  0  0
    2.6924    0.3404   -4.1502 H   0  0  0  0  0  0  0  0  0  0  0  0
    0.6550    0.6514   -3.2607 H   0  0  0  0  0  0  0  0  0  0  0  0
    0.8129   -2.3494   -2.5963 H   0  0  0  0  0  0  0  0  0  0  0  0
   -0.6690   -1.3857   -2.6142 H   0  0  0  0  0  0  0  0  0  0  0  0
    0.2259   -1.6670   -4.1194 H   0  0  0  0  0  0  0  0  0  0  0  0
    0.2019    0.5893   -0.7269 N   0  0  0  0  0  0  0  0  0  0  0  0
    0.1242    0.9059    0.6756 C   0  0  2  0  0  0  0  0  0  0  0  0
   -1.3491    1.1247    1.0055 C   0  0  0  0  0  0  0  0  0  0  0  0
   -2.2159    1.2542    0.1435 O   0  0  0  0  0  0  0  0  0  0  0  0
    0.9393    2.1547    1.0349 C   0  0  0  0  0  0  0  0  0  0  0  0
    2.4646    2.0030    0.8639 C   0  0  0  0  0  0  0  0  0  0  0  0
    3.1480    3.3514    1.1078 C   0  0  0  0  0  0  0  0  0  0  0  0
    2.8463    1.4750   -0.5196 C   0  0  0  0  0  0  0  0  0  0  0  0
   -0.5975    0.8179   -1.3140 H   0  0  0  0  0  0  0  0  0  0  0  0
    0.4802    0.0266    1.2219 H   0  0  0  0  0  0  0  0  0  0  0  0
    0.7281    2.4278    2.0784 H   0  0  0  0  0  0  0  0  0  0  0  0
    0.5930    3.0023    0.4286 H   0  0  0  0  0  0  0  0  0  0  0  0
    2.8429    1.3003    1.6164 H   0  0  0  0  0  0  0  0  0  0  0  0
    2.8073    4.0974    0.3819 H   0  0  0  0  0  0  0  0  0  0  0  0
    4.2346    3.2610    1.0061 H   0  0  0  0  0  0  0  0  0  0  0  0
    2.9314    3.7318    2.1119 H   0  0  0  0  0  0  0  0  0  0  0  0
    2.4905    2.1429   -1.3115 H   0  0  0  0  0  0  0  0  0  0  0  0
    3.9340    1.3877   -0.6152 H   0  0  0  0  0  0  0  0  0  0  0  0
    2.4265    0.4804   -0.6968 H   0  0  0  0  0  0  0  0  0  0  0  0
   -1.5844    1.1067    2.3733 N   0  0  0  0  0  0  0  0  0  0  0  0
   -2.8987    1.2642    2.9535 C   0  0  2  0  0  0  0  0  0  0  0  0
   -3.8909    0.5033    2.0841 C   0  0  0  0  0  0  0  0  0  0  0  0
   -3.6763    0.2275    0.9055 O   0  0  0  0  0  0  0  0  0  0  0  0
   -3.2838    2.7315    3.0610 C   0  0  0  0  0  0  0  0  0  0  0  0
   -0.8054    0.9670    3.0098 H   0  0  0  0  0  0  0  0  0  0  0  0
   -2.8612    0.8096    3.9495 H   0  0  0  0  0  0  0  0  0  0  0  0
   -3.3265    3.2040    2.0729 H   0  0  0  0  0  0  0  0  0  0  0  0
   -4.2676    2.8503    3.5269 H   0  0  0  0  0  0  0  0  0  0  0  0
   -2.5530    3.2832    3.6620 H   0  0  0  0  0  0  0  0  0  0  0  0
   -5.0622    0.2061    2.7666 N   0  0  0  0  0  0  0  0  0  0  0  0
   -6.1634   -0.5002    2.1547 C   0  0  0  0  0  0  0  0  0  0  0  0
   -5.1461    0.4564    3.7475 H   0  0  0  0  0  0  0  0  0  0  0  0
   -6.8746    0.2244    1.7316 H   0  0  0  0  0  0  0  0  0  0  0  0
   -5.7819   -1.1501    1.3534 H   0  0  0  0  0  0  0  0  0  0  0  0
   -6.6723   -1.1133    2.9131 H   0  0  0  0  0  0  0  0  0  0  0  0
  1  3  1  0  0  0  0
  1  7  1  0  0  0  0
  1  2  2  0  0  0  0
 37 38  1  0  0  0  0
 38 46  1  0  0  0  0
 38 39  2  0  0  0  0
  8  9  1  0  0  0  0
  9 17  1  0  0  0  0
  9 10  2  0  0  0  0
 18 19  1  0  0  0  0
 19 36  1  0  0  0  0
 19 20  2  0  0  0  0
 37 40  1  0  0  0  0
  8 11  1  0  0  0  0
 22 23  1  0  0  0  0
 22 24  1  0  0  0  0
 46 47  1  0  0  0  0
 18 21  1  0  0  0  0
 21 22  1  0  0  0  0
 36 37  1  0  0  0  0
  7  8  1  0  0  0  0
 17 18  1  0  0  0  0
  3  4  1  0  0  0  0
  3  5  1  0  0  0  0
  3  6  1  0  0  0  0
 40 43  1  0  0  0  0
 40 44  1  0  0  0  0
 40 45  1  0  0  0  0
 11 14  1  0  0  0  0
 11 15  1  0  0  0  0
 11 16  1  0  0  0  0
 23 30  1  0  0  0  0
 23 31  1  0  0  0  0
 23 32  1  0  0  0  0
 24 33  1  0  0  0  0
 24 34  1  0  0  0  0
 24 35  1  0  0  0  0
 47 49  1  0  0  0  0
 47 50  1  0  0  0  0
 47 51  1  0  0  0  0
 21 27  1  0  0  0  0
 21 28  1  0  0  0  0
 37 42  1  0  0  0  0
  8 13  1  0  0  0  0
 18 26  1  0  0  0  0
 22 29  1  0  0  0  0
 46 48  1  0  0  0  0
  7 12  1  0  0  0  0
 36 41  1  0  0  0  0
 17 25  1  0  0  0  0
M  END
$$$$

  -OEChem-05262214473D

 51 50  0     1  0  0  0  0  0999 V2000
    3.4018   -1.2440   -3.0186 C   0  0  0  0  0  0  0  0  0  0  0  0
    3.2697   -2.0909   -2.1427 O   0  0  0  0  0  0  0  0  0  0  0  0
    4.6845   -1.1645   -3.7779 C   0  0  0  0  0  0  0  0  0  0  0  0
    5.4123   -0.4862   -3.3041 H   0  0  0  0  0  0  0  0  0  0  0  0
    5.1949   -2.1387   -3.8443 H   0  0  0  0  0  0  0  0  0  0  0  0
    4.5953   -0.8128   -4.8182 H   0  0  0  0  0  0  0  0  0  0  0  0
    2.4540   -0.3103   -3.4040 N   0  0  0  0  0  0  0  0  0  0  0  0
    1.1494   -0.2128   -2.8039 C   0  0  2  0  0  0  0  0  0  0  0  0
    1.3350    0.0367   -1.3130 C   0  0  0  0  0  0  0  0  0  0  0  0
    2.3625   -0.2586   -0.7063 O   0  0  0  0  0  0  0  0  0  0  0  0
    0.3331   -1.4728   -3.0467 C   0  0  0  0  0  0  0  0  0  0  0  0
    2.6924    0.3404   -4.1502 H   0  0  0  0  0  0  0  0  0  0  0  0
    0.6550    0.6514   -3.2607 H   0  0  0  0  0  0  0  0  0  0  0  0
    0.8129   -2.3494   -2.5963 H   0  0  0  0  0  0  0  0  0  0  0  0
   -0.6690   -1.3857   -2.6142 H   0  0  0  0  0  0  0  0  0  0  0  0
    0.2259   -1.6670   -4.1194 H   0  0  0  0  0  0  0  0  0  0  0  0
    0.2019    0.5893   -0.7269 N   0  0  0  0  0  0  0  0  0  0  0  0
    0.1242    0.9059    0.6756 C   0  0  2  0  0  0  0  0  0  0  0  0
   -1.3361    0.7538    1.0900 C   0  0  0  0  0  0  0  0  0  0  0  0
   -2.2155    0.3788    0.3172 O   0  0  0  0  0  0  0  0  0  0  0  0
    0.6161    2.3271    0.9781 C   0  0  0  0  0  0  0  0  0  0  0  0
    2.1185    2.5605    0.7189 C   0  0  0  0  0  0  0  0  0  0  0  0
    2.4516    4.0424    0.9132 C   0  0  0  0  0  0  0  0  0  0  0  0
    2.5442    2.1162   -0.6811 C   0  0  0  0  0  0  0  0  0  0  0  0
   -0.5975    0.8179   -1.3140 H   0  0  0  0  0  0  0  0  0  0  0  0
    0.7203    0.1564    1.2059 H   0  0  0  0  0  0  0  0  0  0  0  0
    0.4006    2.5603    2.0303 H   0  0  0  0  0  0  0  0  0  0  0  0
    0.0341    3.0470    0.3875 H   0  0  0  0  0  0  0  0  0  0  0  0
    2.7028    1.9918    1.4525 H   0  0  0  0  0  0  0  0  0  0  0  0
    1.8941    4.6630    0.2036 H   0  0  0  0  0  0  0  0  0  0  0  0
    3.5185    4.2262    0.7485 H   0  0  0  0  0  0  0  0  0  0  0  0
    2.2016    4.3773    1.9257 H   0  0  0  0  0  0  0  0  0  0  0  0
    1.9883    2.6561   -1.4552 H   0  0  0  0  0  0  0  0  0  0  0  0
    3.6118    2.3035   -0.8398 H   0  0  0  0  0  0  0  0  0  0  0  0
    2.3801    1.0445   -0.8267 H   0  0  0  0  0  0  0  0  0  0  0  0
   -1.5277    1.0375    2.4351 N   0  0  0  0  0  0  0  0  0  0  0  0
   -2.8130    0.9448    3.0894 C   0  0  2  0  0  0  0  0  0  0  0  0
   -3.5297   -0.2843    2.5461 C   0  0  0  0  0  0  0  0  0  0  0  0
   -3.2612   -0.7916    1.4591 O   0  0  0  0  0  0  0  0  0  0  0  0
   -3.6406    2.2006    2.8637 C   0  0  0  0  0  0  0  0  0  0  0  0
   -0.7325    1.3157    3.0025 H   0  0  0  0  0  0  0  0  0  0  0  0
   -2.6148    0.8101    4.1583 H   0  0  0  0  0  0  0  0  0  0  0  0
   -3.8492    2.3523    1.7984 H   0  0  0  0  0  0  0  0  0  0  0  0
   -4.6024    2.1407    3.3837 H   0  0  0  0  0  0  0  0  0  0  0  0
   -3.1106    3.0873    3.2281 H   0  0  0  0  0  0  0  0  0  0  0  0
   -4.5337   -0.7222    3.3985 N   0  0  0  0  0  0  0  0  0  0  0  0
   -5.3661   -1.8642    3.1006 C   0  0  0  0  0  0  0  0  0  0  0  0
   -4.6739   -0.2527    4.2882 H   0  0  0  0  0  0  0  0  0  0  0  0
   -6.2780   -1.5293    2.5846 H   0  0  0  0  0  0  0  0  0  0  0  0
   -4.8139   -2.5616    2.4535 H   0  0  0  0  0  0  0  0  0  0  0  0
   -5.6405   -2.3721    4.0370 H   0  0  0  0  0  0  0  0  0  0  0  0
  1  3  1  0  0  0  0
  1  7  1  0  0  0  0
  1  2  2  0  0  0  0
 37 38  1  0  0  0  0
 38 46  1  0  0  0  0
 38 39  2  0  0  0  0
  8  9  1  0  0  0  0
  9 17  1  0  0  0  0
  9 10  2  0  0  0  0
 18 19  1  0  0  0  0
 19 36  1  0  0  0  0
 19 20  2  0  0  0  0
 37 40  1  0  0  0  0
  8 11  1  0  0  0  0
 22 23  1  0  0  0  0
 22 24  1  0  0  0  0
 46 47  1  0  0  0  0
 18 21  1  0  0  0  0
 21 22  1  0  0  0  0
 36 37  1  0  0  0  0
  7  8  1  0  0  0  0
 17 18  1  0  0  0  0
  3  4  1  0  0  0  0
  3  5  1  0  0  0  0
  3  6  1  0  0  0  0
 40 43  1  0  0  0  0
 40 44  1  0  0  0  0
 40 45  1  0  0  0  0
 11 14  1  0  0  0  0
 11 15  1  0  0  0  0
 11 16  1  0  0  0  0
 23 30  1  0  0  0  0
 23 31  1  0  0  0  0
 23 32  1  0  0  0  0
 24 33  1  0  0  0  0
 24 34  1  0  0  0  0
 24 35  1  0  0  0  0
 47 49  1  0  0  0  0
 47 50  1  0  0  0  0
 47 51  1  0  0  0  0
 21 27  1  0  0  0  0
 21 28  1  0  0  0  0
 37 42  1  0  0  0  0
  8 13  1  0  0  0  0
 18 26  1  0  0  0  0
 22 29  1  0  0  0  0
 46 48  1  0  0  0  0
  7 12  1  0  0  0  0
 36 41  1  0  0  0  0
 17 25  1  0  0  0  0
M  END
$$$$

  -OEChem-05262214473D

 51 50  0     1  0  0  0  0  0999 V2000
    3.4018   -1.2440   -3.0186 C   0  0  0  0  0  0  0  0  0  0  0  0
    3.2697   -2.0909   -2.1427 O   0  0  0  0  0  0  0  0  0  0  0  0
    4.6845   -1.1645   -3.7779 C   0  0  0  0  0  0  0  0  0  0  0  0
    5.4123   -0.4862   -3.3041 H   0  0  0  0  0  0  0  0  0  0  0  0
    5.1949   -2.1387   -3.8443 H   0  0  0  0  0  0  0  0  0  0  0  0
    4.5953   -0.8128   -4.8182 H   0  0  0  0  0  0  0  0  0  0  0  0
    2.4540   -0.3103   -3.4040 N   0  0  0  0  0  0  0  0  0  0  0  0
    1.1494   -0.2128   -2.8039 C   0  0  2  0  0  0  0  0  0  0  0  0
    1.3350    0.0367   -1.3130 C   0  0  0  0  0  0  0  0  0  0  0  0
    2.3625   -0.2586   -0.7063 O   0  0  0  0  0  0  0  0  0  0  0  0
    0.3331   -1.4728   -3.0467 C   0  0  0  0  0  0  0  0  0  0  0  0
    2.6924    0.3404   -4.1502 H   0  0  0  0  0  0  0  0  0  0  0  0
    0.6550    0.6514   -3.2607 H   0  0  0  0  0  0  0  0  0  0  0  0
    0.8129   -2.3494   -2.5963 H   0  0  0  0  0  0  0  0  0  0  0  0
   -0.6690   -1.3857   -2.6142 H   0  0  0  0  0  0  0  0  0  0  0  0
    0.2259   -1.6670   -4.1194 H   0  0  0  0  0  0  0  0  0  0  0  0
    0.2019    0.5893   -0.7269 N   0  0  0  0  0  0  0  0  0  0  0  0
    0.1242    0.9059    0.6756 C   0  0  2  0  0  0  0  0  0  0  0  0
   -1.3361    0.7538    1.0900 C   0  0  0  0  0  0  0  0  0  0  0  0
   -2.1610    0.1360    0.4200 O   0  0  0  0  0  0  0  0  0  0  0  0
    0.6161    2.3271    0.9781 C   0  0  0  0  0  0  0  0  0  0  0  0
    2.1185    2.5605    0.7189 C   0  0  0  0  0  0  0  0  0  0  0  0
    2.4516    4.0424    0.9132 C   0  0  0  0  0  0  0  0  0  0  0  0
    2.5442    2.1162   -0.6811 C   0  0  0  0  0  0  0  0  0  0  0  0
   -0.5975    0.8179   -1.3140 H   0  0  0  0  0  0  0  0  0  0  0  0
    0.7203    0.1564    1.2059 H   0  0  0  0  0  0  0  0  0  0  0  0
    0.4006    2.5603    2.0303 H   0  0  0  0  0  0  0  0  0  0  0  0
    0.0341    3.0470    0.3875 H   0  0  0  0  0  0  0  0  0  0  0  0
    2.7028    1.9918    1.4525 H   0  0  0  0  0  0  0  0  0  0  0  0
    1.8941    4.6630    0.2036 H   0  0  0  0  0  0  0  0  0  0  0  0
    3.5185    4.2262    0.7485 H   0  0  0  0  0  0  0  0  0  0  0  0
    2.2016    4.3773    1.9257 H   0  0  0  0  0  0  0  0  0  0  0  0
    1.9883    2.6561   -1.4552 H   0  0  0  0  0  0  0  0  0  0  0  0
    3.6118    2.3035   -0.8398 H   0  0  0  0  0  0  0  0  0  0  0  0
    2.3801    1.0445   -0.8267 H   0  0  0  0  0  0  0  0  0  0  0  0
   -1.5928    1.3458    2.3189 N   0  0  0  0  0  0  0  0  0  0  0  0
   -2.8909    1.3233    2.9537 C   0  0  2  0  0  0  0  0  0  0  0  0
   -3.5043   -0.0512    2.7212 C   0  0  0  0  0  0  0  0  0  0  0  0
   -3.1649   -0.7899    1.7992 O   0  0  0  0  0  0  0  0  0  0  0  0
   -3.7925    2.4201    2.4090 C   0  0  0  0  0  0  0  0  0  0  0  0
   -0.8382    1.8132    2.8126 H   0  0  0  0  0  0  0  0  0  0  0  0
   -2.7213    1.4715    4.0258 H   0  0  0  0  0  0  0  0  0  0  0  0
   -3.9738    2.2884    1.3360 H   0  0  0  0  0  0  0  0  0  0  0  0
   -4.7656    2.4198    2.9111 H   0  0  0  0  0  0  0  0  0  0  0  0
   -3.3361    3.4058    2.5503 H   0  0  0  0  0  0  0  0  0  0  0  0
   -4.5056   -0.3378    3.6385 N   0  0  0  0  0  0  0  0  0  0  0  0
   -5.2488   -1.5761    3.6199 C   0  0  0  0  0  0  0  0  0  0  0  0
   -4.7077    0.3251    4.3810 H   0  0  0  0  0  0  0  0  0  0  0  0
   -6.1626   -1.4469    3.0214 H   0  0  0  0  0  0  0  0  0  0  0  0
   -4.6289   -2.3690    3.1760 H   0  0  0  0  0  0  0  0  0  0  0  0
   -5.5207   -1.8559    4.6484 H   0  0  0  0  0  0  0  0  0  0  0  0
  1  3  1  0  0  0  0
  1  7  1  0  0  0  0
  1  2  2  0  0  0  0
 37 38  1  0  0  0  0
 38 46  1  0  0  0  0
 38 39  2  0  0  0  0
  8  9  1  0  0  0  0
  9 17  1  0  0  0  0
  9 10  2  0  0  0  0
 18 19  1  0  0  0  0
 19 36  1  0  0  0  0
 19 20  2  0  0  0  0
 37 40  1  0  0  0  0
  8 11  1  0  0  0  0
 22 23  1  0  0  0  0
 22 24  1  0  0  0  0
 46 47  1  0  0  0  0
 18 21  1  0  0  0  0
 21 22  1  0  0  0  0
 36 37  1  0  0  0  0
  7  8  1  0  0  0  0
 17 18  1  0  0  0  0
  3  4  1  0  0  0  0
  3  5  1  0  0  0  0
  3  6  1  0  0  0  0
 40 43  1  0  0  0  0
 40 44  1  0  0  0  0
 40 45  1  0  0  0  0
 11 14  1  0  0  0  0
 11 15  1  0  0  0  0
 11 16  1  0  0  0  0
 23 30  1  0  0  0  0
 23 31  1  0  0  0  0
 23 32  1  0  0  0  0
 24 33  1  0  0  0  0
 24 34  1  0  0  0  0
 24 35  1  0  0  0  0
 47 49  1  0  0  0  0
 47 50  1  0  0  0  0
 47 51  1  0  0  0  0
 21 27  1  0  0  0  0
 21 28  1  0  0  0  0
 37 42  1  0  0  0  0
  8 13  1  0  0  0  0
 18 26  1  0  0  0  0
 22 29  1  0  0  0  0
 46 48  1  0  0  0  0
  7 12  1  0  0  0  0
 36 41  1  0  0  0  0
 17 25  1  0  0  0  0
M  END
$$$$

  -OEChem-05262214473D

 51 50  0     1  0  0  0  0  0999 V2000
    3.4018   -1.2440   -3.0186 C   0  0  0  0  0  0  0  0  0  0  0  0
    3.2697   -2.0909   -2.1427 O   0  0  0  0  0  0  0  0  0  0  0  0
    4.6845   -1.1645   -3.7779 C   0  0  0  0  0  0  0  0  0  0  0  0
    5.4123   -0.4862   -3.3041 H   0  0  0  0  0  0  0  0  0  0  0  0
    5.1949   -2.1387   -3.8443 H   0  0  0  0  0  0  0  0  0  0  0  0
    4.5953   -0.8128   -4.8182 H   0  0  0  0  0  0  0  0  0  0  0  0
    2.4540   -0.3103   -3.4040 N   0  0  0  0  0  0  0  0  0  0  0  0
    1.1494   -0.2128   -2.8039 C   0  0  2  0  0  0  0  0  0  0  0  0
    1.3350    0.0367   -1.3130 C   0  0  0  0  0  0  0  0  0  0  0  0
    2.3625   -0.2586   -0.7063 O   0  0  0  0  0  0  0  0  0  0  0  0
    0.3331   -1.4728   -3.0467 C   0  0  0  0  0  0  0  0  0  0  0  0
    2.6924    0.3404   -4.1502 H   0  0  0  0  0  0  0  0  0  0  0  0
    0.6550    0.6514   -3.2607 H   0  0  0  0  0  0  0  0  0  0  0  0
    0.8129   -2.3494   -2.5963 H   0  0  0  0  0  0  0  0  0  0  0  0
   -0.6690   -1.3857   -2.6142 H   0  0  0  0  0  0  0  0  0  0  0  0
    0.2259   -1.6670   -4.1194 H   0  0  0  0  0  0  0  0  0  0  0  0
    0.2019    0.5893   -0.7269 N   0  0  0  0  0  0  0  0  0  0  0  0
    0.1242    0.9059    0.6756 C   0  0  2  0  0  0  0  0  0  0  0  0
   -1.3361    0.7538    1.0900 C   0  0  0  0  0  0  0  0  0  0  0  0
   -2.0940   -0.0692    0.5808 O   0  0  0  0  0  0  0  0  0  0  0  0
    0.6161    2.3271    0.9781 C   0  0  0  0  0  0  0  0  0  0  0  0
    2.1185    2.5605    0.7189 C   0  0  0  0  0  0  0  0  0  0  0  0
    2.4516    4.0424    0.9132 C   0  0  0  0  0  0  0  0  0  0  0  0
    2.5442    2.1162   -0.6811 C   0  0  0  0  0  0  0  0  0  0  0  0
   -0.5975    0.8179   -1.3140 H   0  0  0  0  0  0  0  0  0  0  0  0
    0.7203    0.1564    1.2059 H   0  0  0  0  0  0  0  0  0  0  0  0
    0.4006    2.5603    2.0303 H   0  0  0  0  0  0  0  0  0  0  0  0
    0.0341    3.0470    0.3875 H   0  0  0  0  0  0  0  0  0  0  0  0
    2.7028    1.9918    1.4525 H   0  0  0  0  0  0  0  0  0  0  0  0
    1.8941    4.6630    0.2036 H   0  0  0  0  0  0  0  0  0  0  0  0
    3.5185    4.2262    0.7485 H   0  0  0  0  0  0  0  0  0  0  0  0
    2.2016    4.3773    1.9257 H   0  0  0  0  0  0  0  0  0  0  0  0
    1.9883    2.6561   -1.4552 H   0  0  0  0  0  0  0  0  0  0  0  0
    3.6118    2.3035   -0.8398 H   0  0  0  0  0  0  0  0  0  0  0  0
    2.3801    1.0445   -0.8267 H   0  0  0  0  0  0  0  0  0  0  0  0
   -1.6744    1.6103    2.1285 N   0  0  0  0  0  0  0  0  0  0  0  0
   -2.9892    1.6497    2.7270 C   0  0  2  0  0  0  0  0  0  0  0  0
   -3.5007    0.2191    2.8332 C   0  0  0  0  0  0  0  0  0  0  0  0
   -3.0807   -0.6974    2.1297 O   0  0  0  0  0  0  0  0  0  0  0  0
   -3.9429    2.5088    1.9114 C   0  0  0  0  0  0  0  0  0  0  0  0
   -0.9704    2.2393    2.5032 H   0  0  0  0  0  0  0  0  0  0  0  0
   -2.8672    2.0700    3.7312 H   0  0  0  0  0  0  0  0  0  0  0  0
   -4.0777    2.1033    0.9020 H   0  0  0  0  0  0  0  0  0  0  0  0
   -4.9306    2.5608    2.3813 H   0  0  0  0  0  0  0  0  0  0  0  0
   -3.5589    3.5296    1.8109 H   0  0  0  0  0  0  0  0  0  0  0  0
   -4.5116    0.0949    3.7759 N   0  0  0  0  0  0  0  0  0  0  0  0
   -5.1690   -1.1609    4.0532 C   0  0  0  0  0  0  0  0  0  0  0  0
   -4.7834    0.9039    4.3267 H   0  0  0  0  0  0  0  0  0  0  0  0
   -6.0682   -1.2510    3.4260 H   0  0  0  0  0  0  0  0  0  0  0  0
   -4.4824   -1.9910    3.8309 H   0  0  0  0  0  0  0  0  0  0  0  0
   -5.4571   -1.1973    5.1142 H   0  0  0  0  0  0  0  0  0  0  0  0
  1  3  1  0  0  0  0
  1  7  1  0  0  0  0
  1  2  2  0  0  0  0
 37 38  1  0  0  0  0
 38 46  1  0  0  0  0
 38 39  2  0  0  0  0
  8  9  1  0  0  0  0
  9 17  1  0  0  0  0
  9 10  2  0  0  0  0
 18 19  1  0  0  0  0
 19 36  1  0  0  0  0
 19 20  2  0  0  0  0
 37 40  1  0  0  0  0
  8 11  1  0  0  0  0
 22 23  1  0  0  0  0
 22 24  1  0  0  0  0
 46 47  1  0  0  0  0
 18 21  1  0  0  0  0
 21 22  1  0  0  0  0
 36 37  1  0  0  0  0
  7  8  1  0  0  0  0
 17 18  1  0  0  0  0
  3  4  1  0  0  0  0
  3  5  1  0  0  0  0
  3  6  1  0  0  0  0
 40 43  1  0  0  0  0
 40 44  1  0  0  0  0
 40 45  1  0  0  0  0
 11 14  1  0  0  0  0
 11 15  1  0  0  0  0
 11 16  1  0  0  0  0
 23 30  1  0  0  0  0
 23 31  1  0  0  0  0
 23 32  1  0  0  0  0
 24 33  1  0  0  0  0
 24 34  1  0  0  0  0
 24 35  1  0  0  0  0
 47 49  1  0  0  0  0
 47 50  1  0  0  0  0
 47 51  1  0  0  0  0
 21 27  1  0  0  0  0
 21 28  1  0  0  0  0
 37 42  1  0  0  0  0
  8 13  1  0  0  0  0
 18 26  1  0  0  0  0
 22 29  1  0  0  0  0
 46 48  1  0  0  0  0
  7 12  1  0  0  0  0
 36 41  1  0  0  0  0
 17 25  1  0  0  0  0
M  END
$$$$

  -OEChem-05262214473D

 51 50  0     1  0  0  0  0  0999 V2000
    3.4018   -1.2440   -3.0186 C   0  0  0  0  0  0  0  0  0  0  0  0
    3.2697   -2.0909   -2.1427 O   0  0  0  0  0  0  0  0  0  0  0  0
    4.6845   -1.1645   -3.7779 C   0  0  0  0  0  0  0  0  0  0  0  0
    5.4123   -0.4862   -3.3041 H   0  0  0  0  0  0  0  0  0  0  0  0
    5.1949   -2.1387   -3.8443 H   0  0  0  0  0  0  0  0  0  0  0  0
    4.5953   -0.8128   -4.8182 H   0  0  0  0  0  0  0  0  0  0  0  0
    2.4540   -0.3103   -3.4040 N   0  0  0  0  0  0  0  0  0  0  0  0
    1.1494   -0.2128   -2.8039 C   0  0  2  0  0  0  0  0  0  0  0  0
    1.3350    0.0367   -1.3130 C   0  0  0  0  0  0  0  0  0  0  0  0
    2.3625   -0.2586   -0.7063 O   0  0  0  0  0  0  0  0  0  0  0  0
    0.3331   -1.4728   -3.0467 C   0  0  0  0  0  0  0  0  0  0  0  0
    2.6924    0.3404   -4.1502 H   0  0  0  0  0  0  0  0  0  0  0  0
    0.6550    0.6514   -3.2607 H   0  0  0  0  0  0  0  0  0  0  0  0
    0.8129   -2.3494   -2.5963 H   0  0  0  0  0  0  0  0  0  0  0  0
   -0.6690   -1.3857   -2.6142 H   0  0  0  0  0  0  0  0  0  0  0  0
    0.2259   -1.6670   -4.1194 H   0  0  0  0  0  0  0  0  0  0  0  0
    0.2019    0.5893   -0.7269 N   0  0  0  0  0  0  0  0  0  0  0  0
    0.1242    0.9059    0.6756 C   0  0  2  0  0  0  0  0  0  0  0  0
   -1.3361    0.7538    1.0900 C   0  0  0  0  0  0  0  0  0  0  0  0
   -2.0190   -0.2229    0.7887 O   0  0  0  0  0  0  0  0  0  0  0  0
    0.6161    2.3271    0.9781 C   0  0  0  0  0  0  0  0  0  0  0  0
    2.1185    2.5605    0.7189 C   0  0  0  0  0  0  0  0  0  0  0  0
    2.4516    4.0424    0.9132 C   0  0  0  0  0  0  0  0  0  0  0  0
    2.5442    2.1162   -0.6811 C   0  0  0  0  0  0  0  0  0  0  0  0
   -0.5975    0.8179   -1.3140 H   0  0  0  0  0  0  0  0  0  0  0  0
    0.7203    0.1564    1.2059 H   0  0  0  0  0  0  0  0  0  0  0  0
    0.4006    2.5603    2.0303 H   0  0  0  0  0  0  0  0  0  0  0  0
    0.0341    3.0470    0.3875 H   0  0  0  0  0  0  0  0  0  0  0  0
    2.7028    1.9918    1.4525 H   0  0  0  0  0  0  0  0  0  0  0  0
    1.8941    4.6630    0.2036 H   0  0  0  0  0  0  0  0  0  0  0  0
    3.5185    4.2262    0.7485 H   0  0  0  0  0  0  0  0  0  0  0  0
    2.2016    4.3773    1.9257 H   0  0  0  0  0  0  0  0  0  0  0  0
    1.9883    2.6561   -1.4552 H   0  0  0  0  0  0  0  0  0  0  0  0
    3.6118    2.3035   -0.8398 H   0  0  0  0  0  0  0  0  0  0  0  0
    2.3801    1.0445   -0.8267 H   0  0  0  0  0  0  0  0  0  0  0  0
   -1.7668    1.8129    1.8770 N   0  0  0  0  0  0  0  0  0  0  0  0
   -3.1013    1.9019    2.4246 C   0  0  2  0  0  0  0  0  0  0  0  0
   -3.5191    0.5081    2.8745 C   0  0  0  0  0  0  0  0  0  0  0  0
   -3.0145   -0.5201    2.4282 O   0  0  0  0  0  0  0  0  0  0  0  0
   -4.0816    2.4605    1.4049 C   0  0  0  0  0  0  0  0  0  0  0  0
   -1.1200    2.5649    2.0955 H   0  0  0  0  0  0  0  0  0  0  0  0
   -3.0426    2.5649    3.2947 H   0  0  0  0  0  0  0  0  0  0  0  0
   -4.1539    1.8097    0.5259 H   0  0  0  0  0  0  0  0  0  0  0  0
   -5.0863    2.5541    1.8303 H   0  0  0  0  0  0  0  0  0  0  0  0
   -3.7637    3.4504    1.0603 H   0  0  0  0  0  0  0  0  0  0  0  0
   -4.5515    0.5464    3.8012 N   0  0  0  0  0  0  0  0  0  0  0  0
   -5.1324   -0.6468    4.3709 C   0  0  0  0  0  0  0  0  0  0  0  0
   -4.8958    1.4441    4.1288 H   0  0  0  0  0  0  0  0  0  0  0  0
   -6.0012   -0.9549    3.7707 H   0  0  0  0  0  0  0  0  0  0  0  0
   -4.3843   -1.4533    4.3737 H   0  0  0  0  0  0  0  0  0  0  0  0
   -5.4539   -0.4414    5.4026 H   0  0  0  0  0  0  0  0  0  0  0  0
  1  3  1  0  0  0  0
  1  7  1  0  0  0  0
  1  2  2  0  0  0  0
 37 38  1  0  0  0  0
 38 46  1  0  0  0  0
 38 39  2  0  0  0  0
  8  9  1  0  0  0  0
  9 17  1  0  0  0  0
  9 10  2  0  0  0  0
 18 19  1  0  0  0  0
 19 36  1  0  0  0  0
 19 20  2  0  0  0  0
 37 40  1  0  0  0  0
  8 11  1  0  0  0  0
 22 23  1  0  0  0  0
 22 24  1  0  0  0  0
 46 47  1  0  0  0  0
 18 21  1  0  0  0  0
 21 22  1  0  0  0  0
 36 37  1  0  0  0  0
  7  8  1  0  0  0  0
 17 18  1  0  0  0  0
  3  4  1  0  0  0  0
  3  5  1  0  0  0  0
  3  6  1  0  0  0  0
 40 43  1  0  0  0  0
 40 44  1  0  0  0  0
 40 45  1  0  0  0  0
 11 14  1  0  0  0  0
 11 15  1  0  0  0  0
 11 16  1  0  0  0  0
 23 30  1  0  0  0  0
 23 31  1  0  0  0  0
 23 32  1  0  0  0  0
 24 33  1  0  0  0  0
 24 34  1  0  0  0  0
 24 35  1  0  0  0  0
 47 49  1  0  0  0  0
 47 50  1  0  0  0  0
 47 51  1  0  0  0  0
 21 27  1  0  0  0  0
 21 28  1  0  0  0  0
 37 42  1  0  0  0  0
  8 13  1  0  0  0  0
 18 26  1  0  0  0  0
 22 29  1  0  0  0  0
 46 48  1  0  0  0  0
  7 12  1  0  0  0  0
 36 41  1  0  0  0  0
 17 25  1  0  0  0  0
M  END
$$$$

  -OEChem-05262214473D

 51 50  0     1  0  0  0  0  0999 V2000
    3.4018   -1.2440   -3.0186 C   0  0  0  0  0  0  0  0  0  0  0  0
    3.2697   -2.0909   -2.1427 O   0  0  0  0  0  0  0  0  0  0  0  0
    4.6845   -1.1645   -3.7779 C   0  0  0  0  0  0  0  0  0  0  0  0
    5.4123   -0.4862   -3.3041 H   0  0  0  0  0  0  0  0  0  0  0  0
    5.1949   -2.1387   -3.8443 H   0  0  0  0  0  0  0  0  0  0  0  0
    4.5953   -0.8128   -4.8182 H   0  0  0  0  0  0  0  0  0  0  0  0
    2.4540   -0.3103   -3.4040 N   0  0  0  0  0  0  0  0  0  0  0  0
    1.1494   -0.2128   -2.8039 C   0  0  2  0  0  0  0  0  0  0  0  0
    1.3350    0.0367   -1.3130 C   0  0  0  0  0  0  0  0  0  0  0  0
    2.3625   -0.2586   -0.7063 O   0  0  0  0  0  0  0  0  0  0  0  0
    0.3331   -1.4728   -3.0467 C   0  0  0  0  0  0  0  0  0  0  0  0
    2.6924    0.3404   -4.1502 H   0  0  0  0  0  0  0  0  0  0  0  0
    0.6550    0.6514   -3.2607 H   0  0  0  0  0  0  0  0  0  0  0  0
    0.8129   -2.3494   -2.5963 H   0  0  0  0  0  0  0  0  0  0  0  0
   -0.6690   -1.3857   -2.6142 H   0  0  0  0  0  0  0  0  0  0  0  0
    0.2259   -1.6670   -4.1194 H   0  0  0  0  0  0  0  0  0  0  0  0
    0.2019    0.5893   -0.7269 N   0  0  0  0  0  0  0  0  0  0  0  0
    0.1242    0.9059    0.6756 C   0  0  2  0  0  0  0  0  0  0  0  0
   -1.3361    0.7538    1.0900 C   0  0  0  0  0  0  0  0  0  0  0  0
   -1.9411   -0.3145    1.0295 O   0  0  0  0  0  0  0  0  0  0  0  0
    0.6161    2.3271    0.9781 C   0  0  0  0  0  0  0  0  0  0  0  0
    2.1185    2.5605    0.7189 C   0  0  0  0  0  0  0  0  0  0  0  0
    2.4516    4.0424    0.9132 C   0  0  0  0  0  0  0  0  0  0  0  0
    2.5442    2.1162   -0.6811 C   0  0  0  0  0  0  0  0  0  0  0  0
   -0.5975    0.8179   -1.3140 H   0  0  0  0  0  0  0  0  0  0  0  0
    0.7203    0.1564    1.2059 H   0  0  0  0  0  0  0  0  0  0  0  0
    0.4006    2.5603    2.0303 H   0  0  0  0  0  0  0  0  0  0  0  0
    0.0341    3.0470    0.3875 H   0  0  0  0  0  0  0  0  0  0  0  0
    2.7028    1.9918    1.4525 H   0  0  0  0  0  0  0  0  0  0  0  0
    1.8941    4.6630    0.2036 H   0  0  0  0  0  0  0  0  0  0  0  0
    3.5185    4.2262    0.7485 H   0  0  0  0  0  0  0  0  0  0  0  0
    2.2016    4.3773    1.9257 H   0  0  0  0  0  0  0  0  0  0  0  0
    1.9883    2.6561   -1.4552 H   0  0  0  0  0  0  0  0  0  0  0  0
    3.6118    2.3035   -0.8398 H   0  0  0  0  0  0  0  0  0  0  0  0
    2.3801    1.0445   -0.8267 H   0  0  0  0  0  0  0  0  0  0  0  0
   -1.8639    1.9397    1.5815 N   0  0  0  0  0  0  0  0  0  0  0  0
   -3.2195    2.0627    2.0671 C   0  0  2  0  0  0  0  0  0  0  0  0
   -3.5582    0.7963    2.8423 C   0  0  0  0  0  0  0  0  0  0  0  0
   -2.9706   -0.2703    2.6743 O   0  0  0  0  0  0  0  0  0  0  0  0
   -4.1992    2.2787    0.9241 C   0  0  0  0  0  0  0  0  0  0  0  0
   -1.2769    2.7679    1.6170 H   0  0  0  0  0  0  0  0  0  0  0  0
   -3.2356    2.9224    2.7458 H   0  0  0  0  0  0  0  0  0  0  0  0
   -4.1971    1.4276    0.2334 H   0  0  0  0  0  0  0  0  0  0  0  0
   -5.2220    2.4002    1.2957 H   0  0  0  0  0  0  0  0  0  0  0  0
   -3.9365    3.1735    0.3495 H   0  0  0  0  0  0  0  0  0  0  0  0
   -4.6224    0.9861    3.7127 N   0  0  0  0  0  0  0  0  0  0  0  0
   -5.1414   -0.0690    4.5514 C   0  0  0  0  0  0  0  0  0  0  0  0
   -5.0373    1.9090    3.8010 H   0  0  0  0  0  0  0  0  0  0  0  0
   -5.9662   -0.5788    4.0320 H   0  0  0  0  0  0  0  0  0  0  0  0
   -4.3414   -0.7926    4.7673 H   0  0  0  0  0  0  0  0  0  0  0  0
   -5.5115    0.3605    5.4940 H   0  0  0  0  0  0  0  0  0  0  0  0
  1  3  1  0  0  0  0
  1  7  1  0  0  0  0
  1  2  2  0  0  0  0
 37 38  1  0  0  0  0
 38 46  1  0  0  0  0
 38 39  2  0  0  0  0
  8  9  1  0  0  0  0
  9 17  1  0  0  0  0
  9 10  2  0  0  0  0
 18 19  1  0  0  0  0
 19 36  1  0  0  0  0
 19 20  2  0  0  0  0
 37 40  1  0  0  0  0
  8 11  1  0  0  0  0
 22 23  1  0  0  0  0
 22 24  1  0  0  0  0
 46 47  1  0  0  0  0
 18 21  1  0  0  0  0
 21 22  1  0  0  0  0
 36 37  1  0  0  0  0
  7  8  1  0  0  0  0
 17 18  1  0  0  0  0
  3  4  1  0  0  0  0
  3  5  1  0  0  0  0
  3  6  1  0  0  0  0
 40 43  1  0  0  0  0
 40 44  1  0  0  0  0
 40 45  1  0  0  0  0
 11 14  1  0  0  0  0
 11 15  1  0  0  0  0
 11 16  1  0  0  0  0
 23 30  1  0  0  0  0
 23 31  1  0  0  0  0
 23 32  1  0  0  0  0
 24 33  1  0  0  0  0
 24 34  1  0  0  0  0
 24 35  1  0  0  0  0
 47 49  1  0  0  0  0
 47 50  1  0  0  0  0
 47 51  1  0  0  0  0
 21 27  1  0  0  0  0
 21 28  1  0  0  0  0
 37 42  1  0  0  0  0
  8 13  1  0  0  0  0
 18 26  1  0  0  0  0
 22 29  1  0  0  0  0
 46 48  1  0  0  0  0
  7 12  1  0  0  0  0
 36 41  1  0  0  0  0
 17 25  1  0  0  0  0
M  END
$$$$

  -OEChem-05262214473D

 51 50  0     1  0  0  0  0  0999 V2000
    3.4018   -1.2440   -3.0186 C   0  0  0  0  0  0  0  0  0  0  0  0
    3.2697   -2.0909   -2.1427 O   0  0  0  0  0  0  0  0  0  0  0  0
    4.6845   -1.1645   -3.7779 C   0  0  0  0  0  0  0  0  0  0  0  0
    5.4123   -0.4862   -3.3041 H   0  0  0  0  0  0  0  0  0  0  0  0
    5.1949   -2.1387   -3.8443 H   0  0  0  0  0  0  0  0  0  0  0  0
    4.5953   -0.8128   -4.8182 H   0  0  0  0  0  0  0  0  0  0  0  0
    2.4540   -0.3103   -3.4040 N   0  0  0  0  0  0  0  0  0  0  0  0
    1.1494   -0.2128   -2.8039 C   0  0  2  0  0  0  0  0  0  0  0  0
    1.3350    0.0367   -1.3130 C   0  0  0  0  0  0  0  0  0  0  0  0
    2.3625   -0.2586   -0.7063 O   0  0  0  0  0  0  0  0  0  0  0  0
    0.3331   -1.4728   -3.0467 C   0  0  0  0  0  0  0  0  0  0  0  0
    2.6924    0.3404   -4.1502 H   0  0  0  0  0  0  0  0  0  0  0  0
    0.6550    0.6514   -3.2607 H   0  0  0  0  0  0  0  0  0  0  0  0
    0.8129   -2.3494   -2.5963 H   0  0  0  0  0  0  0  0  0  0  0  0
   -0.6690   -1.3857   -2.6142 H   0  0  0  0  0  0  0  0  0  0  0  0
    0.2259   -1.6670   -4.1194 H   0  0  0  0  0  0  0  0  0  0  0  0
    0.2019    0.5893   -0.7269 N   0  0  0  0  0  0  0  0  0  0  0  0
    0.1242    0.9059    0.6756 C   0  0  2  0  0  0  0  0  0  0  0  0
   -1.3361    0.7538    1.0900 C   0  0  0  0  0  0  0  0  0  0  0  0
   -1.8657   -0.3379    1.2868 O   0  0  0  0  0  0  0  0  0  0  0  0
    0.6161    2.3271    0.9781 C   0  0  0  0  0  0  0  0  0  0  0  0
    2.1185    2.5605    0.7189 C   0  0  0  0  0  0  0  0  0  0  0  0
    2.4516    4.0424    0.9132 C   0  0  0  0  0  0  0  0  0  0  0  0
    2.5442    2.1162   -0.6811 C   0  0  0  0  0  0  0  0  0  0  0  0
   -0.5975    0.8179   -1.3140 H   0  0  0  0  0  0  0  0  0  0  0  0
    0.7203    0.1564    1.2059 H   0  0  0  0  0  0  0  0  0  0  0  0
    0.4006    2.5603    2.0303 H   0  0  0  0  0  0  0  0  0  0  0  0
    0.0341    3.0470    0.3875 H   0  0  0  0  0  0  0  0  0  0  0  0
    2.7028    1.9918    1.4525 H   0  0  0  0  0  0  0  0  0  0  0  0
    1.8941    4.6630    0.2036 H   0  0  0  0  0  0  0  0  0  0  0  0
    3.5185    4.2262    0.7485 H   0  0  0  0  0  0  0  0  0  0  0  0
    2.2016    4.3773    1.9257 H   0  0  0  0  0  0  0  0  0  0  0  0
    1.9883    2.6561   -1.4552 H   0  0  0  0  0  0  0  0  0  0  0  0
    3.6118    2.3035   -0.8398 H   0  0  0  0  0  0  0  0  0  0  0  0
    2.3801    1.0445   -0.8267 H   0  0  0  0  0  0  0  0  0  0  0  0
   -1.9589    1.9822    1.2622 N   0  0  0  0  0  0  0  0  0  0  0  0
   -3.3358    2.1212    1.6788 C   0  0  2  0  0  0  0  0  0  0  0  0
   -3.6155    1.0639    2.7388 C   0  0  0  0  0  0  0  0  0  0  0  0
   -2.9522    0.0351    2.8513 O   0  0  0  0  0  0  0  0  0  0  0  0
   -4.2875    1.9757    0.5016 C   0  0  0  0  0  0  0  0  0  0  0  0
   -1.4304    2.8344    1.1006 H   0  0  0  0  0  0  0  0  0  0  0  0
   -3.4330    3.1182    2.1221 H   0  0  0  0  0  0  0  0  0  0  0  0
   -4.2044    0.9830    0.0445 H   0  0  0  0  0  0  0  0  0  0  0  0
   -5.3284    2.1096    0.8140 H   0  0  0  0  0  0  0  0  0  0  0  0
   -4.0657    2.7179   -0.2729 H   0  0  0  0  0  0  0  0  0  0  0  0
   -4.7195    1.3839    3.5165 N   0  0  0  0  0  0  0  0  0  0  0  0
   -5.1953    0.5331    4.5823 C   0  0  0  0  0  0  0  0  0  0  0  0
   -5.1981    2.2669    3.3655 H   0  0  0  0  0  0  0  0  0  0  0  0
   -5.9656   -0.1483    4.1921 H   0  0  0  0  0  0  0  0  0  0  0  0
   -4.3566   -0.0539    4.9849 H   0  0  0  0  0  0  0  0  0  0  0  0
   -5.6259    1.1536    5.3821 H   0  0  0  0  0  0  0  0  0  0  0  0
  1  3  1  0  0  0  0
  1  7  1  0  0  0  0
  1  2  2  0  0  0  0
 37 38  1  0  0  0  0
 38 46  1  0  0  0  0
 38 39  2  0  0  0  0
  8  9  1  0  0  0  0
  9 17  1  0  0  0  0
  9 10  2  0  0  0  0
 18 19  1  0  0  0  0
 19 36  1  0  0  0  0
 19 20  2  0  0  0  0
 37 40  1  0  0  0  0
  8 11  1  0  0  0  0
 22 23  1  0  0  0  0
 22 24  1  0  0  0  0
 46 47  1  0  0  0  0
 18 21  1  0  0  0  0
 21 22  1  0  0  0  0
 36 37  1  0  0  0  0
  7  8  1  0  0  0  0
 17 18  1  0  0  0  0
  3  4  1  0  0  0  0
  3  5  1  0  0  0  0
  3  6  1  0  0  0  0
 40 43  1  0  0  0  0
 40 44  1  0  0  0  0
 40 45  1  0  0  0  0
 11 14  1  0  0  0  0
 11 15  1  0  0  0  0
 11 16  1  0  0  0  0
 23 30  1  0  0  0  0
 23 31  1  0  0  0  0
 23 32  1  0  0  0  0
 24 33  1  0  0  0  0
 24 34  1  0  0  0  0
 24 35  1  0  0  0  0
 47 49  1  0  0  0  0
 47 50  1  0  0  0  0
 47 51  1  0  0  0  0
 21 27  1  0  0  0  0
 21 28  1  0  0  0  0
 37 42  1  0  0  0  0
  8 13  1  0  0  0  0
 18 26  1  0  0  0  0
 22 29  1  0  0  0  0
 46 48  1  0  0  0  0
  7 12  1  0  0  0  0
 36 41  1  0  0  0  0
 17 25  1  0  0  0  0
M  END
$$$$

  -OEChem-05262214473D

 51 50  0     1  0  0  0  0  0999 V2000
    3.4018   -1.2440   -3.0186 C   0  0  0  0  0  0  0  0  0  0  0  0
    3.2697   -2.0909   -2.1427 O   0  0  0  0  0  0  0  0  0  0  0  0
    4.6845   -1.1645   -3.7779 C   0  0  0  0  0  0  0  0  0  0  0  0
    5.4123   -0.4862   -3.3041 H   0  0  0  0  0  0  0  0  0  0  0  0
    5.1949   -2.1387   -3.8443 H   0  0  0  0  0  0  0  0  0  0  0  0
    4.5953   -0.8128   -4.8182 H   0  0  0  0  0  0  0  0  0  0  0  0
    2.4540   -0.3103   -3.4040 N   0  0  0  0  0  0  0  0  0  0  0  0
    1.1494   -0.2128   -2.8039 C   0  0  2  0  0  0  0  0  0  0  0  0
    1.3350    0.0367   -1.3130 C   0  0  0  0  0  0  0  0  0  0  0  0
    2.3625   -0.2586   -0.7063 O   0  0  0  0  0  0  0  0  0  0  0  0
    0.3331   -1.4728   -3.0467 C   0  0  0  0  0  0  0  0  0  0  0  0
    2.6924    0.3404   -4.1502 H   0  0  0  0  0  0  0  0  0  0  0  0
    0.6550    0.6514   -3.2607 H   0  0  0  0  0  0  0  0  0  0  0  0
    0.8129   -2.3494   -2.5963 H   0  0  0  0  0  0  0  0  0  0  0  0
   -0.6690   -1.3857   -2.6142 H   0  0  0  0  0  0  0  0  0  0  0  0
    0.2259   -1.6670   -4.1194 H   0  0  0  0  0  0  0  0  0  0  0  0
    0.2019    0.5893   -0.7269 N   0  0  0  0  0  0  0  0  0  0  0  0
    0.1242    0.9059    0.6756 C   0  0  2  0  0  0  0  0  0  0  0  0
   -1.3361    0.7538    1.0900 C   0  0  0  0  0  0  0  0  0  0  0  0
   -1.7978   -0.2915    1.5431 O   0  0  0  0  0  0  0  0  0  0  0  0
    0.6161    2.3271    0.9781 C   0  0  0  0  0  0  0  0  0  0  0  0
    2.1185    2.5605    0.7189 C   0  0  0  0  0  0  0  0  0  0  0  0
    2.4516    4.0424    0.9132 C   0  0  0  0  0  0  0  0  0  0  0  0
    2.5442    2.1162   -0.6811 C   0  0  0  0  0  0  0  0  0  0  0  0
   -0.5975    0.8179   -1.3140 H   0  0  0  0  0  0  0  0  0  0  0  0
    0.7203    0.1564    1.2059 H   0  0  0  0  0  0  0  0  0  0  0  0
    0.4006    2.5603    2.0303 H   0  0  0  0  0  0  0  0  0  0  0  0
    0.0341    3.0470    0.3875 H   0  0  0  0  0  0  0  0  0  0  0  0
    2.7028    1.9918    1.4525 H   0  0  0  0  0  0  0  0  0  0  0  0
    1.8941    4.6630    0.2036 H   0  0  0  0  0  0  0  0  0  0  0  0
    3.5185    4.2262    0.7485 H   0  0  0  0  0  0  0  0  0  0  0  0
    2.2016    4.3773    1.9257 H   0  0  0  0  0  0  0  0  0  0  0  0
    1.9883    2.6561   -1.4552 H   0  0  0  0  0  0  0  0  0  0  0  0
    3.6118    2.3035   -0.8398 H   0  0  0  0  0  0  0  0  0  0  0  0
    2.3801    1.0445   -0.8267 H   0  0  0  0  0  0  0  0  0  0  0  0
   -2.0455    1.9375    0.9408 N   0  0  0  0  0  0  0  0  0  0  0  0
   -3.4422    2.0733    1.2864 C   0  0  2  0  0  0  0  0  0  0  0  0
   -3.6869    1.2927    2.5710 C   0  0  0  0  0  0  0  0  0  0  0  0
   -2.9604    0.3752    2.9471 O   0  0  0  0  0  0  0  0  0  0  0  0
   -4.3406    1.5722    0.1664 C   0  0  0  0  0  0  0  0  0  0  0  0
   -1.5700    2.7598    0.5813 H   0  0  0  0  0  0  0  0  0  0  0  0
   -3.6213    3.1390    1.4661 H   0  0  0  0  0  0  0  0  0  0  0  0
   -4.1754    0.5062   -0.0281 H   0  0  0  0  0  0  0  0  0  0  0  0
   -5.3984    1.7021    0.4180 H   0  0  0  0  0  0  0  0  0  0  0  0
   -4.1424    2.1144   -0.7645 H   0  0  0  0  0  0  0  0  0  0  0  0
   -4.8362    1.7127    3.2260 N   0  0  0  0  0  0  0  0  0  0  0  0
   -5.2905    1.1187    4.4616 C   0  0  0  0  0  0  0  0  0  0  0  0
   -5.3674    2.4934    2.8520 H   0  0  0  0  0  0  0  0  0  0  0  0
   -5.9994    0.3073    4.2401 H   0  0  0  0  0  0  0  0  0  0  0  0
   -4.4288    0.7126    5.0117 H   0  0  0  0  0  0  0  0  0  0  0  0
   -5.7892    1.8839    5.0745 H   0  0  0  0  0  0  0  0  0  0  0  0
  1  3  1  0  0  0  0
  1  7  1  0  0  0  0
  1  2  2  0  0  0  0
 37 38  1  0  0  0  0
 38 46  1  0  0  0  0
 38 39  2  0  0  0  0
  8  9  1  0  0  0  0
  9 17  1  0  0  0  0
  9 10  2  0  0  0  0
 18 19  1  0  0  0  0
 19 36  1  0  0  0  0
 19 20  2  0  0  0  0
 37 40  1  0  0  0  0
  8 11  1  0  0  0  0
 22 23  1  0  0  0  0
 22 24  1  0  0  0  0
 46 47  1  0  0  0  0
 18 21  1  0  0  0  0
 21 22  1  0  0  0  0
 36 37  1  0  0  0  0
  7  8  1  0  0  0  0
 17 18  1  0  0  0  0
  3  4  1  0  0  0  0
  3  5  1  0  0  0  0
  3  6  1  0  0  0  0
 40 43  1  0  0  0  0
 40 44  1  0  0  0  0
 40 45  1  0  0  0  0
 11 14  1  0  0  0  0
 11 15  1  0  0  0  0
 11 16  1  0  0  0  0
 23 30  1  0  0  0  0
 23 31  1  0  0  0  0
 23 32  1  0  0  0  0
 24 33  1  0  0  0  0
 24 34  1  0  0  0  0
 24 35  1  0  0  0  0
 47 49  1  0  0  0  0
 47 50  1  0  0  0  0
 47 51  1  0  0  0  0
 21 27  1  0  0  0  0
 21 28  1  0  0  0  0
 37 42  1  0  0  0  0
  8 13  1  0  0  0  0
 18 26  1  0  0  0  0
 22 29  1  0  0  0  0
 46 48  1  0  0  0  0
  7 12  1  0  0  0  0
 36 41  1  0  0  0  0
 17 25  1  0  0  0  0
M  END
$$$$

  -OEChem-05262214473D

 51 50  0     1  0  0  0  0  0999 V2000
    3.4018   -1.2440   -3.0186 C   0  0  0  0  0  0  0  0  0  0  0  0
    3.2697   -2.0909   -2.1427 O   0  0  0  0  0  0  0  0  0  0  0  0
    4.6845   -1.1645   -3.7779 C   0  0  0  0  0  0  0  0  0  0  0  0
    5.4123   -0.4862   -3.3041 H   0  0  0  0  0  0  0  0  0  0  0  0
    5.1949   -2.1387   -3.8443 H   0  0  0  0  0  0  0  0  0  0  0  0
    4.5953   -0.8128   -4.8182 H   0  0  0  0  0  0  0  0  0  0  0  0
    2.4540   -0.3103   -3.4040 N   0  0  0  0  0  0  0  0  0  0  0  0
    1.1494   -0.2128   -2.8039 C   0  0  2  0  0  0  0  0  0  0  0  0
    1.3350    0.0367   -1.3130 C   0  0  0  0  0  0  0  0  0  0  0  0
    2.3625   -0.2586   -0.7063 O   0  0  0  0  0  0  0  0  0  0  0  0
    0.3331   -1.4728   -3.0467 C   0  0  0  0  0  0  0  0  0  0  0  0
    2.6924    0.3404   -4.1502 H   0  0  0  0  0  0  0  0  0  0  0  0
    0.6550    0.6514   -3.2607 H   0  0  0  0  0  0  0  0  0  0  0  0
    0.8129   -2.3494   -2.5963 H   0  0  0  0  0  0  0  0  0  0  0  0
   -0.6690   -1.3857   -2.6142 H   0  0  0  0  0  0  0  0  0  0  0  0
    0.2259   -1.6670   -4.1194 H   0  0  0  0  0  0  0  0  0  0  0  0
    0.2019    0.5893   -0.7269 N   0  0  0  0  0  0  0  0  0  0  0  0
    0.1242    0.9059    0.6756 C   0  0  2  0  0  0  0  0  0  0  0  0
   -1.3361    0.7538    1.0900 C   0  0  0  0  0  0  0  0  0  0  0  0
   -1.7420   -0.1783    1.7809 O   0  0  0  0  0  0  0  0  0  0  0  0
    0.6161    2.3271    0.9781 C   0  0  0  0  0  0  0  0  0  0  0  0
    2.1185    2.5605    0.7189 C   0  0  0  0  0  0  0  0  0  0  0  0
    2.4516    4.0424    0.9132 C   0  0  0  0  0  0  0  0  0  0  0  0
    2.5442    2.1162   -0.6811 C   0  0  0  0  0  0  0  0  0  0  0  0
   -0.5975    0.8179   -1.3140 H   0  0  0  0  0  0  0  0  0  0  0  0
    0.7203    0.1564    1.2059 H   0  0  0  0  0  0  0  0  0  0  0  0
    0.4006    2.5603    2.0303 H   0  0  0  0  0  0  0  0  0  0  0  0
    0.0341    3.0470    0.3875 H   0  0  0  0  0  0  0  0  0  0  0  0
    2.7028    1.9918    1.4525 H   0  0  0  0  0  0  0  0  0  0  0  0
    1.8941    4.6630    0.2036 H   0  0  0  0  0  0  0  0  0  0  0  0
    3.5185    4.2262    0.7485 H   0  0  0  0  0  0  0  0  0  0  0  0
    2.2016    4.3773    1.9257 H   0  0  0  0  0  0  0  0  0  0  0  0
    1.9883    2.6561   -1.4552 H   0  0  0  0  0  0  0  0  0  0  0  0
    3.6118    2.3035   -0.8398 H   0  0  0  0  0  0  0  0  0  0  0  0
    2.3801    1.0445   -0.8267 H   0  0  0  0  0  0  0  0  0  0  0  0
   -2.1177    1.8085    0.6391 N   0  0  0  0  0  0  0  0  0  0  0  0
   -3.5315    1.9223    0.9164 C   0  0  2  0  0  0  0  0  0  0  0  0
   -3.7677    1.4672    2.3505 C   0  0  0  0  0  0  0  0  0  0  0  0
   -2.9948    0.7268    2.9551 O   0  0  0  0  0  0  0  0  0  0  0  0
   -4.3549    1.0956   -0.0589 C   0  0  0  0  0  0  0  0  0  0  0  0
   -1.6863    2.5494    0.0945 H   0  0  0  0  0  0  0  0  0  0  0  0
   -3.7878    2.9832    0.8224 H   0  0  0  0  0  0  0  0  0  0  0  0
   -4.1119    0.0297    0.0207 H   0  0  0  0  0  0  0  0  0  0  0  0
   -5.4271    1.2054    0.1346 H   0  0  0  0  0  0  0  0  0  0  0  0
   -4.1614    1.4044   -1.0918 H   0  0  0  0  0  0  0  0  0  0  0  0
   -4.9645    1.9501    2.8609 N   0  0  0  0  0  0  0  0  0  0  0  0
   -5.4206    1.6477    4.1975 C   0  0  0  0  0  0  0  0  0  0  0  0
   -5.5337    2.5731    2.2955 H   0  0  0  0  0  0  0  0  0  0  0  0
   -6.0654    0.7568    4.1727 H   0  0  0  0  0  0  0  0  0  0  0  0
   -4.5532    1.4544    4.8458 H   0  0  0  0  0  0  0  0  0  0  0  0
   -5.9904    2.5017    4.5924 H   0  0  0  0  0  0  0  0  0  0  0  0
  1  3  1  0  0  0  0
  1  7  1  0  0  0  0
  1  2  2  0  0  0  0
 37 38  1  0  0  0  0
 38 46  1  0  0  0  0
 38 39  2  0  0  0  0
  8  9  1  0  0  0  0
  9 17  1  0  0  0  0
  9 10  2  0  0  0  0
 18 19  1  0  0  0  0
 19 36  1  0  0  0  0
 19 20  2  0  0  0  0
 37 40  1  0  0  0  0
  8 11  1  0  0  0  0
 22 23  1  0  0  0  0
 22 24  1  0  0  0  0
 46 47  1  0  0  0  0
 18 21  1  0  0  0  0
 21 22  1  0  0  0  0
 36 37  1  0  0  0  0
  7  8  1  0  0  0  0
 17 18  1  0  0  0  0
  3  4  1  0  0  0  0
  3  5  1  0  0  0  0
  3  6  1  0  0  0  0
 40 43  1  0  0  0  0
 40 44  1  0  0  0  0
 40 45  1  0  0  0  0
 11 14  1  0  0  0  0
 11 15  1  0  0  0  0
 11 16  1  0  0  0  0
 23 30  1  0  0  0  0
 23 31  1  0  0  0  0
 23 32  1  0  0  0  0
 24 33  1  0  0  0  0
 24 34  1  0  0  0  0
 24 35  1  0  0  0  0
 47 49  1  0  0  0  0
 47 50  1  0  0  0  0
 47 51  1  0  0  0  0
 21 27  1  0  0  0  0
 21 28  1  0  0  0  0
 37 42  1  0  0  0  0
  8 13  1  0  0  0  0
 18 26  1  0  0  0  0
 22 29  1  0  0  0  0
 46 48  1  0  0  0  0
  7 12  1  0  0  0  0
 36 41  1  0  0  0  0
 17 25  1  0  0  0  0
M  END
$$$$

  -OEChem-05262214473D

 51 50  0     1  0  0  0  0  0999 V2000
    3.4018   -1.2440   -3.0186 C   0  0  0  0  0  0  0  0  0  0  0  0
    3.2697   -2.0909   -2.1427 O   0  0  0  0  0  0  0  0  0  0  0  0
    4.6845   -1.1645   -3.7779 C   0  0  0  0  0  0  0  0  0  0  0  0
    5.4123   -0.4862   -3.3041 H   0  0  0  0  0  0  0  0  0  0  0  0
    5.1949   -2.1387   -3.8443 H   0  0  0  0  0  0  0  0  0  0  0  0
    4.5953   -0.8128   -4.8182 H   0  0  0  0  0  0  0  0  0  0  0  0
    2.4540   -0.3103   -3.4040 N   0  0  0  0  0  0  0  0  0  0  0  0
    1.1494   -0.2128   -2.8039 C   0  0  2  0  0  0  0  0  0  0  0  0
    1.3350    0.0367   -1.3130 C   0  0  0  0  0  0  0  0  0  0  0  0
    2.3625   -0.2586   -0.7063 O   0  0  0  0  0  0  0  0  0  0  0  0
    0.3331   -1.4728   -3.0467 C   0  0  0  0  0  0  0  0  0  0  0  0
    2.6924    0.3404   -4.1502 H   0  0  0  0  0  0  0  0  0  0  0  0
    0.6550    0.6514   -3.2607 H   0  0  0  0  0  0  0  0  0  0  0  0
    0.8129   -2.3494   -2.5963 H   0  0  0  0  0  0  0  0  0  0  0  0
   -0.6690   -1.3857   -2.6142 H   0  0  0  0  0  0  0  0  0  0  0  0
    0.2259   -1.6670   -4.1194 H   0  0  0  0  0  0  0  0  0  0  0  0
    0.2019    0.5893   -0.7269 N   0  0  0  0  0  0  0  0  0  0  0  0
    0.1242    0.9059    0.6756 C   0  0  2  0  0  0  0  0  0  0  0  0
   -1.3361    0.7538    1.0900 C   0  0  0  0  0  0  0  0  0  0  0  0
   -1.7023   -0.0062    1.9841 O   0  0  0  0  0  0  0  0  0  0  0  0
    0.6161    2.3271    0.9781 C   0  0  0  0  0  0  0  0  0  0  0  0
    2.1185    2.5605    0.7189 C   0  0  0  0  0  0  0  0  0  0  0  0
    2.4516    4.0424    0.9132 C   0  0  0  0  0  0  0  0  0  0  0  0
    2.5442    2.1162   -0.6811 C   0  0  0  0  0  0  0  0  0  0  0  0
   -0.5975    0.8179   -1.3140 H   0  0  0  0  0  0  0  0  0  0  0  0
    0.7203    0.1564    1.2059 H   0  0  0  0  0  0  0  0  0  0  0  0
    0.4006    2.5603    2.0303 H   0  0  0  0  0  0  0  0  0  0  0  0
    0.0341    3.0470    0.3875 H   0  0  0  0  0  0  0  0  0  0  0  0
    2.7028    1.9918    1.4525 H   0  0  0  0  0  0  0  0  0  0  0  0
    1.8941    4.6630    0.2036 H   0  0  0  0  0  0  0  0  0  0  0  0
    3.5185    4.2262    0.7485 H   0  0  0  0  0  0  0  0  0  0  0  0
    2.2016    4.3773    1.9257 H   0  0  0  0  0  0  0  0  0  0  0  0
    1.9883    2.6561   -1.4552 H   0  0  0  0  0  0  0  0  0  0  0  0
    3.6118    2.3035   -0.8398 H   0  0  0  0  0  0  0  0  0  0  0  0
    2.3801    1.0445   -0.8267 H   0  0  0  0  0  0  0  0  0  0  0  0
   -2.1706    1.6041    0.3779 N   0  0  0  0  0  0  0  0  0  0  0  0
   -3.5976    1.6786    0.5941 C   0  0  2  0  0  0  0  0  0  0  0  0
   -3.8522    1.5754    2.0921 C   0  0  0  0  0  0  0  0  0  0  0  0
   -3.0529    1.0661    2.8749 O   0  0  0  0  0  0  0  0  0  0  0  0
   -4.3294    0.5784   -0.1587 C   0  0  0  0  0  0  0  0  0  0  0  0
   -1.7712    2.2174   -0.3265 H   0  0  0  0  0  0  0  0  0  0  0  0
   -3.9210    2.6616    0.2350 H   0  0  0  0  0  0  0  0  0  0  0  0
   -4.0184   -0.4140    0.1875 H   0  0  0  0  0  0  0  0  0  0  0  0
   -5.4126    0.6534   -0.0169 H   0  0  0  0  0  0  0  0  0  0  0  0
   -4.1213    0.6361   -1.2326 H   0  0  0  0  0  0  0  0  0  0  0  0
   -5.0957    2.0799    2.4461 N   0  0  0  0  0  0  0  0  0  0  0  0
   -5.5765    2.0841    3.8080 C   0  0  0  0  0  0  0  0  0  0  0  0
   -5.6855    2.5005    1.7340 H   0  0  0  0  0  0  0  0  0  0  0  0
   -6.1589    1.1697    3.9946 H   0  0  0  0  0  0  0  0  0  0  0  0
   -4.7211    2.1211    4.4985 H   0  0  0  0  0  0  0  0  0  0  0  0
   -6.2157    2.9648    3.9683 H   0  0  0  0  0  0  0  0  0  0  0  0
  1  3  1  0  0  0  0
  1  7  1  0  0  0  0
  1  2  2  0  0  0  0
 37 38  1  0  0  0  0
 38 46  1  0  0  0  0
 38 39  2  0  0  0  0
  8  9  1  0  0  0  0
  9 17  1  0  0  0  0
  9 10  2  0  0  0  0
 18 19  1  0  0  0  0
 19 36  1  0  0  0  0
 19 20  2  0  0  0  0
 37 40  1  0  0  0  0
  8 11  1  0  0  0  0
 22 23  1  0  0  0  0
 22 24  1  0  0  0  0
 46 47  1  0  0  0  0
 18 21  1  0  0  0  0
 21 22  1  0  0  0  0
 36 37  1  0  0  0  0
  7  8  1  0  0  0  0
 17 18  1  0  0  0  0
  3  4  1  0  0  0  0
  3  5  1  0  0  0  0
  3  6  1  0  0  0  0
 40 43  1  0  0  0  0
 40 44  1  0  0  0  0
 40 45  1  0  0  0  0
 11 14  1  0  0  0  0
 11 15  1  0  0  0  0
 11 16  1  0  0  0  0
 23 30  1  0  0  0  0
 23 31  1  0  0  0  0
 23 32  1  0  0  0  0
 24 33  1  0  0  0  0
 24 34  1  0  0  0  0
 24 35  1  0  0  0  0
 47 49  1  0  0  0  0
 47 50  1  0  0  0  0
 47 51  1  0  0  0  0
 21 27  1  0  0  0  0
 21 28  1  0  0  0  0
 37 42  1  0  0  0  0
  8 13  1  0  0  0  0
 18 26  1  0  0  0  0
 22 29  1  0  0  0  0
 46 48  1  0  0  0  0
  7 12  1  0  0  0  0
 36 41  1  0  0  0  0
 17 25  1  0  0  0  0
M  END
$$$$

  -OEChem-05262214473D

 51 50  0     1  0  0  0  0  0999 V2000
    3.4018   -1.2440   -3.0186 C   0  0  0  0  0  0  0  0  0  0  0  0
    3.2697   -2.0909   -2.1427 O   0  0  0  0  0  0  0  0  0  0  0  0
    4.6845   -1.1645   -3.7779 C   0  0  0  0  0  0  0  0  0  0  0  0
    5.4123   -0.4862   -3.3041 H   0  0  0  0  0  0  0  0  0  0  0  0
    5.1949   -2.1387   -3.8443 H   0  0  0  0  0  0  0  0  0  0  0  0
    4.5953   -0.8128   -4.8182 H   0  0  0  0  0  0  0  0  0  0  0  0
    2.4540   -0.3103   -3.4040 N   0  0  0  0  0  0  0  0  0  0  0  0
    1.1494   -0.2128   -2.8039 C   0  0  2  0  0  0  0  0  0  0  0  0
    1.3350    0.0367   -1.3130 C   0  0  0  0  0  0  0  0  0  0  0  0
    2.3625   -0.2586   -0.7063 O   0  0  0  0  0  0  0  0  0  0  0  0
    0.3331   -1.4728   -3.0467 C   0  0  0  0  0  0  0  0  0  0  0  0
    2.6924    0.3404   -4.1502 H   0  0  0  0  0  0  0  0  0  0  0  0
    0.6550    0.6514   -3.2607 H   0  0  0  0  0  0  0  0  0  0  0  0
    0.8129   -2.3494   -2.5963 H   0  0  0  0  0  0  0  0  0  0  0  0
   -0.6690   -1.3857   -2.6142 H   0  0  0  0  0  0  0  0  0  0  0  0
    0.2259   -1.6670   -4.1194 H   0  0  0  0  0  0  0  0  0  0  0  0
    0.2019    0.5893   -0.7269 N   0  0  0  0  0  0  0  0  0  0  0  0
    0.1242    0.9059    0.6756 C   0  0  2  0  0  0  0  0  0  0  0  0
   -1.3361    0.7538    1.0900 C   0  0  0  0  0  0  0  0  0  0  0  0
   -1.6813    0.2132    2.1386 O   0  0  0  0  0  0  0  0  0  0  0  0
    0.6161    2.3271    0.9781 C   0  0  0  0  0  0  0  0  0  0  0  0
    2.1185    2.5605    0.7189 C   0  0  0  0  0  0  0  0  0  0  0  0
    2.4516    4.0424    0.9132 C   0  0  0  0  0  0  0  0  0  0  0  0
    2.5442    2.1162   -0.6811 C   0  0  0  0  0  0  0  0  0  0  0  0
   -0.5975    0.8179   -1.3140 H   0  0  0  0  0  0  0  0  0  0  0  0
    0.7203    0.1564    1.2059 H   0  0  0  0  0  0  0  0  0  0  0  0
    0.4006    2.5603    2.0303 H   0  0  0  0  0  0  0  0  0  0  0  0
    0.0341    3.0470    0.3875 H   0  0  0  0  0  0  0  0  0  0  0  0
    2.7028    1.9918    1.4525 H   0  0  0  0  0  0  0  0  0  0  0  0
    1.8941    4.6630    0.2036 H   0  0  0  0  0  0  0  0  0  0  0  0
    3.5185    4.2262    0.7485 H   0  0  0  0  0  0  0  0  0  0  0  0
    2.2016    4.3773    1.9257 H   0  0  0  0  0  0  0  0  0  0  0  0
    1.9883    2.6561   -1.4552 H   0  0  0  0  0  0  0  0  0  0  0  0
    3.6118    2.3035   -0.8398 H   0  0  0  0  0  0  0  0  0  0  0  0
    2.3801    1.0445   -0.8267 H   0  0  0  0  0  0  0  0  0  0  0  0
   -2.2005    1.3383    0.1747 N   0  0  0  0  0  0  0  0  0  0  0  0
   -3.6359    1.3586    0.3415 C   0  0  2  0  0  0  0  0  0  0  0  0
   -3.9349    1.6099    1.8136 C   0  0  0  0  0  0  0  0  0  0  0  0
   -3.1308    1.3698    2.7118 O   0  0  0  0  0  0  0  0  0  0  0  0
   -4.2658    0.0559   -0.1264 C   0  0  0  0  0  0  0  0  0  0  0  0
   -1.8190    1.7864   -0.6531 H   0  0  0  0  0  0  0  0  0  0  0  0
   -4.0120    2.1961   -0.2562 H   0  0  0  0  0  0  0  0  0  0  0  0
   -3.9011   -0.7947    0.4610 H   0  0  0  0  0  0  0  0  0  0  0  0
   -5.3559    0.0837   -0.0260 H   0  0  0  0  0  0  0  0  0  0  0  0
   -4.0250   -0.1381   -1.1772 H   0  0  0  0  0  0  0  0  0  0  0  0
   -5.2209    2.0933    2.0098 N   0  0  0  0  0  0  0  0  0  0  0  0
   -5.7478    2.3981    3.3196 C   0  0  0  0  0  0  0  0  0  0  0  0
   -5.8125    2.2806    1.2056 H   0  0  0  0  0  0  0  0  0  0  0  0
   -6.2737    1.5178    3.7178 H   0  0  0  0  0  0  0  0  0  0  0  0
   -4.9213    2.6673    3.9936 H   0  0  0  0  0  0  0  0  0  0  0  0
   -6.4498    3.2418    3.2450 H   0  0  0  0  0  0  0  0  0  0  0  0
  1  3  1  0  0  0  0
  1  7  1  0  0  0  0
  1  2  2  0  0  0  0
 37 38  1  0  0  0  0
 38 46  1  0  0  0  0
 38 39  2  0  0  0  0
  8  9  1  0  0  0  0
  9 17  1  0  0  0  0
  9 10  2  0  0  0  0
 18 19  1  0  0  0  0
 19 36  1  0  0  0  0
 19 20  2  0  0  0  0
 37 40  1  0  0  0  0
  8 11  1  0  0  0  0
 22 23  1  0  0  0  0
 22 24  1  0  0  0  0
 46 47  1  0  0  0  0
 18 21  1  0  0  0  0
 21 22  1  0  0  0  0
 36 37  1  0  0  0  0
  7  8  1  0  0  0  0
 17 18  1  0  0  0  0
  3  4  1  0  0  0  0
  3  5  1  0  0  0  0
  3  6  1  0  0  0  0
 40 43  1  0  0  0  0
 40 44  1  0  0  0  0
 40 45  1  0  0  0  0
 11 14  1  0  0  0  0
 11 15  1  0  0  0  0
 11 16  1  0  0  0  0
 23 30  1  0  0  0  0
 23 31  1  0  0  0  0
 23 32  1  0  0  0  0
 24 33  1  0  0  0  0
 24 34  1  0  0  0  0
 24 35  1  0  0  0  0
 47 49  1  0  0  0  0
 47 50  1  0  0  0  0
 47 51  1  0  0  0  0
 21 27  1  0  0  0  0
 21 28  1  0  0  0  0
 37 42  1  0  0  0  0
  8 13  1  0  0  0  0
 18 26  1  0  0  0  0
 22 29  1  0  0  0  0
 46 48  1  0  0  0  0
  7 12  1  0  0  0  0
 36 41  1  0  0  0  0
 17 25  1  0  0  0  0
M  END
$$$$

  -OEChem-05262214473D

 51 50  0     1  0  0  0  0  0999 V2000
    3.4018   -1.2440   -3.0186 C   0  0  0  0  0  0  0  0  0  0  0  0
    3.2697   -2.0909   -2.1427 O   0  0  0  0  0  0  0  0  0  0  0  0
    4.6845   -1.1645   -3.7779 C   0  0  0  0  0  0  0  0  0  0  0  0
    5.4123   -0.4862   -3.3041 H   0  0  0  0  0  0  0  0  0  0  0  0
    5.1949   -2.1387   -3.8443 H   0  0  0  0  0  0  0  0  0  0  0  0
    4.5953   -0.8128   -4.8182 H   0  0  0  0  0  0  0  0  0  0  0  0
    2.4540   -0.3103   -3.4040 N   0  0  0  0  0  0  0  0  0  0  0  0
    1.1494   -0.2128   -2.8039 C   0  0  2  0  0  0  0  0  0  0  0  0
    1.3350    0.0367   -1.3130 C   0  0  0  0  0  0  0  0  0  0  0  0
    2.3625   -0.2586   -0.7063 O   0  0  0  0  0  0  0  0  0  0  0  0
    0.3331   -1.4728   -3.0467 C   0  0  0  0  0  0  0  0  0  0  0  0
    2.6924    0.3404   -4.1502 H   0  0  0  0  0  0  0  0  0  0  0  0
    0.6550    0.6514   -3.2607 H   0  0  0  0  0  0  0  0  0  0  0  0
    0.8129   -2.3494   -2.5963 H   0  0  0  0  0  0  0  0  0  0  0  0
   -0.6690   -1.3857   -2.6142 H   0  0  0  0  0  0  0  0  0  0  0  0
    0.2259   -1.6670   -4.1194 H   0  0  0  0  0  0  0  0  0  0  0  0
    0.2019    0.5893   -0.7269 N   0  0  0  0  0  0  0  0  0  0  0  0
    0.1242    0.9059    0.6756 C   0  0  2  0  0  0  0  0  0  0  0  0
   -1.3361    0.7538    1.0900 C   0  0  0  0  0  0  0  0  0  0  0  0
   -1.6804    0.4649    2.2341 O   0  0  0  0  0  0  0  0  0  0  0  0
    0.6161    2.3271    0.9781 C   0  0  0  0  0  0  0  0  0  0  0  0
    2.1185    2.5605    0.7189 C   0  0  0  0  0  0  0  0  0  0  0  0
    2.4516    4.0424    0.9132 C   0  0  0  0  0  0  0  0  0  0  0  0
    2.5442    2.1162   -0.6811 C   0  0  0  0  0  0  0  0  0  0  0  0
   -0.5975    0.8179   -1.3140 H   0  0  0  0  0  0  0  0  0  0  0  0
    0.7203    0.1564    1.2059 H   0  0  0  0  0  0  0  0  0  0  0  0
    0.4006    2.5603    2.0303 H   0  0  0  0  0  0  0  0  0  0  0  0
    0.0341    3.0470    0.3875 H   0  0  0  0  0  0  0  0  0  0  0  0
    2.7028    1.9918    1.4525 H   0  0  0  0  0  0  0  0  0  0  0  0
    1.8941    4.6630    0.2036 H   0  0  0  0  0  0  0  0  0  0  0  0
    3.5185    4.2262    0.7485 H   0  0  0  0  0  0  0  0  0  0  0  0
    2.2016    4.3773    1.9257 H   0  0  0  0  0  0  0  0  0  0  0  0
    1.9883    2.6561   -1.4552 H   0  0  0  0  0  0  0  0  0  0  0  0
    3.6118    2.3035   -0.8398 H   0  0  0  0  0  0  0  0  0  0  0  0
    2.3801    1.0445   -0.8267 H   0  0  0  0  0  0  0  0  0  0  0  0
   -2.2055    1.0291    0.0437 N   0  0  0  0  0  0  0  0  0  0  0  0
   -3.6440    0.9843    0.1758 C   0  0  2  0  0  0  0  0  0  0  0  0
   -4.0099    1.5684    1.5338 C   0  0  0  0  0  0  0  0  0  0  0  0
   -3.2232    1.6173    2.4771 O   0  0  0  0  0  0  0  0  0  0  0  0
   -4.1685   -0.4363    0.0359 C   0  0  0  0  0  0  0  0  0  0  0  0
   -1.8264    1.2858   -0.8630 H   0  0  0  0  0  0  0  0  0  0  0  0
   -4.0544    1.6183   -0.6177 H   0  0  0  0  0  0  0  0  0  0  0  0
   -3.7682   -1.0864    0.8224 H   0  0  0  0  0  0  0  0  0  0  0  0
   -5.2608   -0.4648    0.1078 H   0  0  0  0  0  0  0  0  0  0  0  0
   -3.8789   -0.8654   -0.9294 H   0  0  0  0  0  0  0  0  0  0  0  0
   -5.3316    1.9894    1.5819 N   0  0  0  0  0  0  0  0  0  0  0  0
   -5.9228    2.5684    2.7656 C   0  0  0  0  0  0  0  0  0  0  0  0
   -5.9061    1.9283    0.7465 H   0  0  0  0  0  0  0  0  0  0  0  0
   -6.4019    1.7775    3.3613 H   0  0  0  0  0  0  0  0  0  0  0  0
   -5.1400    3.0557    3.3655 H   0  0  0  0  0  0  0  0  0  0  0  0
   -6.6767    3.3136    2.4718 H   0  0  0  0  0  0  0  0  0  0  0  0
  1  3  1  0  0  0  0
  1  7  1  0  0  0  0
  1  2  2  0  0  0  0
 37 38  1  0  0  0  0
 38 46  1  0  0  0  0
 38 39  2  0  0  0  0
  8  9  1  0  0  0  0
  9 17  1  0  0  0  0
  9 10  2  0  0  0  0
 18 19  1  0  0  0  0
 19 36  1  0  0  0  0
 19 20  2  0  0  0  0
 37 40  1  0  0  0  0
  8 11  1  0  0  0  0
 22 23  1  0  0  0  0
 22 24  1  0  0  0  0
 46 47  1  0  0  0  0
 18 21  1  0  0  0  0
 21 22  1  0  0  0  0
 36 37  1  0  0  0  0
  7  8  1  0  0  0  0
 17 18  1  0  0  0  0
  3  4  1  0  0  0  0
  3  5  1  0  0  0  0
  3  6  1  0  0  0  0
 40 43  1  0  0  0  0
 40 44  1  0  0  0  0
 40 45  1  0  0  0  0
 11 14  1  0  0  0  0
 11 15  1  0  0  0  0
 11 16  1  0  0  0  0
 23 30  1  0  0  0  0
 23 31  1  0  0  0  0
 23 32  1  0  0  0  0
 24 33  1  0  0  0  0
 24 34  1  0  0  0  0
 24 35  1  0  0  0  0
 47 49  1  0  0  0  0
 47 50  1  0  0  0  0
 47 51  1  0  0  0  0
 21 27  1  0  0  0  0
 21 28  1  0  0  0  0
 37 42  1  0  0  0  0
  8 13  1  0  0  0  0
 18 26  1  0  0  0  0
 22 29  1  0  0  0  0
 46 48  1  0  0  0  0
  7 12  1  0  0  0  0
 36 41  1  0  0  0  0
 17 25  1  0  0  0  0
M  END
$$$$

  -OEChem-05262214473D

 51 50  0     1  0  0  0  0  0999 V2000
    3.4018   -1.2440   -3.0186 C   0  0  0  0  0  0  0  0  0  0  0  0
    3.2697   -2.0909   -2.1427 O   0  0  0  0  0  0  0  0  0  0  0  0
    4.6845   -1.1645   -3.7779 C   0  0  0  0  0  0  0  0  0  0  0  0
    5.4123   -0.4862   -3.3041 H   0  0  0  0  0  0  0  0  0  0  0  0
    5.1949   -2.1387   -3.8443 H   0  0  0  0  0  0  0  0  0  0  0  0
    4.5953   -0.8128   -4.8182 H   0  0  0  0  0  0  0  0  0  0  0  0
    2.4540   -0.3103   -3.4040 N   0  0  0  0  0  0  0  0  0  0  0  0
    1.1494   -0.2128   -2.8039 C   0  0  2  0  0  0  0  0  0  0  0  0
    1.3350    0.0367   -1.3130 C   0  0  0  0  0  0  0  0  0  0  0  0
    2.3625   -0.2586   -0.7063 O   0  0  0  0  0  0  0  0  0  0  0  0
    0.3331   -1.4728   -3.0467 C   0  0  0  0  0  0  0  0  0  0  0  0
    2.6924    0.3404   -4.1502 H   0  0  0  0  0  0  0  0  0  0  0  0
    0.6550    0.6514   -3.2607 H   0  0  0  0  0  0  0  0  0  0  0  0
    0.8129   -2.3494   -2.5963 H   0  0  0  0  0  0  0  0  0  0  0  0
   -0.6690   -1.3857   -2.6142 H   0  0  0  0  0  0  0  0  0  0  0  0
    0.2259   -1.6670   -4.1194 H   0  0  0  0  0  0  0  0  0  0  0  0
    0.2019    0.5893   -0.7269 N   0  0  0  0  0  0  0  0  0  0  0  0
    0.1242    0.9059    0.6756 C   0  0  2  0  0  0  0  0  0  0  0  0
   -1.3361    0.7538    1.0900 C   0  0  0  0  0  0  0  0  0  0  0  0
   -1.6997    0.7317    2.2641 O   0  0  0  0  0  0  0  0  0  0  0  0
    0.6161    2.3271    0.9781 C   0  0  0  0  0  0  0  0  0  0  0  0
    2.1185    2.5605    0.7189 C   0  0  0  0  0  0  0  0  0  0  0  0
    2.4516    4.0424    0.9132 C   0  0  0  0  0  0  0  0  0  0  0  0
    2.5442    2.1162   -0.6811 C   0  0  0  0  0  0  0  0  0  0  0  0
   -0.5975    0.8179   -1.3140 H   0  0  0  0  0  0  0  0  0  0  0  0
    0.7203    0.1564    1.2059 H   0  0  0  0  0  0  0  0  0  0  0  0
    0.4006    2.5603    2.0303 H   0  0  0  0  0  0  0  0  0  0  0  0
    0.0341    3.0470    0.3875 H   0  0  0  0  0  0  0  0  0  0  0  0
    2.7028    1.9918    1.4525 H   0  0  0  0  0  0  0  0  0  0  0  0
    1.8941    4.6630    0.2036 H   0  0  0  0  0  0  0  0  0  0  0  0
    3.5185    4.2262    0.7485 H   0  0  0  0  0  0  0  0  0  0  0  0
    2.2016    4.3773    1.9257 H   0  0  0  0  0  0  0  0  0  0  0  0
    1.9883    2.6561   -1.4552 H   0  0  0  0  0  0  0  0  0  0  0  0
    3.6118    2.3035   -0.8398 H   0  0  0  0  0  0  0  0  0  0  0  0
    2.3801    1.0445   -0.8267 H   0  0  0  0  0  0  0  0  0  0  0  0
   -2.1852    0.6976   -0.0065 N   0  0  0  0  0  0  0  0  0  0  0  0
   -3.6212    0.5811    0.1082 C   0  0  2  0  0  0  0  0  0  0  0  0
   -4.0723    1.4538    1.2720 C   0  0  0  0  0  0  0  0  0  0  0  0
   -3.3238    1.7917    2.1866 O   0  0  0  0  0  0  0  0  0  0  0  0
   -4.0441   -0.8647    0.3172 C   0  0  0  0  0  0  0  0  0  0  0  0
   -1.7930    0.7497   -0.9420 H   0  0  0  0  0  0  0  0  0  0  0  0
   -4.0454    0.9677   -0.8248 H   0  0  0  0  0  0  0  0  0  0  0  0
   -3.6285   -1.2692    1.2473 H   0  0  0  0  0  0  0  0  0  0  0  0
   -5.1338   -0.9548    0.3753 H   0  0  0  0  0  0  0  0  0  0  0  0
   -3.6931   -1.4963   -0.5060 H   0  0  0  0  0  0  0  0  0  0  0  0
   -5.4201    1.7752    1.1915 N   0  0  0  0  0  0  0  0  0  0  0  0
   -6.0895    2.5834    2.1838 C   0  0  0  0  0  0  0  0  0  0  0  0
   -5.9599    1.4677    0.3879 H   0  0  0  0  0  0  0  0  0  0  0  0
   -6.5348    1.9309    2.9492 H   0  0  0  0  0  0  0  0  0  0  0  0
   -5.3624    3.2599    2.6568 H   0  0  0  0  0  0  0  0  0  0  0  0
   -6.8810    3.1754    1.7012 H   0  0  0  0  0  0  0  0  0  0  0  0
  1  3  1  0  0  0  0
  1  7  1  0  0  0  0
  1  2  2  0  0  0  0
 37 38  1  0  0  0  0
 38 46  1  0  0  0  0
 38 39  2  0  0  0  0
  8  9  1  0  0  0  0
  9 17  1  0  0  0  0
  9 10  2  0  0  0  0
 18 19  1  0  0  0  0
 19 36  1  0  0  0  0
 19 20  2  0  0  0  0
 37 40  1  0  0  0  0
  8 11  1  0  0  0  0
 22 23  1  0  0  0  0
 22 24  1  0  0  0  0
 46 47  1  0  0  0  0
 18 21  1  0  0  0  0
 21 22  1  0  0  0  0
 36 37  1  0  0  0  0
  7  8  1  0  0  0  0
 17 18  1  0  0  0  0
  3  4  1  0  0  0  0
  3  5  1  0  0  0  0
  3  6  1  0  0  0  0
 40 43  1  0  0  0  0
 40 44  1  0  0  0  0
 40 45  1  0  0  0  0
 11 14  1  0  0  0  0
 11 15  1  0  0  0  0
 11 16  1  0  0  0  0
 23 30  1  0  0  0  0
 23 31  1  0  0  0  0
 23 32  1  0  0  0  0
 24 33  1  0  0  0  0
 24 34  1  0  0  0  0
 24 35  1  0  0  0  0
 47 49  1  0  0  0  0
 47 50  1  0  0  0  0
 47 51  1  0  0  0  0
 21 27  1  0  0  0  0
 21 28  1  0  0  0  0
 37 42  1  0  0  0  0
  8 13  1  0  0  0  0
 18 26  1  0  0  0  0
 22 29  1  0  0  0  0
 46 48  1  0  0  0  0
  7 12  1  0  0  0  0
 36 41  1  0  0  0  0
 17 25  1  0  0  0  0
M  END
$$$$

  -OEChem-05262214473D

 51 50  0     1  0  0  0  0  0999 V2000
    3.4018   -1.2440   -3.0186 C   0  0  0  0  0  0  0  0  0  0  0  0
    3.2697   -2.0909   -2.1427 O   0  0  0  0  0  0  0  0  0  0  0  0
    4.6845   -1.1645   -3.7779 C   0  0  0  0  0  0  0  0  0  0  0  0
    5.4123   -0.4862   -3.3041 H   0  0  0  0  0  0  0  0  0  0  0  0
    5.1949   -2.1387   -3.8443 H   0  0  0  0  0  0  0  0  0  0  0  0
    4.5953   -0.8128   -4.8182 H   0  0  0  0  0  0  0  0  0  0  0  0
    2.4540   -0.3103   -3.4040 N   0  0  0  0  0  0  0  0  0  0  0  0
    1.1494   -0.2128   -2.8039 C   0  0  2  0  0  0  0  0  0  0  0  0
    1.3350    0.0367   -1.3130 C   0  0  0  0  0  0  0  0  0  0  0  0
    2.3625   -0.2586   -0.7063 O   0  0  0  0  0  0  0  0  0  0  0  0
    0.3331   -1.4728   -3.0467 C   0  0  0  0  0  0  0  0  0  0  0  0
    2.6924    0.3404   -4.1502 H   0  0  0  0  0  0  0  0  0  0  0  0
    0.6550    0.6514   -3.2607 H   0  0  0  0  0  0  0  0  0  0  0  0
    0.8129   -2.3494   -2.5963 H   0  0  0  0  0  0  0  0  0  0  0  0
   -0.6690   -1.3857   -2.6142 H   0  0  0  0  0  0  0  0  0  0  0  0
    0.2259   -1.6670   -4.1194 H   0  0  0  0  0  0  0  0  0  0  0  0
    0.2019    0.5893   -0.7269 N   0  0  0  0  0  0  0  0  0  0  0  0
    0.1242    0.9059    0.6756 C   0  0  2  0  0  0  0  0  0  0  0  0
   -1.3361    0.7538    1.0900 C   0  0  0  0  0  0  0  0  0  0  0  0
   -1.7379    0.9955    2.2264 O   0  0  0  0  0  0  0  0  0  0  0  0
    0.6161    2.3271    0.9781 C   0  0  0  0  0  0  0  0  0  0  0  0
    2.1185    2.5605    0.7189 C   0  0  0  0  0  0  0  0  0  0  0  0
    2.4516    4.0424    0.9132 C   0  0  0  0  0  0  0  0  0  0  0  0
    2.5442    2.1162   -0.6811 C   0  0  0  0  0  0  0  0  0  0  0  0
   -0.5975    0.8179   -1.3140 H   0  0  0  0  0  0  0  0  0  0  0  0
    0.7203    0.1564    1.2059 H   0  0  0  0  0  0  0  0  0  0  0  0
    0.4006    2.5603    2.0303 H   0  0  0  0  0  0  0  0  0  0  0  0
    0.0341    3.0470    0.3875 H   0  0  0  0  0  0  0  0  0  0  0  0
    2.7028    1.9918    1.4525 H   0  0  0  0  0  0  0  0  0  0  0  0
    1.8941    4.6630    0.2036 H   0  0  0  0  0  0  0  0  0  0  0  0
    3.5185    4.2262    0.7485 H   0  0  0  0  0  0  0  0  0  0  0  0
    2.2016    4.3773    1.9257 H   0  0  0  0  0  0  0  0  0  0  0  0
    1.9883    2.6561   -1.4552 H   0  0  0  0  0  0  0  0  0  0  0  0
    3.6118    2.3035   -0.8398 H   0  0  0  0  0  0  0  0  0  0  0  0
    2.3801    1.0445   -0.8267 H   0  0  0  0  0  0  0  0  0  0  0  0
   -2.1410    0.3664    0.0277 N   0  0  0  0  0  0  0  0  0  0  0  0
   -3.5691    0.1765    0.1435 C   0  0  2  0  0  0  0  0  0  0  0  0
   -4.1178    1.2738    1.0458 C   0  0  0  0  0  0  0  0  0  0  0  0
   -3.4257    1.8812    1.8602 O   0  0  0  0  0  0  0  0  0  0  0  0
   -3.9010   -1.2000    0.6982 C   0  0  0  0  0  0  0  0  0  0  0  0
   -1.7210    0.2147   -0.8845 H   0  0  0  0  0  0  0  0  0  0  0  0
   -3.9857    0.2885   -0.8635 H   0  0  0  0  0  0  0  0  0  0  0  0
   -3.4918   -1.3308    1.7066 H   0  0  0  0  0  0  0  0  0  0  0  0
   -4.9836   -1.3530    0.7585 H   0  0  0  0  0  0  0  0  0  0  0  0
   -3.4802   -1.9877    0.0639 H   0  0  0  0  0  0  0  0  0  0  0  0
   -5.4804    1.4654    0.8651 N   0  0  0  0  0  0  0  0  0  0  0  0
   -6.2365    2.4420    1.6138 C   0  0  0  0  0  0  0  0  0  0  0  0
   -5.9703    0.9302    0.1542 H   0  0  0  0  0  0  0  0  0  0  0  0
   -6.6634    1.9676    2.5098 H   0  0  0  0  0  0  0  0  0  0  0  0
   -5.5733    3.2659    1.9160 H   0  0  0  0  0  0  0  0  0  0  0  0
   -7.0488    2.8367    0.9858 H   0  0  0  0  0  0  0  0  0  0  0  0
  1  3  1  0  0  0  0
  1  7  1  0  0  0  0
  1  2  2  0  0  0  0
 37 38  1  0  0  0  0
 38 46  1  0  0  0  0
 38 39  2  0  0  0  0
  8  9  1  0  0  0  0
  9 17  1  0  0  0  0
  9 10  2  0  0  0  0
 18 19  1  0  0  0  0
 19 36  1  0  0  0  0
 19 20  2  0  0  0  0
 37 40  1  0  0  0  0
  8 11  1  0  0  0  0
 22 23  1  0  0  0  0
 22 24  1  0  0  0  0
 46 47  1  0  0  0  0
 18 21  1  0  0  0  0
 21 22  1  0  0  0  0
 36 37  1  0  0  0  0
  7  8  1  0  0  0  0
 17 18  1  0  0  0  0
  3  4  1  0  0  0  0
  3  5  1  0  0  0  0
  3  6  1  0  0  0  0
 40 43  1  0  0  0  0
 40 44  1  0  0  0  0
 40 45  1  0  0  0  0
 11 14  1  0  0  0  0
 11 15  1  0  0  0  0
 11 16  1  0  0  0  0
 23 30  1  0  0  0  0
 23 31  1  0  0  0  0
 23 32  1  0  0  0  0
 24 33  1  0  0  0  0
 24 34  1  0  0  0  0
 24 35  1  0  0  0  0
 47 49  1  0  0  0  0
 47 50  1  0  0  0  0
 47 51  1  0  0  0  0
 21 27  1  0  0  0  0
 21 28  1  0  0  0  0
 37 42  1  0  0  0  0
  8 13  1  0  0  0  0
 18 26  1  0  0  0  0
 22 29  1  0  0  0  0
 46 48  1  0  0  0  0
  7 12  1  0  0  0  0
 36 41  1  0  0  0  0
 17 25  1  0  0  0  0
M  END
$$$$

  -OEChem-05262214473D

 51 50  0     1  0  0  0  0  0999 V2000
    3.4018   -1.2440   -3.0186 C   0  0  0  0  0  0  0  0  0  0  0  0
    3.2697   -2.0909   -2.1427 O   0  0  0  0  0  0  0  0  0  0  0  0
    4.6845   -1.1645   -3.7779 C   0  0  0  0  0  0  0  0  0  0  0  0
    5.4123   -0.4862   -3.3041 H   0  0  0  0  0  0  0  0  0  0  0  0
    5.1949   -2.1387   -3.8443 H   0  0  0  0  0  0  0  0  0  0  0  0
    4.5953   -0.8128   -4.8182 H   0  0  0  0  0  0  0  0  0  0  0  0
    2.4540   -0.3103   -3.4040 N   0  0  0  0  0  0  0  0  0  0  0  0
    1.1494   -0.2128   -2.8039 C   0  0  2  0  0  0  0  0  0  0  0  0
    1.3350    0.0367   -1.3130 C   0  0  0  0  0  0  0  0  0  0  0  0
    2.3625   -0.2586   -0.7063 O   0  0  0  0  0  0  0  0  0  0  0  0
    0.3331   -1.4728   -3.0467 C   0  0  0  0  0  0  0  0  0  0  0  0
    2.6924    0.3404   -4.1502 H   0  0  0  0  0  0  0  0  0  0  0  0
    0.6550    0.6514   -3.2607 H   0  0  0  0  0  0  0  0  0  0  0  0
    0.8129   -2.3494   -2.5963 H   0  0  0  0  0  0  0  0  0  0  0  0
   -0.6690   -1.3857   -2.6142 H   0  0  0  0  0  0  0  0  0  0  0  0
    0.2259   -1.6670   -4.1194 H   0  0  0  0  0  0  0  0  0  0  0  0
    0.2019    0.5893   -0.7269 N   0  0  0  0  0  0  0  0  0  0  0  0
    0.1242    0.9059    0.6756 C   0  0  2  0  0  0  0  0  0  0  0  0
   -1.3361    0.7538    1.0900 C   0  0  0  0  0  0  0  0  0  0  0  0
   -1.7923    1.2382    2.1236 O   0  0  0  0  0  0  0  0  0  0  0  0
    0.6161    2.3271    0.9781 C   0  0  0  0  0  0  0  0  0  0  0  0
    2.1185    2.5605    0.7189 C   0  0  0  0  0  0  0  0  0  0  0  0
    2.4516    4.0424    0.9132 C   0  0  0  0  0  0  0  0  0  0  0  0
    2.5442    2.1162   -0.6811 C   0  0  0  0  0  0  0  0  0  0  0  0
   -0.5975    0.8179   -1.3140 H   0  0  0  0  0  0  0  0  0  0  0  0
    0.7203    0.1564    1.2059 H   0  0  0  0  0  0  0  0  0  0  0  0
    0.4006    2.5603    2.0303 H   0  0  0  0  0  0  0  0  0  0  0  0
    0.0341    3.0470    0.3875 H   0  0  0  0  0  0  0  0  0  0  0  0
    2.7028    1.9918    1.4525 H   0  0  0  0  0  0  0  0  0  0  0  0
    1.8941    4.6630    0.2036 H   0  0  0  0  0  0  0  0  0  0  0  0
    3.5185    4.2262    0.7485 H   0  0  0  0  0  0  0  0  0  0  0  0
    2.2016    4.3773    1.9257 H   0  0  0  0  0  0  0  0  0  0  0  0
    1.9883    2.6561   -1.4552 H   0  0  0  0  0  0  0  0  0  0  0  0
    3.6118    2.3035   -0.8398 H   0  0  0  0  0  0  0  0  0  0  0  0
    2.3801    1.0445   -0.8267 H   0  0  0  0  0  0  0  0  0  0  0  0
   -2.0759    0.0581    0.1439 N   0  0  0  0  0  0  0  0  0  0  0  0
   -3.4912   -0.2019    0.2791 C   0  0  2  0  0  0  0  0  0  0  0  0
   -4.1432    1.0408    0.8708 C   0  0  0  0  0  0  0  0  0  0  0  0
   -3.5220    1.8796    1.5202 O   0  0  0  0  0  0  0  0  0  0  0  0
   -3.7491   -1.4195    1.1529 C   0  0  0  0  0  0  0  0  0  0  0  0
   -1.6153   -0.2828   -0.6947 H   0  0  0  0  0  0  0  0  0  0  0  0
   -3.8792   -0.3728   -0.7310 H   0  0  0  0  0  0  0  0  0  0  0  0
   -3.3672   -1.2669    2.1690 H   0  0  0  0  0  0  0  0  0  0  0  0
   -4.8205   -1.6320    1.2310 H   0  0  0  0  0  0  0  0  0  0  0  0
   -3.2546   -2.3062    0.7417 H   0  0  0  0  0  0  0  0  0  0  0  0
   -5.5085    1.0810    0.6251 N   0  0  0  0  0  0  0  0  0  0  0  0
   -6.3539    2.1538    1.0945 C   0  0  0  0  0  0  0  0  0  0  0  0
   -5.9365    0.3524    0.0614 H   0  0  0  0  0  0  0  0  0  0  0  0
   -6.7788    1.8853    2.0729 H   0  0  0  0  0  0  0  0  0  0  0  0
   -5.7583    3.0733    1.1935 H   0  0  0  0  0  0  0  0  0  0  0  0
   -7.1685    2.3205    0.3744 H   0  0  0  0  0  0  0  0  0  0  0  0
  1  3  1  0  0  0  0
  1  7  1  0  0  0  0
  1  2  2  0  0  0  0
 37 38  1  0  0  0  0
 38 46  1  0  0  0  0
 38 39  2  0  0  0  0
  8  9  1  0  0  0  0
  9 17  1  0  0  0  0
  9 10  2  0  0  0  0
 18 19  1  0  0  0  0
 19 36  1  0  0  0  0
 19 20  2  0  0  0  0
 37 40  1  0  0  0  0
  8 11  1  0  0  0  0
 22 23  1  0  0  0  0
 22 24  1  0  0  0  0
 46 47  1  0  0  0  0
 18 21  1  0  0  0  0
 21 22  1  0  0  0  0
 36 37  1  0  0  0  0
  7  8  1  0  0  0  0
 17 18  1  0  0  0  0
  3  4  1  0  0  0  0
  3  5  1  0  0  0  0
  3  6  1  0  0  0  0
 40 43  1  0  0  0  0
 40 44  1  0  0  0  0
 40 45  1  0  0  0  0
 11 14  1  0  0  0  0
 11 15  1  0  0  0  0
 11 16  1  0  0  0  0
 23 30  1  0  0  0  0
 23 31  1  0  0  0  0
 23 32  1  0  0  0  0
 24 33  1  0  0  0  0
 24 34  1  0  0  0  0
 24 35  1  0  0  0  0
 47 49  1  0  0  0  0
 47 50  1  0  0  0  0
 47 51  1  0  0  0  0
 21 27  1  0  0  0  0
 21 28  1  0  0  0  0
 37 42  1  0  0  0  0
  8 13  1  0  0  0  0
 18 26  1  0  0  0  0
 22 29  1  0  0  0  0
 46 48  1  0  0  0  0
  7 12  1  0  0  0  0
 36 41  1  0  0  0  0
 17 25  1  0  0  0  0
M  END
$$$$

  -OEChem-05262214473D

 51 50  0     1  0  0  0  0  0999 V2000
    3.4018   -1.2440   -3.0186 C   0  0  0  0  0  0  0  0  0  0  0  0
    3.2697   -2.0909   -2.1427 O   0  0  0  0  0  0  0  0  0  0  0  0
    4.6845   -1.1645   -3.7779 C   0  0  0  0  0  0  0  0  0  0  0  0
    5.4123   -0.4862   -3.3041 H   0  0  0  0  0  0  0  0  0  0  0  0
    5.1949   -2.1387   -3.8443 H   0  0  0  0  0  0  0  0  0  0  0  0
    4.5953   -0.8128   -4.8182 H   0  0  0  0  0  0  0  0  0  0  0  0
    2.4540   -0.3103   -3.4040 N   0  0  0  0  0  0  0  0  0  0  0  0
    1.1494   -0.2128   -2.8039 C   0  0  2  0  0  0  0  0  0  0  0  0
    1.3350    0.0367   -1.3130 C   0  0  0  0  0  0  0  0  0  0  0  0
    2.3625   -0.2586   -0.7063 O   0  0  0  0  0  0  0  0  0  0  0  0
    0.3331   -1.4728   -3.0467 C   0  0  0  0  0  0  0  0  0  0  0  0
    2.6924    0.3404   -4.1502 H   0  0  0  0  0  0  0  0  0  0  0  0
    0.6550    0.6514   -3.2607 H   0  0  0  0  0  0  0  0  0  0  0  0
    0.8129   -2.3494   -2.5963 H   0  0  0  0  0  0  0  0  0  0  0  0
   -0.6690   -1.3857   -2.6142 H   0  0  0  0  0  0  0  0  0  0  0  0
    0.2259   -1.6670   -4.1194 H   0  0  0  0  0  0  0  0  0  0  0  0
    0.2019    0.5893   -0.7269 N   0  0  0  0  0  0  0  0  0  0  0  0
    0.1242    0.9059    0.6756 C   0  0  2  0  0  0  0  0  0  0  0  0
   -1.3361    0.7538    1.0900 C   0  0  0  0  0  0  0  0  0  0  0  0
   -1.8593    1.4435    1.9628 O   0  0  0  0  0  0  0  0  0  0  0  0
    0.6161    2.3271    0.9781 C   0  0  0  0  0  0  0  0  0  0  0  0
    2.1185    2.5605    0.7189 C   0  0  0  0  0  0  0  0  0  0  0  0
    2.4516    4.0424    0.9132 C   0  0  0  0  0  0  0  0  0  0  0  0
    2.5442    2.1162   -0.6811 C   0  0  0  0  0  0  0  0  0  0  0  0
   -0.5975    0.8179   -1.3140 H   0  0  0  0  0  0  0  0  0  0  0  0
    0.7203    0.1564    1.2059 H   0  0  0  0  0  0  0  0  0  0  0  0
    0.4006    2.5603    2.0303 H   0  0  0  0  0  0  0  0  0  0  0  0
    0.0341    3.0470    0.3875 H   0  0  0  0  0  0  0  0  0  0  0  0
    2.7028    1.9918    1.4525 H   0  0  0  0  0  0  0  0  0  0  0  0
    1.8941    4.6630    0.2036 H   0  0  0  0  0  0  0  0  0  0  0  0
    3.5185    4.2262    0.7485 H   0  0  0  0  0  0  0  0  0  0  0  0
    2.2016    4.3773    1.9257 H   0  0  0  0  0  0  0  0  0  0  0  0
    1.9883    2.6561   -1.4552 H   0  0  0  0  0  0  0  0  0  0  0  0
    3.6118    2.3035   -0.8398 H   0  0  0  0  0  0  0  0  0  0  0  0
    2.3801    1.0445   -0.8267 H   0  0  0  0  0  0  0  0  0  0  0  0
   -1.9944   -0.2064    0.3343 N   0  0  0  0  0  0  0  0  0  0  0  0
   -3.3928   -0.5283    0.5058 C   0  0  2  0  0  0  0  0  0  0  0  0
   -4.1468    0.7705    0.7588 C   0  0  0  0  0  0  0  0  0  0  0  0
   -3.6062    1.7870    1.1897 O   0  0  0  0  0  0  0  0  0  0  0  0
   -3.5987   -1.5081    1.6505 C   0  0  0  0  0  0  0  0  0  0  0  0
   -1.4832   -0.7088   -0.3853 H   0  0  0  0  0  0  0  0  0  0  0  0
   -3.7333   -0.9714   -0.4364 H   0  0  0  0  0  0  0  0  0  0  0  0
   -3.2633   -1.0818    2.6030 H   0  0  0  0  0  0  0  0  0  0  0  0
   -4.6554   -1.7730    1.7609 H   0  0  0  0  0  0  0  0  0  0  0  0
   -3.0319   -2.4300    1.4811 H   0  0  0  0  0  0  0  0  0  0  0  0
   -5.5024    0.6483    0.4877 N   0  0  0  0  0  0  0  0  0  0  0  0
   -6.4336    1.7386    0.6612 C   0  0  0  0  0  0  0  0  0  0  0  0
   -5.8608   -0.2263    0.1157 H   0  0  0  0  0  0  0  0  0  0  0  0
   -6.8732    1.6893    1.6684 H   0  0  0  0  0  0  0  0  0  0  0  0
   -5.9048    2.6953    0.5385 H   0  0  0  0  0  0  0  0  0  0  0  0
   -7.2322    1.6619   -0.0914 H   0  0  0  0  0  0  0  0  0  0  0  0
  1  3  1  0  0  0  0
  1  7  1  0  0  0  0
  1  2  2  0  0  0  0
 37 38  1  0  0  0  0
 38 46  1  0  0  0  0
 38 39  2  0  0  0  0
  8  9  1  0  0  0  0
  9 17  1  0  0  0  0
  9 10  2  0  0  0  0
 18 19  1  0  0  0  0
 19 36  1  0  0  0  0
 19 20  2  0  0  0  0
 37 40  1  0  0  0  0
  8 11  1  0  0  0  0
 22 23  1  0  0  0  0
 22 24  1  0  0  0  0
 46 47  1  0  0  0  0
 18 21  1  0  0  0  0
 21 22  1  0  0  0  0
 36 37  1  0  0  0  0
  7  8  1  0  0  0  0
 17 18  1  0  0  0  0
  3  4  1  0  0  0  0
  3  5  1  0  0  0  0
  3  6  1  0  0  0  0
 40 43  1  0  0  0  0
 40 44  1  0  0  0  0
 40 45  1  0  0  0  0
 11 14  1  0  0  0  0
 11 15  1  0  0  0  0
 11 16  1  0  0  0  0
 23 30  1  0  0  0  0
 23 31  1  0  0  0  0
 23 32  1  0  0  0  0
 24 33  1  0  0  0  0
 24 34  1  0  0  0  0
 24 35  1  0  0  0  0
 47 49  1  0  0  0  0
 47 50  1  0  0  0  0
 47 51  1  0  0  0  0
 21 27  1  0  0  0  0
 21 28  1  0  0  0  0
 37 42  1  0  0  0  0
  8 13  1  0  0  0  0
 18 26  1  0  0  0  0
 22 29  1  0  0  0  0
 46 48  1  0  0  0  0
  7 12  1  0  0  0  0
 36 41  1  0  0  0  0
 17 25  1  0  0  0  0
M  END
$$$$

  -OEChem-05262214473D

 51 50  0     1  0  0  0  0  0999 V2000
    3.4018   -1.2440   -3.0186 C   0  0  0  0  0  0  0  0  0  0  0  0
    3.2697   -2.0909   -2.1427 O   0  0  0  0  0  0  0  0  0  0  0  0
    4.6845   -1.1645   -3.7779 C   0  0  0  0  0  0  0  0  0  0  0  0
    5.4123   -0.4862   -3.3041 H   0  0  0  0  0  0  0  0  0  0  0  0
    5.1949   -2.1387   -3.8443 H   0  0  0  0  0  0  0  0  0  0  0  0
    4.5953   -0.8128   -4.8182 H   0  0  0  0  0  0  0  0  0  0  0  0
    2.4540   -0.3103   -3.4040 N   0  0  0  0  0  0  0  0  0  0  0  0
    1.1494   -0.2128   -2.8039 C   0  0  2  0  0  0  0  0  0  0  0  0
    1.3350    0.0367   -1.3130 C   0  0  0  0  0  0  0  0  0  0  0  0
    2.3625   -0.2586   -0.7063 O   0  0  0  0  0  0  0  0  0  0  0  0
    0.3331   -1.4728   -3.0467 C   0  0  0  0  0  0  0  0  0  0  0  0
    2.6924    0.3404   -4.1502 H   0  0  0  0  0  0  0  0  0  0  0  0
    0.6550    0.6514   -3.2607 H   0  0  0  0  0  0  0  0  0  0  0  0
    0.8129   -2.3494   -2.5963 H   0  0  0  0  0  0  0  0  0  0  0  0
   -0.6690   -1.3857   -2.6142 H   0  0  0  0  0  0  0  0  0  0  0  0
    0.2259   -1.6670   -4.1194 H   0  0  0  0  0  0  0  0  0  0  0  0
    0.2019    0.5893   -0.7269 N   0  0  0  0  0  0  0  0  0  0  0  0
    0.1242    0.9059    0.6756 C   0  0  2  0  0  0  0  0  0  0  0  0
   -1.3361    0.7538    1.0900 C   0  0  0  0  0  0  0  0  0  0  0  0
   -1.9343    1.5971    1.7549 O   0  0  0  0  0  0  0  0  0  0  0  0
    0.6161    2.3271    0.9781 C   0  0  0  0  0  0  0  0  0  0  0  0
    2.1185    2.5605    0.7189 C   0  0  0  0  0  0  0  0  0  0  0  0
    2.4516    4.0424    0.9132 C   0  0  0  0  0  0  0  0  0  0  0  0
    2.5442    2.1162   -0.6811 C   0  0  0  0  0  0  0  0  0  0  0  0
   -0.5975    0.8179   -1.3140 H   0  0  0  0  0  0  0  0  0  0  0  0
    0.7203    0.1564    1.2059 H   0  0  0  0  0  0  0  0  0  0  0  0
    0.4006    2.5603    2.0303 H   0  0  0  0  0  0  0  0  0  0  0  0
    0.0341    3.0470    0.3875 H   0  0  0  0  0  0  0  0  0  0  0  0
    2.7028    1.9918    1.4525 H   0  0  0  0  0  0  0  0  0  0  0  0
    1.8941    4.6630    0.2036 H   0  0  0  0  0  0  0  0  0  0  0  0
    3.5185    4.2262    0.7485 H   0  0  0  0  0  0  0  0  0  0  0  0
    2.2016    4.3773    1.9257 H   0  0  0  0  0  0  0  0  0  0  0  0
    1.9883    2.6561   -1.4552 H   0  0  0  0  0  0  0  0  0  0  0  0
    3.6118    2.3035   -0.8398 H   0  0  0  0  0  0  0  0  0  0  0  0
    2.3801    1.0445   -0.8267 H   0  0  0  0  0  0  0  0  0  0  0  0
   -1.9019   -0.4090    0.5858 N   0  0  0  0  0  0  0  0  0  0  0  0
   -3.2807   -0.7806    0.8083 C   0  0  2  0  0  0  0  0  0  0  0  0
   -4.1284    0.4814    0.7175 C   0  0  0  0  0  0  0  0  0  0  0  0
   -3.6725    1.6097    0.8912 O   0  0  0  0  0  0  0  0  0  0  0  0
   -3.4600   -1.4599    2.1570 C   0  0  0  0  0  0  0  0  0  0  0  0
   -1.3335   -1.0345    0.0225 H   0  0  0  0  0  0  0  0  0  0  0  0
   -3.5578   -1.4663    0.0002 H   0  0  0  0  0  0  0  0  0  0  0  0
   -3.1871   -0.7882    2.9791 H   0  0  0  0  0  0  0  0  0  0  0  0
   -4.4997   -1.7664    2.3118 H   0  0  0  0  0  0  0  0  0  0  0  0
   -2.8271   -2.3508    2.2318 H   0  0  0  0  0  0  0  0  0  0  0  0
   -5.4626    0.1967    0.4624 N   0  0  0  0  0  0  0  0  0  0  0  0
   -6.4702    1.2246    0.3435 C   0  0  0  0  0  0  0  0  0  0  0  0
   -5.7484   -0.7666    0.3136 H   0  0  0  0  0  0  0  0  0  0  0  0
   -6.9402    1.3932    1.3237 H   0  0  0  0  0  0  0  0  0  0  0  0
   -6.0028    2.1576   -0.0042 H   0  0  0  0  0  0  0  0  0  0  0  0
   -7.2353    0.9060   -0.3798 H   0  0  0  0  0  0  0  0  0  0  0  0
  1  3  1  0  0  0  0
  1  7  1  0  0  0  0
  1  2  2  0  0  0  0
 37 38  1  0  0  0  0
 38 46  1  0  0  0  0
 38 39  2  0  0  0  0
  8  9  1  0  0  0  0
  9 17  1  0  0  0  0
  9 10  2  0  0  0  0
 18 19  1  0  0  0  0
 19 36  1  0  0  0  0
 19 20  2  0  0  0  0
 37 40  1  0  0  0  0
  8 11  1  0  0  0  0
 22 23  1  0  0  0  0
 22 24  1  0  0  0  0
 46 47  1  0  0  0  0
 18 21  1  0  0  0  0
 21 22  1  0  0  0  0
 36 37  1  0  0  0  0
  7  8  1  0  0  0  0
 17 18  1  0  0  0  0
  3  4  1  0  0  0  0
  3  5  1  0  0  0  0
  3  6  1  0  0  0  0
 40 43  1  0  0  0  0
 40 44  1  0  0  0  0
 40 45  1  0  0  0  0
 11 14  1  0  0  0  0
 11 15  1  0  0  0  0
 11 16  1  0  0  0  0
 23 30  1  0  0  0  0
 23 31  1  0  0  0  0
 23 32  1  0  0  0  0
 24 33  1  0  0  0  0
 24 34  1  0  0  0  0
 24 35  1  0  0  0  0
 47 49  1  0  0  0  0
 47 50  1  0  0  0  0
 47 51  1  0  0  0  0
 21 27  1  0  0  0  0
 21 28  1  0  0  0  0
 37 42  1  0  0  0  0
  8 13  1  0  0  0  0
 18 26  1  0  0  0  0
 22 29  1  0  0  0  0
 46 48  1  0  0  0  0
  7 12  1  0  0  0  0
 36 41  1  0  0  0  0
 17 25  1  0  0  0  0
M  END
$$$$

  -OEChem-05262214473D

 51 50  0     1  0  0  0  0  0999 V2000
    3.4018   -1.2440   -3.0186 C   0  0  0  0  0  0  0  0  0  0  0  0
    3.2697   -2.0909   -2.1427 O   0  0  0  0  0  0  0  0  0  0  0  0
    4.6845   -1.1645   -3.7779 C   0  0  0  0  0  0  0  0  0  0  0  0
    5.4123   -0.4862   -3.3041 H   0  0  0  0  0  0  0  0  0  0  0  0
    5.1949   -2.1387   -3.8443 H   0  0  0  0  0  0  0  0  0  0  0  0
    4.5953   -0.8128   -4.8182 H   0  0  0  0  0  0  0  0  0  0  0  0
    2.4540   -0.3103   -3.4040 N   0  0  0  0  0  0  0  0  0  0  0  0
    1.1494   -0.2128   -2.8039 C   0  0  2  0  0  0  0  0  0  0  0  0
    1.3350    0.0367   -1.3130 C   0  0  0  0  0  0  0  0  0  0  0  0
    2.3625   -0.2586   -0.7063 O   0  0  0  0  0  0  0  0  0  0  0  0
    0.3331   -1.4728   -3.0467 C   0  0  0  0  0  0  0  0  0  0  0  0
    2.6924    0.3404   -4.1502 H   0  0  0  0  0  0  0  0  0  0  0  0
    0.6550    0.6514   -3.2607 H   0  0  0  0  0  0  0  0  0  0  0  0
    0.8129   -2.3494   -2.5963 H   0  0  0  0  0  0  0  0  0  0  0  0
   -0.6690   -1.3857   -2.6142 H   0  0  0  0  0  0  0  0  0  0  0  0
    0.2259   -1.6670   -4.1194 H   0  0  0  0  0  0  0  0  0  0  0  0
    0.2019    0.5893   -0.7269 N   0  0  0  0  0  0  0  0  0  0  0  0
    0.1242    0.9059    0.6756 C   0  0  2  0  0  0  0  0  0  0  0  0
   -1.3361    0.7538    1.0900 C   0  0  0  0  0  0  0  0  0  0  0  0
   -2.0122    1.6888    1.5141 O   0  0  0  0  0  0  0  0  0  0  0  0
    0.6161    2.3271    0.9781 C   0  0  0  0  0  0  0  0  0  0  0  0
    2.1185    2.5605    0.7189 C   0  0  0  0  0  0  0  0  0  0  0  0
    2.4516    4.0424    0.9132 C   0  0  0  0  0  0  0  0  0  0  0  0
    2.5442    2.1162   -0.6811 C   0  0  0  0  0  0  0  0  0  0  0  0
   -0.5975    0.8179   -1.3140 H   0  0  0  0  0  0  0  0  0  0  0  0
    0.7203    0.1564    1.2059 H   0  0  0  0  0  0  0  0  0  0  0  0
    0.4006    2.5603    2.0303 H   0  0  0  0  0  0  0  0  0  0  0  0
    0.0341    3.0470    0.3875 H   0  0  0  0  0  0  0  0  0  0  0  0
    2.7028    1.9918    1.4525 H   0  0  0  0  0  0  0  0  0  0  0  0
    1.8941    4.6630    0.2036 H   0  0  0  0  0  0  0  0  0  0  0  0
    3.5185    4.2262    0.7485 H   0  0  0  0  0  0  0  0  0  0  0  0
    2.2016    4.3773    1.9257 H   0  0  0  0  0  0  0  0  0  0  0  0
    1.9883    2.6561   -1.4552 H   0  0  0  0  0  0  0  0  0  0  0  0
    3.6118    2.3035   -0.8398 H   0  0  0  0  0  0  0  0  0  0  0  0
    2.3801    1.0445   -0.8267 H   0  0  0  0  0  0  0  0  0  0  0  0
   -1.8049   -0.5358    0.8812 N   0  0  0  0  0  0  0  0  0  0  0  0
   -3.1625   -0.9414    1.1658 C   0  0  2  0  0  0  0  0  0  0  0  0
   -4.0893    0.1933    0.7497 C   0  0  0  0  0  0  0  0  0  0  0  0
   -3.7163    1.3599    0.6450 O   0  0  0  0  0  0  0  0  0  0  0  0
   -3.3424   -1.2781    2.6378 C   0  0  0  0  0  0  0  0  0  0  0  0
   -1.1766   -1.2374    0.5009 H   0  0  0  0  0  0  0  0  0  0  0  0
   -3.3648   -1.8238    0.5490 H   0  0  0  0  0  0  0  0  0  0  0  0
   -3.1439   -0.4061    3.2716 H   0  0  0  0  0  0  0  0  0  0  0  0
   -4.3641   -1.6125    2.8464 H   0  0  0  0  0  0  0  0  0  0  0  0
   -2.6542   -2.0739    2.9425 H   0  0  0  0  0  0  0  0  0  0  0  0
   -5.3917   -0.2429    0.5509 N   0  0  0  0  0  0  0  0  0  0  0  0
   -6.4613    0.6468    0.1631 C   0  0  0  0  0  0  0  0  0  0  0  0
   -5.6069   -1.2315    0.6414 H   0  0  0  0  0  0  0  0  0  0  0  0
   -6.9752    1.0171    1.0624 H   0  0  0  0  0  0  0  0  0  0  0  0
   -6.0457    1.4969   -0.3978 H   0  0  0  0  0  0  0  0  0  0  0  0
   -7.1777    0.1041   -0.4711 H   0  0  0  0  0  0  0  0  0  0  0  0
  1  3  1  0  0  0  0
  1  7  1  0  0  0  0
  1  2  2  0  0  0  0
 37 38  1  0  0  0  0
 38 46  1  0  0  0  0
 38 39  2  0  0  0  0
  8  9  1  0  0  0  0
  9 17  1  0  0  0  0
  9 10  2  0  0  0  0
 18 19  1  0  0  0  0
 19 36  1  0  0  0  0
 19 20  2  0  0  0  0
 37 40  1  0  0  0  0
  8 11  1  0  0  0  0
 22 23  1  0  0  0  0
 22 24  1  0  0  0  0
 46 47  1  0  0  0  0
 18 21  1  0  0  0  0
 21 22  1  0  0  0  0
 36 37  1  0  0  0  0
  7  8  1  0  0  0  0
 17 18  1  0  0  0  0
  3  4  1  0  0  0  0
  3  5  1  0  0  0  0
  3  6  1  0  0  0  0
 40 43  1  0  0  0  0
 40 44  1  0  0  0  0
 40 45  1  0  0  0  0
 11 14  1  0  0  0  0
 11 15  1  0  0  0  0
 11 16  1  0  0  0  0
 23 30  1  0  0  0  0
 23 31  1  0  0  0  0
 23 32  1  0  0  0  0
 24 33  1  0  0  0  0
 24 34  1  0  0  0  0
 24 35  1  0  0  0  0
 47 49  1  0  0  0  0
 47 50  1  0  0  0  0
 47 51  1  0  0  0  0
 21 27  1  0  0  0  0
 21 28  1  0  0  0  0
 37 42  1  0  0  0  0
  8 13  1  0  0  0  0
 18 26  1  0  0  0  0
 22 29  1  0  0  0  0
 46 48  1  0  0  0  0
  7 12  1  0  0  0  0
 36 41  1  0  0  0  0
 17 25  1  0  0  0  0
M  END
$$$$

  -OEChem-05262214473D

 51 50  0     1  0  0  0  0  0999 V2000
    3.4018   -1.2440   -3.0186 C   0  0  0  0  0  0  0  0  0  0  0  0
    3.2697   -2.0909   -2.1427 O   0  0  0  0  0  0  0  0  0  0  0  0
    4.6845   -1.1645   -3.7779 C   0  0  0  0  0  0  0  0  0  0  0  0
    5.4123   -0.4862   -3.3041 H   0  0  0  0  0  0  0  0  0  0  0  0
    5.1949   -2.1387   -3.8443 H   0  0  0  0  0  0  0  0  0  0  0  0
    4.5953   -0.8128   -4.8182 H   0  0  0  0  0  0  0  0  0  0  0  0
    2.4540   -0.3103   -3.4040 N   0  0  0  0  0  0  0  0  0  0  0  0
    1.1494   -0.2128   -2.8039 C   0  0  2  0  0  0  0  0  0  0  0  0
    1.3350    0.0367   -1.3130 C   0  0  0  0  0  0  0  0  0  0  0  0
    2.3625   -0.2586   -0.7063 O   0  0  0  0  0  0  0  0  0  0  0  0
    0.3331   -1.4728   -3.0467 C   0  0  0  0  0  0  0  0  0  0  0  0
    2.6924    0.3404   -4.1502 H   0  0  0  0  0  0  0  0  0  0  0  0
    0.6550    0.6514   -3.2607 H   0  0  0  0  0  0  0  0  0  0  0  0
    0.8129   -2.3494   -2.5963 H   0  0  0  0  0  0  0  0  0  0  0  0
   -0.6690   -1.3857   -2.6142 H   0  0  0  0  0  0  0  0  0  0  0  0
    0.2259   -1.6670   -4.1194 H   0  0  0  0  0  0  0  0  0  0  0  0
    0.2019    0.5893   -0.7269 N   0  0  0  0  0  0  0  0  0  0  0  0
    0.1242    0.9059    0.6756 C   0  0  2  0  0  0  0  0  0  0  0  0
   -1.3361    0.7538    1.0900 C   0  0  0  0  0  0  0  0  0  0  0  0
   -2.0877    1.7122    1.2567 O   0  0  0  0  0  0  0  0  0  0  0  0
    0.6161    2.3271    0.9781 C   0  0  0  0  0  0  0  0  0  0  0  0
    2.1185    2.5605    0.7189 C   0  0  0  0  0  0  0  0  0  0  0  0
    2.4516    4.0424    0.9132 C   0  0  0  0  0  0  0  0  0  0  0  0
    2.5442    2.1162   -0.6811 C   0  0  0  0  0  0  0  0  0  0  0  0
   -0.5975    0.8179   -1.3140 H   0  0  0  0  0  0  0  0  0  0  0  0
    0.7203    0.1564    1.2059 H   0  0  0  0  0  0  0  0  0  0  0  0
    0.4006    2.5603    2.0303 H   0  0  0  0  0  0  0  0  0  0  0  0
    0.0341    3.0470    0.3875 H   0  0  0  0  0  0  0  0  0  0  0  0
    2.7028    1.9918    1.4525 H   0  0  0  0  0  0  0  0  0  0  0  0
    1.8941    4.6630    0.2036 H   0  0  0  0  0  0  0  0  0  0  0  0
    3.5185    4.2262    0.7485 H   0  0  0  0  0  0  0  0  0  0  0  0
    2.2016    4.3773    1.9257 H   0  0  0  0  0  0  0  0  0  0  0  0
    1.9883    2.6561   -1.4552 H   0  0  0  0  0  0  0  0  0  0  0  0
    3.6118    2.3035   -0.8398 H   0  0  0  0  0  0  0  0  0  0  0  0
    2.3801    1.0445   -0.8267 H   0  0  0  0  0  0  0  0  0  0  0  0
   -1.7098   -0.5783    1.2006 N   0  0  0  0  0  0  0  0  0  0  0  0
   -3.0463   -0.9998    1.5540 C   0  0  2  0  0  0  0  0  0  0  0  0
   -4.0321   -0.0743    0.8532 C   0  0  0  0  0  0  0  0  0  0  0  0
   -3.7347    1.0545    0.4681 O   0  0  0  0  0  0  0  0  0  0  0  0
   -3.2541   -0.9751    3.0603 C   0  0  0  0  0  0  0  0  0  0  0  0
   -1.0231   -1.3039    1.0174 H   0  0  0  0  0  0  0  0  0  0  0  0
   -3.1675   -2.0196    1.1727 H   0  0  0  0  0  0  0  0  0  0  0  0
   -3.1366    0.0386    3.4605 H   0  0  0  0  0  0  0  0  0  0  0  0
   -4.2576   -1.3219    3.3281 H   0  0  0  0  0  0  0  0  0  0  0  0
   -2.5250   -1.6182    3.5649 H   0  0  0  0  0  0  0  0  0  0  0  0
   -5.2946   -0.6407    0.7471 N   0  0  0  0  0  0  0  0  0  0  0  0
   -6.4074    0.0446    0.1321 C   0  0  0  0  0  0  0  0  0  0  0  0
   -5.4460   -1.5894    1.0770 H   0  0  0  0  0  0  0  0  0  0  0  0
   -6.9758    0.5866    0.9023 H   0  0  0  0  0  0  0  0  0  0  0  0
   -6.0305    0.7582   -0.6154 H   0  0  0  0  0  0  0  0  0  0  0  0
   -7.0634   -0.6890   -0.3593 H   0  0  0  0  0  0  0  0  0  0  0  0
  1  3  1  0  0  0  0
  1  7  1  0  0  0  0
  1  2  2  0  0  0  0
 37 38  1  0  0  0  0
 38 46  1  0  0  0  0
 38 39  2  0  0  0  0
  8  9  1  0  0  0  0
  9 17  1  0  0  0  0
  9 10  2  0  0  0  0
 18 19  1  0  0  0  0
 19 36  1  0  0  0  0
 19 20  2  0  0  0  0
 37 40  1  0  0  0  0
  8 11  1  0  0  0  0
 22 23  1  0  0  0  0
 22 24  1  0  0  0  0
 46 47  1  0  0  0  0
 18 21  1  0  0  0  0
 21 22  1  0  0  0  0
 36 37  1  0  0  0  0
  7  8  1  0  0  0  0
 17 18  1  0  0  0  0
  3  4  1  0  0  0  0
  3  5  1  0  0  0  0
  3  6  1  0  0  0  0
 40 43  1  0  0  0  0
 40 44  1  0  0  0  0
 40 45  1  0  0  0  0
 11 14  1  0  0  0  0
 11 15  1  0  0  0  0
 11 16  1  0  0  0  0
 23 30  1  0  0  0  0
 23 31  1  0  0  0  0
 23 32  1  0  0  0  0
 24 33  1  0  0  0  0
 24 34  1  0  0  0  0
 24 35  1  0  0  0  0
 47 49  1  0  0  0  0
 47 50  1  0  0  0  0
 47 51  1  0  0  0  0
 21 27  1  0  0  0  0
 21 28  1  0  0  0  0
 37 42  1  0  0  0  0
  8 13  1  0  0  0  0
 18 26  1  0  0  0  0
 22 29  1  0  0  0  0
 46 48  1  0  0  0  0
  7 12  1  0  0  0  0
 36 41  1  0  0  0  0
 17 25  1  0  0  0  0
M  END
$$$$

  -OEChem-05262214473D

 51 50  0     1  0  0  0  0  0999 V2000
    3.4018   -1.2440   -3.0186 C   0  0  0  0  0  0  0  0  0  0  0  0
    3.2697   -2.0909   -2.1427 O   0  0  0  0  0  0  0  0  0  0  0  0
    4.6845   -1.1645   -3.7779 C   0  0  0  0  0  0  0  0  0  0  0  0
    5.4123   -0.4862   -3.3041 H   0  0  0  0  0  0  0  0  0  0  0  0
    5.1949   -2.1387   -3.8443 H   0  0  0  0  0  0  0  0  0  0  0  0
    4.5953   -0.8128   -4.8182 H   0  0  0  0  0  0  0  0  0  0  0  0
    2.4540   -0.3103   -3.4040 N   0  0  0  0  0  0  0  0  0  0  0  0
    1.1494   -0.2128   -2.8039 C   0  0  2  0  0  0  0  0  0  0  0  0
    1.3350    0.0367   -1.3130 C   0  0  0  0  0  0  0  0  0  0  0  0
    2.3625   -0.2586   -0.7063 O   0  0  0  0  0  0  0  0  0  0  0  0
    0.3331   -1.4728   -3.0467 C   0  0  0  0  0  0  0  0  0  0  0  0
    2.6924    0.3404   -4.1502 H   0  0  0  0  0  0  0  0  0  0  0  0
    0.6550    0.6514   -3.2607 H   0  0  0  0  0  0  0  0  0  0  0  0
    0.8129   -2.3494   -2.5963 H   0  0  0  0  0  0  0  0  0  0  0  0
   -0.6690   -1.3857   -2.6142 H   0  0  0  0  0  0  0  0  0  0  0  0
    0.2259   -1.6670   -4.1194 H   0  0  0  0  0  0  0  0  0  0  0  0
    0.2019    0.5893   -0.7269 N   0  0  0  0  0  0  0  0  0  0  0  0
    0.1242    0.9059    0.6756 C   0  0  2  0  0  0  0  0  0  0  0  0
   -1.3361    0.7538    1.0900 C   0  0  0  0  0  0  0  0  0  0  0  0
   -2.1556    1.6657    1.0004 O   0  0  0  0  0  0  0  0  0  0  0  0
    0.6161    2.3271    0.9781 C   0  0  0  0  0  0  0  0  0  0  0  0
    2.1185    2.5605    0.7189 C   0  0  0  0  0  0  0  0  0  0  0  0
    2.4516    4.0424    0.9132 C   0  0  0  0  0  0  0  0  0  0  0  0
    2.5442    2.1162   -0.6811 C   0  0  0  0  0  0  0  0  0  0  0  0
   -0.5975    0.8179   -1.3140 H   0  0  0  0  0  0  0  0  0  0  0  0
    0.7203    0.1564    1.2059 H   0  0  0  0  0  0  0  0  0  0  0  0
    0.4006    2.5603    2.0303 H   0  0  0  0  0  0  0  0  0  0  0  0
    0.0341    3.0470    0.3875 H   0  0  0  0  0  0  0  0  0  0  0  0
    2.7028    1.9918    1.4525 H   0  0  0  0  0  0  0  0  0  0  0  0
    1.8941    4.6630    0.2036 H   0  0  0  0  0  0  0  0  0  0  0  0
    3.5185    4.2262    0.7485 H   0  0  0  0  0  0  0  0  0  0  0  0
    2.2016    4.3773    1.9257 H   0  0  0  0  0  0  0  0  0  0  0  0
    1.9883    2.6561   -1.4552 H   0  0  0  0  0  0  0  0  0  0  0  0
    3.6118    2.3035   -0.8398 H   0  0  0  0  0  0  0  0  0  0  0  0
    2.3801    1.0445   -0.8267 H   0  0  0  0  0  0  0  0  0  0  0  0
   -1.6232   -0.5336    1.5220 N   0  0  0  0  0  0  0  0  0  0  0  0
   -2.9399   -0.9519    1.9465 C   0  0  2  0  0  0  0  0  0  0  0  0
   -3.9606   -0.3031    1.0210 C   0  0  0  0  0  0  0  0  0  0  0  0
   -3.7265    0.7144    0.3723 O   0  0  0  0  0  0  0  0  0  0  0  0
   -3.2010   -0.5715    3.3956 C   0  0  0  0  0  0  0  0  0  0  0  0
   -0.8835   -1.2294    1.5367 H   0  0  0  0  0  0  0  0  0  0  0  0
   -2.9791   -2.0403    1.8287 H   0  0  0  0  0  0  0  0  0  0  0  0
   -3.1657    0.5153    3.5331 H   0  0  0  0  0  0  0  0  0  0  0  0
   -4.1876   -0.9144    3.7242 H   0  0  0  0  0  0  0  0  0  0  0  0
   -2.4484   -1.0148    4.0565 H   0  0  0  0  0  0  0  0  0  0  0  0
   -5.1779   -0.9695    1.0376 N   0  0  0  0  0  0  0  0  0  0  0  0
   -6.3121   -0.5409    0.2528 C   0  0  0  0  0  0  0  0  0  0  0  0
   -5.2767   -1.8159    1.5904 H   0  0  0  0  0  0  0  0  0  0  0  0
   -6.9420    0.1310    0.8543 H   0  0  0  0  0  0  0  0  0  0  0  0
   -5.9583   -0.0082   -0.6422 H   0  0  0  0  0  0  0  0  0  0  0  0
   -6.9001   -1.4193   -0.0517 H   0  0  0  0  0  0  0  0  0  0  0  0
  1  3  1  0  0  0  0
  1  7  1  0  0  0  0
  1  2  2  0  0  0  0
 37 38  1  0  0  0  0
 38 46  1  0  0  0  0
 38 39  2  0  0  0  0
  8  9  1  0  0  0  0
  9 17  1  0  0  0  0
  9 10  2  0  0  0  0
 18 19  1  0  0  0  0
 19 36  1  0  0  0  0
 19 20  2  0  0  0  0
 37 40  1  0  0  0  0
  8 11  1  0  0  0  0
 22 23  1  0  0  0  0
 22 24  1  0  0  0  0
 46 47  1  0  0  0  0
 18 21  1  0  0  0  0
 21 22  1  0  0  0  0
 36 37  1  0  0  0  0
  7  8  1  0  0  0  0
 17 18  1  0  0  0  0
  3  4  1  0  0  0  0
  3  5  1  0  0  0  0
  3  6  1  0  0  0  0
 40 43  1  0  0  0  0
 40 44  1  0  0  0  0
 40 45  1  0  0  0  0
 11 14  1  0  0  0  0
 11 15  1  0  0  0  0
 11 16  1  0  0  0  0
 23 30  1  0  0  0  0
 23 31  1  0  0  0  0
 23 32  1  0  0  0  0
 24 33  1  0  0  0  0
 24 34  1  0  0  0  0
 24 35  1  0  0  0  0
 47 49  1  0  0  0  0
 47 50  1  0  0  0  0
 47 51  1  0  0  0  0
 21 27  1  0  0  0  0
 21 28  1  0  0  0  0
 37 42  1  0  0  0  0
  8 13  1  0  0  0  0
 18 26  1  0  0  0  0
 22 29  1  0  0  0  0
 46 48  1  0  0  0  0
  7 12  1  0  0  0  0
 36 41  1  0  0  0  0
 17 25  1  0  0  0  0
M  END
$$$$

  -OEChem-05262214473D

 51 50  0     1  0  0  0  0  0999 V2000
    3.4018   -1.2440   -3.0186 C   0  0  0  0  0  0  0  0  0  0  0  0
    3.2697   -2.0909   -2.1427 O   0  0  0  0  0  0  0  0  0  0  0  0
    4.6845   -1.1645   -3.7779 C   0  0  0  0  0  0  0  0  0  0  0  0
    5.4123   -0.4862   -3.3041 H   0  0  0  0  0  0  0  0  0  0  0  0
    5.1949   -2.1387   -3.8443 H   0  0  0  0  0  0  0  0  0  0  0  0
    4.5953   -0.8128   -4.8182 H   0  0  0  0  0  0  0  0  0  0  0  0
    2.4540   -0.3103   -3.4040 N   0  0  0  0  0  0  0  0  0  0  0  0
    1.1494   -0.2128   -2.8039 C   0  0  2  0  0  0  0  0  0  0  0  0
    1.3350    0.0367   -1.3130 C   0  0  0  0  0  0  0  0  0  0  0  0
    2.3625   -0.2586   -0.7063 O   0  0  0  0  0  0  0  0  0  0  0  0
    0.3331   -1.4728   -3.0467 C   0  0  0  0  0  0  0  0  0  0  0  0
    2.6924    0.3404   -4.1502 H   0  0  0  0  0  0  0  0  0  0  0  0
    0.6550    0.6514   -3.2607 H   0  0  0  0  0  0  0  0  0  0  0  0
    0.8129   -2.3494   -2.5963 H   0  0  0  0  0  0  0  0  0  0  0  0
   -0.6690   -1.3857   -2.6142 H   0  0  0  0  0  0  0  0  0  0  0  0
    0.2259   -1.6670   -4.1194 H   0  0  0  0  0  0  0  0  0  0  0  0
    0.2019    0.5893   -0.7269 N   0  0  0  0  0  0  0  0  0  0  0  0
    0.1242    0.9059    0.6756 C   0  0  2  0  0  0  0  0  0  0  0  0
   -1.3361    0.7538    1.0900 C   0  0  0  0  0  0  0  0  0  0  0  0
   -2.2113    1.5526    0.7626 O   0  0  0  0  0  0  0  0  0  0  0  0
    0.6161    2.3271    0.9781 C   0  0  0  0  0  0  0  0  0  0  0  0
    2.1185    2.5605    0.7189 C   0  0  0  0  0  0  0  0  0  0  0  0
    2.4516    4.0424    0.9132 C   0  0  0  0  0  0  0  0  0  0  0  0
    2.5442    2.1162   -0.6811 C   0  0  0  0  0  0  0  0  0  0  0  0
   -0.5975    0.8179   -1.3140 H   0  0  0  0  0  0  0  0  0  0  0  0
    0.7203    0.1564    1.2059 H   0  0  0  0  0  0  0  0  0  0  0  0
    0.4006    2.5603    2.0303 H   0  0  0  0  0  0  0  0  0  0  0  0
    0.0341    3.0470    0.3875 H   0  0  0  0  0  0  0  0  0  0  0  0
    2.7028    1.9918    1.4525 H   0  0  0  0  0  0  0  0  0  0  0  0
    1.8941    4.6630    0.2036 H   0  0  0  0  0  0  0  0  0  0  0  0
    3.5185    4.2262    0.7485 H   0  0  0  0  0  0  0  0  0  0  0  0
    2.2016    4.3773    1.9257 H   0  0  0  0  0  0  0  0  0  0  0  0
    1.9883    2.6561   -1.4552 H   0  0  0  0  0  0  0  0  0  0  0  0
    3.6118    2.3035   -0.8398 H   0  0  0  0  0  0  0  0  0  0  0  0
    2.3801    1.0445   -0.8267 H   0  0  0  0  0  0  0  0  0  0  0  0
   -1.5511   -0.4046    1.8237 N   0  0  0  0  0  0  0  0  0  0  0  0
   -2.8506   -0.8010    2.3165 C   0  0  2  0  0  0  0  0  0  0  0  0
   -3.8799   -0.4776    1.2415 C   0  0  0  0  0  0  0  0  0  0  0  0
   -3.6922    0.3628    0.3642 O   0  0  0  0  0  0  0  0  0  0  0  0
   -3.1867   -0.0949    3.6208 C   0  0  0  0  0  0  0  0  0  0  0  0
   -0.7673   -1.0190    2.0234 H   0  0  0  0  0  0  0  0  0  0  0  0
   -2.8127   -1.8846    2.4724 H   0  0  0  0  0  0  0  0  0  0  0  0
   -3.2291    0.9918    3.4843 H   0  0  0  0  0  0  0  0  0  0  0  0
   -4.1589   -0.4177    4.0076 H   0  0  0  0  0  0  0  0  0  0  0  0
   -2.4294   -0.3047    4.3839 H   0  0  0  0  0  0  0  0  0  0  0  0
   -5.0496   -1.2069    1.4027 N   0  0  0  0  0  0  0  0  0  0  0  0
   -6.1821   -1.0699    0.5170 C   0  0  0  0  0  0  0  0  0  0  0  0
   -5.1105   -1.8956    2.1469 H   0  0  0  0  0  0  0  0  0  0  0  0
   -6.8760   -0.3185    0.9217 H   0  0  0  0  0  0  0  0  0  0  0  0
   -5.8340   -0.7501   -0.4763 H   0  0  0  0  0  0  0  0  0  0  0  0
   -6.6989   -2.0371    0.4305 H   0  0  0  0  0  0  0  0  0  0  0  0
  1  3  1  0  0  0  0
  1  7  1  0  0  0  0
  1  2  2  0  0  0  0
 37 38  1  0  0  0  0
 38 46  1  0  0  0  0
 38 39  2  0  0  0  0
  8  9  1  0  0  0  0
  9 17  1  0  0  0  0
  9 10  2  0  0  0  0
 18 19  1  0  0  0  0
 19 36  1  0  0  0  0
 19 20  2  0  0  0  0
 37 40  1  0  0  0  0
  8 11  1  0  0  0  0
 22 23  1  0  0  0  0
 22 24  1  0  0  0  0
 46 47  1  0  0  0  0
 18 21  1  0  0  0  0
 21 22  1  0  0  0  0
 36 37  1  0  0  0  0
  7  8  1  0  0  0  0
 17 18  1  0  0  0  0
  3  4  1  0  0  0  0
  3  5  1  0  0  0  0
  3  6  1  0  0  0  0
 40 43  1  0  0  0  0
 40 44  1  0  0  0  0
 40 45  1  0  0  0  0
 11 14  1  0  0  0  0
 11 15  1  0  0  0  0
 11 16  1  0  0  0  0
 23 30  1  0  0  0  0
 23 31  1  0  0  0  0
 23 32  1  0  0  0  0
 24 33  1  0  0  0  0
 24 34  1  0  0  0  0
 24 35  1  0  0  0  0
 47 49  1  0  0  0  0
 47 50  1  0  0  0  0
 47 51  1  0  0  0  0
 21 27  1  0  0  0  0
 21 28  1  0  0  0  0
 37 42  1  0  0  0  0
  8 13  1  0  0  0  0
 18 26  1  0  0  0  0
 22 29  1  0  0  0  0
 46 48  1  0  0  0  0
  7 12  1  0  0  0  0
 36 41  1  0  0  0  0
 17 25  1  0  0  0  0
M  END
$$$$

  -OEChem-05262214473D

 51 50  0     1  0  0  0  0  0999 V2000
    3.4018   -1.2440   -3.0186 C   0  0  0  0  0  0  0  0  0  0  0  0
    3.2697   -2.0909   -2.1427 O   0  0  0  0  0  0  0  0  0  0  0  0
    4.6845   -1.1645   -3.7779 C   0  0  0  0  0  0  0  0  0  0  0  0
    5.4123   -0.4862   -3.3041 H   0  0  0  0  0  0  0  0  0  0  0  0
    5.1949   -2.1387   -3.8443 H   0  0  0  0  0  0  0  0  0  0  0  0
    4.5953   -0.8128   -4.8182 H   0  0  0  0  0  0  0  0  0  0  0  0
    2.4540   -0.3103   -3.4040 N   0  0  0  0  0  0  0  0  0  0  0  0
    1.1494   -0.2128   -2.8039 C   0  0  2  0  0  0  0  0  0  0  0  0
    1.3350    0.0367   -1.3130 C   0  0  0  0  0  0  0  0  0  0  0  0
    2.3625   -0.2586   -0.7063 O   0  0  0  0  0  0  0  0  0  0  0  0
    0.3331   -1.4728   -3.0467 C   0  0  0  0  0  0  0  0  0  0  0  0
    2.6924    0.3404   -4.1502 H   0  0  0  0  0  0  0  0  0  0  0  0
    0.6550    0.6514   -3.2607 H   0  0  0  0  0  0  0  0  0  0  0  0
    0.8129   -2.3494   -2.5963 H   0  0  0  0  0  0  0  0  0  0  0  0
   -0.6690   -1.3857   -2.6142 H   0  0  0  0  0  0  0  0  0  0  0  0
    0.2259   -1.6670   -4.1194 H   0  0  0  0  0  0  0  0  0  0  0  0
    0.2019    0.5893   -0.7269 N   0  0  0  0  0  0  0  0  0  0  0  0
    0.1242    0.9059    0.6756 C   0  0  2  0  0  0  0  0  0  0  0  0
   -1.3361    0.7538    1.0900 C   0  0  0  0  0  0  0  0  0  0  0  0
   -2.2510    1.3805    0.5595 O   0  0  0  0  0  0  0  0  0  0  0  0
    0.6161    2.3271    0.9781 C   0  0  0  0  0  0  0  0  0  0  0  0
    2.1185    2.5605    0.7189 C   0  0  0  0  0  0  0  0  0  0  0  0
    2.4516    4.0424    0.9132 C   0  0  0  0  0  0  0  0  0  0  0  0
    2.5442    2.1162   -0.6811 C   0  0  0  0  0  0  0  0  0  0  0  0
   -0.5975    0.8179   -1.3140 H   0  0  0  0  0  0  0  0  0  0  0  0
    0.7203    0.1564    1.2059 H   0  0  0  0  0  0  0  0  0  0  0  0
    0.4006    2.5603    2.0303 H   0  0  0  0  0  0  0  0  0  0  0  0
    0.0341    3.0470    0.3875 H   0  0  0  0  0  0  0  0  0  0  0  0
    2.7028    1.9918    1.4525 H   0  0  0  0  0  0  0  0  0  0  0  0
    1.8941    4.6630    0.2036 H   0  0  0  0  0  0  0  0  0  0  0  0
    3.5185    4.2262    0.7485 H   0  0  0  0  0  0  0  0  0  0  0  0
    2.2016    4.3773    1.9257 H   0  0  0  0  0  0  0  0  0  0  0  0
    1.9883    2.6561   -1.4552 H   0  0  0  0  0  0  0  0  0  0  0  0
    3.6118    2.3035   -0.8398 H   0  0  0  0  0  0  0  0  0  0  0  0
    2.3801    1.0445   -0.8267 H   0  0  0  0  0  0  0  0  0  0  0  0
   -1.4982   -0.2003    2.0849 N   0  0  0  0  0  0  0  0  0  0  0  0
   -2.7845   -0.5572    2.6387 C   0  0  2  0  0  0  0  0  0  0  0  0
   -3.7953   -0.5858    1.4999 C   0  0  0  0  0  0  0  0  0  0  0  0
   -3.6341    0.0235    0.4445 O   0  0  0  0  0  0  0  0  0  0  0  0
   -3.2122    0.4222    3.7206 C   0  0  0  0  0  0  0  0  0  0  0  0
   -0.6824   -0.6869    2.4444 H   0  0  0  0  0  0  0  0  0  0  0  0
   -2.6794   -1.5630    3.0599 H   0  0  0  0  0  0  0  0  0  0  0  0
   -3.3227    1.4355    3.3175 H   0  0  0  0  0  0  0  0  0  0  0  0
   -4.1734    0.1343    4.1590 H   0  0  0  0  0  0  0  0  0  0  0  0
   -2.4694    0.4636    4.5246 H   0  0  0  0  0  0  0  0  0  0  0  0
   -4.9183   -1.3367    1.8176 N   0  0  0  0  0  0  0  0  0  0  0  0
   -6.0261   -1.5063    0.9065 C   0  0  0  0  0  0  0  0  0  0  0  0
   -4.9587   -1.8230    2.7085 H   0  0  0  0  0  0  0  0  0  0  0  0
   -6.7825   -0.7314    1.0998 H   0  0  0  0  0  0  0  0  0  0  0  0
   -5.6660   -1.4168   -0.1291 H   0  0  0  0  0  0  0  0  0  0  0  0
   -6.4736   -2.5003    1.0545 H   0  0  0  0  0  0  0  0  0  0  0  0
  1  3  1  0  0  0  0
  1  7  1  0  0  0  0
  1  2  2  0  0  0  0
 37 38  1  0  0  0  0
 38 46  1  0  0  0  0
 38 39  2  0  0  0  0
  8  9  1  0  0  0  0
  9 17  1  0  0  0  0
  9 10  2  0  0  0  0
 18 19  1  0  0  0  0
 19 36  1  0  0  0  0
 19 20  2  0  0  0  0
 37 40  1  0  0  0  0
  8 11  1  0  0  0  0
 22 23  1  0  0  0  0
 22 24  1  0  0  0  0
 46 47  1  0  0  0  0
 18 21  1  0  0  0  0
 21 22  1  0  0  0  0
 36 37  1  0  0  0  0
  7  8  1  0  0  0  0
 17 18  1  0  0  0  0
  3  4  1  0  0  0  0
  3  5  1  0  0  0  0
  3  6  1  0  0  0  0
 40 43  1  0  0  0  0
 40 44  1  0  0  0  0
 40 45  1  0  0  0  0
 11 14  1  0  0  0  0
 11 15  1  0  0  0  0
 11 16  1  0  0  0  0
 23 30  1  0  0  0  0
 23 31  1  0  0  0  0
 23 32  1  0  0  0  0
 24 33  1  0  0  0  0
 24 34  1  0  0  0  0
 24 35  1  0  0  0  0
 47 49  1  0  0  0  0
 47 50  1  0  0  0  0
 47 51  1  0  0  0  0
 21 27  1  0  0  0  0
 21 28  1  0  0  0  0
 37 42  1  0  0  0  0
  8 13  1  0  0  0  0
 18 26  1  0  0  0  0
 22 29  1  0  0  0  0
 46 48  1  0  0  0  0
  7 12  1  0  0  0  0
 36 41  1  0  0  0  0
 17 25  1  0  0  0  0
M  END
$$$$

  -OEChem-05262214473D

 51 50  0     1  0  0  0  0  0999 V2000
    3.4018   -1.2440   -3.0186 C   0  0  0  0  0  0  0  0  0  0  0  0
    3.2697   -2.0909   -2.1427 O   0  0  0  0  0  0  0  0  0  0  0  0
    4.6845   -1.1645   -3.7779 C   0  0  0  0  0  0  0  0  0  0  0  0
    5.4123   -0.4862   -3.3041 H   0  0  0  0  0  0  0  0  0  0  0  0
    5.1949   -2.1387   -3.8443 H   0  0  0  0  0  0  0  0  0  0  0  0
    4.5953   -0.8128   -4.8182 H   0  0  0  0  0  0  0  0  0  0  0  0
    2.4540   -0.3103   -3.4040 N   0  0  0  0  0  0  0  0  0  0  0  0
    1.1494   -0.2128   -2.8039 C   0  0  2  0  0  0  0  0  0  0  0  0
    1.3350    0.0367   -1.3130 C   0  0  0  0  0  0  0  0  0  0  0  0
    2.3625   -0.2586   -0.7063 O   0  0  0  0  0  0  0  0  0  0  0  0
    0.3331   -1.4728   -3.0467 C   0  0  0  0  0  0  0  0  0  0  0  0
    2.6924    0.3404   -4.1502 H   0  0  0  0  0  0  0  0  0  0  0  0
    0.6550    0.6514   -3.2607 H   0  0  0  0  0  0  0  0  0  0  0  0
    0.8129   -2.3494   -2.5963 H   0  0  0  0  0  0  0  0  0  0  0  0
   -0.6690   -1.3857   -2.6142 H   0  0  0  0  0  0  0  0  0  0  0  0
    0.2259   -1.6670   -4.1194 H   0  0  0  0  0  0  0  0  0  0  0  0
    0.2019    0.5893   -0.7269 N   0  0  0  0  0  0  0  0  0  0  0  0
    0.1242    0.9059    0.6756 C   0  0  2  0  0  0  0  0  0  0  0  0
   -1.3361    0.7538    1.0900 C   0  0  0  0  0  0  0  0  0  0  0  0
   -2.2720    1.1611    0.4049 O   0  0  0  0  0  0  0  0  0  0  0  0
    0.6161    2.3271    0.9781 C   0  0  0  0  0  0  0  0  0  0  0  0
    2.1185    2.5605    0.7189 C   0  0  0  0  0  0  0  0  0  0  0  0
    2.4516    4.0424    0.9132 C   0  0  0  0  0  0  0  0  0  0  0  0
    2.5442    2.1162   -0.6811 C   0  0  0  0  0  0  0  0  0  0  0  0
   -0.5975    0.8179   -1.3140 H   0  0  0  0  0  0  0  0  0  0  0  0
    0.7203    0.1564    1.2059 H   0  0  0  0  0  0  0  0  0  0  0  0
    0.4006    2.5603    2.0303 H   0  0  0  0  0  0  0  0  0  0  0  0
    0.0341    3.0470    0.3875 H   0  0  0  0  0  0  0  0  0  0  0  0
    2.7028    1.9918    1.4525 H   0  0  0  0  0  0  0  0  0  0  0  0
    1.8941    4.6630    0.2036 H   0  0  0  0  0  0  0  0  0  0  0  0
    3.5185    4.2262    0.7485 H   0  0  0  0  0  0  0  0  0  0  0  0
    2.2016    4.3773    1.9257 H   0  0  0  0  0  0  0  0  0  0  0  0
    1.9883    2.6561   -1.4552 H   0  0  0  0  0  0  0  0  0  0  0  0
    3.6118    2.3035   -0.8398 H   0  0  0  0  0  0  0  0  0  0  0  0
    2.3801    1.0445   -0.8267 H   0  0  0  0  0  0  0  0  0  0  0  0
   -1.4682    0.0656    2.2880 N   0  0  0  0  0  0  0  0  0  0  0  0
   -2.7461   -0.2373    2.8913 C   0  0  2  0  0  0  0  0  0  0  0  0
   -3.7126   -0.6203    1.7784 C   0  0  0  0  0  0  0  0  0  0  0  0
   -3.5562   -0.2802    0.6075 O   0  0  0  0  0  0  0  0  0  0  0  0
   -3.2758    0.9447    3.6883 C   0  0  0  0  0  0  0  0  0  0  0  0
   -0.6346   -0.2559    2.7710 H   0  0  0  0  0  0  0  0  0  0  0  0
   -2.5885   -1.0974    3.5511 H   0  0  0  0  0  0  0  0  0  0  0  0
   -3.4399    1.8162    3.0440 H   0  0  0  0  0  0  0  0  0  0  0  0
   -4.2302    0.7040    4.1681 H   0  0  0  0  0  0  0  0  0  0  0  0
   -2.5658    1.2377    4.4692 H   0  0  0  0  0  0  0  0  0  0  0  0
   -4.7931   -1.3501    2.2538 N   0  0  0  0  0  0  0  0  0  0  0  0
   -5.8548   -1.8204    1.3949 C   0  0  0  0  0  0  0  0  0  0  0  0
   -4.8317   -1.6030    3.2368 H   0  0  0  0  0  0  0  0  0  0  0  0
   -6.6677   -1.0795    1.3766 H   0  0  0  0  0  0  0  0  0  0  0  0
   -5.4659   -1.9630    0.3758 H   0  0  0  0  0  0  0  0  0  0  0  0
   -6.2395   -2.7772    1.7778 H   0  0  0  0  0  0  0  0  0  0  0  0
  1  3  1  0  0  0  0
  1  7  1  0  0  0  0
  1  2  2  0  0  0  0
 37 38  1  0  0  0  0
 38 46  1  0  0  0  0
 38 39  2  0  0  0  0
  8  9  1  0  0  0  0
  9 17  1  0  0  0  0
  9 10  2  0  0  0  0
 18 19  1  0  0  0  0
 19 36  1  0  0  0  0
 19 20  2  0  0  0  0
 37 40  1  0  0  0  0
  8 11  1  0  0  0  0
 22 23  1  0  0  0  0
 22 24  1  0  0  0  0
 46 47  1  0  0  0  0
 18 21  1  0  0  0  0
 21 22  1  0  0  0  0
 36 37  1  0  0  0  0
  7  8  1  0  0  0  0
 17 18  1  0  0  0  0
  3  4  1  0  0  0  0
  3  5  1  0  0  0  0
  3  6  1  0  0  0  0
 40 43  1  0  0  0  0
 40 44  1  0  0  0  0
 40 45  1  0  0  0  0
 11 14  1  0  0  0  0
 11 15  1  0  0  0  0
 11 16  1  0  0  0  0
 23 30  1  0  0  0  0
 23 31  1  0  0  0  0
 23 32  1  0  0  0  0
 24 33  1  0  0  0  0
 24 34  1  0  0  0  0
 24 35  1  0  0  0  0
 47 49  1  0  0  0  0
 47 50  1  0  0  0  0
 47 51  1  0  0  0  0
 21 27  1  0  0  0  0
 21 28  1  0  0  0  0
 37 42  1  0  0  0  0
  8 13  1  0  0  0  0
 18 26  1  0  0  0  0
 22 29  1  0  0  0  0
 46 48  1  0  0  0  0
  7 12  1  0  0  0  0
 36 41  1  0  0  0  0
 17 25  1  0  0  0  0
M  END
$$$$

  -OEChem-05262214473D

 51 50  0     1  0  0  0  0  0999 V2000
    3.4018   -1.2440   -3.0186 C   0  0  0  0  0  0  0  0  0  0  0  0
    3.2697   -2.0909   -2.1427 O   0  0  0  0  0  0  0  0  0  0  0  0
    4.6845   -1.1645   -3.7779 C   0  0  0  0  0  0  0  0  0  0  0  0
    5.4123   -0.4862   -3.3041 H   0  0  0  0  0  0  0  0  0  0  0  0
    5.1949   -2.1387   -3.8443 H   0  0  0  0  0  0  0  0  0  0  0  0
    4.5953   -0.8128   -4.8182 H   0  0  0  0  0  0  0  0  0  0  0  0
    2.4540   -0.3103   -3.4040 N   0  0  0  0  0  0  0  0  0  0  0  0
    1.1494   -0.2128   -2.8039 C   0  0  2  0  0  0  0  0  0  0  0  0
    1.3350    0.0367   -1.3130 C   0  0  0  0  0  0  0  0  0  0  0  0
    2.3625   -0.2586   -0.7063 O   0  0  0  0  0  0  0  0  0  0  0  0
    0.3331   -1.4728   -3.0467 C   0  0  0  0  0  0  0  0  0  0  0  0
    2.6924    0.3404   -4.1502 H   0  0  0  0  0  0  0  0  0  0  0  0
    0.6550    0.6514   -3.2607 H   0  0  0  0  0  0  0  0  0  0  0  0
    0.8129   -2.3494   -2.5963 H   0  0  0  0  0  0  0  0  0  0  0  0
   -0.6690   -1.3857   -2.6142 H   0  0  0  0  0  0  0  0  0  0  0  0
    0.2259   -1.6670   -4.1194 H   0  0  0  0  0  0  0  0  0  0  0  0
    0.2019    0.5893   -0.7269 N   0  0  0  0  0  0  0  0  0  0  0  0
    0.1242    0.9059    0.6756 C   0  0  2  0  0  0  0  0  0  0  0  0
   -1.3361    0.7538    1.0900 C   0  0  0  0  0  0  0  0  0  0  0  0
   -2.2729    0.9094    0.3094 O   0  0  0  0  0  0  0  0  0  0  0  0
    0.6161    2.3271    0.9781 C   0  0  0  0  0  0  0  0  0  0  0  0
    2.1185    2.5605    0.7189 C   0  0  0  0  0  0  0  0  0  0  0  0
    2.4516    4.0424    0.9132 C   0  0  0  0  0  0  0  0  0  0  0  0
    2.5442    2.1162   -0.6811 C   0  0  0  0  0  0  0  0  0  0  0  0
   -0.5975    0.8179   -1.3140 H   0  0  0  0  0  0  0  0  0  0  0  0
    0.7203    0.1564    1.2059 H   0  0  0  0  0  0  0  0  0  0  0  0
    0.4006    2.5603    2.0303 H   0  0  0  0  0  0  0  0  0  0  0  0
    0.0341    3.0470    0.3875 H   0  0  0  0  0  0  0  0  0  0  0  0
    2.7028    1.9918    1.4525 H   0  0  0  0  0  0  0  0  0  0  0  0
    1.8941    4.6630    0.2036 H   0  0  0  0  0  0  0  0  0  0  0  0
    3.5185    4.2262    0.7485 H   0  0  0  0  0  0  0  0  0  0  0  0
    2.2016    4.3773    1.9257 H   0  0  0  0  0  0  0  0  0  0  0  0
    1.9883    2.6561   -1.4552 H   0  0  0  0  0  0  0  0  0  0  0  0
    3.6118    2.3035   -0.8398 H   0  0  0  0  0  0  0  0  0  0  0  0
    2.3801    1.0445   -0.8267 H   0  0  0  0  0  0  0  0  0  0  0  0
   -1.4632    0.3748    2.4191 N   0  0  0  0  0  0  0  0  0  0  0  0
   -2.7381    0.1371    3.0571 C   0  0  2  0  0  0  0  0  0  0  0  0
   -3.6376   -0.5789    2.0581 C   0  0  0  0  0  0  0  0  0  0  0  0
   -3.4638   -0.5277    0.8423 O   0  0  0  0  0  0  0  0  0  0  0  0
   -3.3731    1.4369    3.5260 C   0  0  0  0  0  0  0  0  0  0  0  0
   -0.6271    0.2447    2.9809 H   0  0  0  0  0  0  0  0  0  0  0  0
   -2.5461   -0.5197    3.9125 H   0  0  0  0  0  0  0  0  0  0  0  0
   -3.5729    2.1079    2.6826 H   0  0  0  0  0  0  0  0  0  0  0  0
   -4.3252    1.2525    4.0344 H   0  0  0  0  0  0  0  0  0  0  0  0
   -2.7118    1.9650    4.2214 H   0  0  0  0  0  0  0  0  0  0  0  0
   -4.6825   -1.2462    2.6817 N   0  0  0  0  0  0  0  0  0  0  0  0
   -5.6799   -1.9907    1.9488 C   0  0  0  0  0  0  0  0  0  0  0  0
   -4.7380   -1.2508    3.6959 H   0  0  0  0  0  0  0  0  0  0  0  0
   -6.5395   -1.3391    1.7331 H   0  0  0  0  0  0  0  0  0  0  0  0
   -5.2471   -2.3514    1.0040 H   0  0  0  0  0  0  0  0  0  0  0  0
   -6.0125   -2.8490    2.5511 H   0  0  0  0  0  0  0  0  0  0  0  0
  1  3  1  0  0  0  0
  1  7  1  0  0  0  0
  1  2  2  0  0  0  0
 37 38  1  0  0  0  0
 38 46  1  0  0  0  0
 38 39  2  0  0  0  0
  8  9  1  0  0  0  0
  9 17  1  0  0  0  0
  9 10  2  0  0  0  0
 18 19  1  0  0  0  0
 19 36  1  0  0  0  0
 19 20  2  0  0  0  0
 37 40  1  0  0  0  0
  8 11  1  0  0  0  0
 22 23  1  0  0  0  0
 22 24  1  0  0  0  0
 46 47  1  0  0  0  0
 18 21  1  0  0  0  0
 21 22  1  0  0  0  0
 36 37  1  0  0  0  0
  7  8  1  0  0  0  0
 17 18  1  0  0  0  0
  3  4  1  0  0  0  0
  3  5  1  0  0  0  0
  3  6  1  0  0  0  0
 40 43  1  0  0  0  0
 40 44  1  0  0  0  0
 40 45  1  0  0  0  0
 11 14  1  0  0  0  0
 11 15  1  0  0  0  0
 11 16  1  0  0  0  0
 23 30  1  0  0  0  0
 23 31  1  0  0  0  0
 23 32  1  0  0  0  0
 24 33  1  0  0  0  0
 24 34  1  0  0  0  0
 24 35  1  0  0  0  0
 47 49  1  0  0  0  0
 47 50  1  0  0  0  0
 47 51  1  0  0  0  0
 21 27  1  0  0  0  0
 21 28  1  0  0  0  0
 37 42  1  0  0  0  0
  8 13  1  0  0  0  0
 18 26  1  0  0  0  0
 22 29  1  0  0  0  0
 46 48  1  0  0  0  0
  7 12  1  0  0  0  0
 36 41  1  0  0  0  0
 17 25  1  0  0  0  0
M  END
$$$$

  -OEChem-05262214473D

 51 50  0     1  0  0  0  0  0999 V2000
    3.4018   -1.2440   -3.0186 C   0  0  0  0  0  0  0  0  0  0  0  0
    3.2697   -2.0909   -2.1427 O   0  0  0  0  0  0  0  0  0  0  0  0
    4.6845   -1.1645   -3.7779 C   0  0  0  0  0  0  0  0  0  0  0  0
    5.4123   -0.4862   -3.3041 H   0  0  0  0  0  0  0  0  0  0  0  0
    5.1949   -2.1387   -3.8443 H   0  0  0  0  0  0  0  0  0  0  0  0
    4.5953   -0.8128   -4.8182 H   0  0  0  0  0  0  0  0  0  0  0  0
    2.4540   -0.3103   -3.4040 N   0  0  0  0  0  0  0  0  0  0  0  0
    1.1494   -0.2128   -2.8039 C   0  0  2  0  0  0  0  0  0  0  0  0
    1.3350    0.0367   -1.3130 C   0  0  0  0  0  0  0  0  0  0  0  0
    2.3625   -0.2586   -0.7063 O   0  0  0  0  0  0  0  0  0  0  0  0
    0.3331   -1.4728   -3.0467 C   0  0  0  0  0  0  0  0  0  0  0  0
    2.6924    0.3404   -4.1502 H   0  0  0  0  0  0  0  0  0  0  0  0
    0.6550    0.6514   -3.2607 H   0  0  0  0  0  0  0  0  0  0  0  0
    0.8129   -2.3494   -2.5963 H   0  0  0  0  0  0  0  0  0  0  0  0
   -0.6690   -1.3857   -2.6142 H   0  0  0  0  0  0  0  0  0  0  0  0
    0.2259   -1.6670   -4.1194 H   0  0  0  0  0  0  0  0  0  0  0  0
    0.2019    0.5893   -0.7269 N   0  0  0  0  0  0  0  0  0  0  0  0
    0.1242    0.9059    0.6756 C   0  0  2  0  0  0  0  0  0  0  0  0
   -1.3361    0.7538    1.0900 C   0  0  0  0  0  0  0  0  0  0  0  0
   -2.2536    0.6426    0.2795 O   0  0  0  0  0  0  0  0  0  0  0  0
    0.6161    2.3271    0.9781 C   0  0  0  0  0  0  0  0  0  0  0  0
    2.1185    2.5605    0.7189 C   0  0  0  0  0  0  0  0  0  0  0  0
    2.4516    4.0424    0.9132 C   0  0  0  0  0  0  0  0  0  0  0  0
    2.5442    2.1162   -0.6811 C   0  0  0  0  0  0  0  0  0  0  0  0
   -0.5975    0.8179   -1.3140 H   0  0  0  0  0  0  0  0  0  0  0  0
    0.7203    0.1564    1.2059 H   0  0  0  0  0  0  0  0  0  0  0  0
    0.4006    2.5603    2.0303 H   0  0  0  0  0  0  0  0  0  0  0  0
    0.0341    3.0470    0.3875 H   0  0  0  0  0  0  0  0  0  0  0  0
    2.7028    1.9918    1.4525 H   0  0  0  0  0  0  0  0  0  0  0  0
    1.8941    4.6630    0.2036 H   0  0  0  0  0  0  0  0  0  0  0  0
    3.5185    4.2262    0.7485 H   0  0  0  0  0  0  0  0  0  0  0  0
    2.2016    4.3773    1.9257 H   0  0  0  0  0  0  0  0  0  0  0  0
    1.9883    2.6561   -1.4552 H   0  0  0  0  0  0  0  0  0  0  0  0
    3.6118    2.3035   -0.8398 H   0  0  0  0  0  0  0  0  0  0  0  0
    2.3801    1.0445   -0.8267 H   0  0  0  0  0  0  0  0  0  0  0  0
   -1.4835    0.7063    2.4693 N   0  0  0  0  0  0  0  0  0  0  0  0
   -2.7609    0.5403    3.1246 C   0  0  2  0  0  0  0  0  0  0  0  0
   -3.5752   -0.4642    2.3200 C   0  0  0  0  0  0  0  0  0  0  0  0
   -3.3632   -0.7021    1.1328 O   0  0  0  0  0  0  0  0  0  0  0  0
   -3.4975    1.8653    3.2447 C   0  0  0  0  0  0  0  0  0  0  0  0
   -0.6605    0.7807    3.0599 H   0  0  0  0  0  0  0  0  0  0  0  0
   -2.5550    0.1310    4.1196 H   0  0  0  0  0  0  0  0  0  0  0  0
   -3.7125    2.2907    2.2577 H   0  0  0  0  0  0  0  0  0  0  0  0
   -4.4522    1.7426    3.7668 H   0  0  0  0  0  0  0  0  0  0  0  0
   -2.8977    2.5959    3.7981 H   0  0  0  0  0  0  0  0  0  0  0  0
   -4.5940   -1.0320    3.0721 N   0  0  0  0  0  0  0  0  0  0  0  0
   -5.5132   -2.0057    2.5306 C   0  0  0  0  0  0  0  0  0  0  0  0
   -4.6842   -0.7902    4.0545 H   0  0  0  0  0  0  0  0  0  0  0  0
   -6.4066   -1.4925    2.1451 H   0  0  0  0  0  0  0  0  0  0  0  0
   -5.0248   -2.5556    1.7127 H   0  0  0  0  0  0  0  0  0  0  0  0
   -5.8082   -2.7108    3.3217 H   0  0  0  0  0  0  0  0  0  0  0  0
  1  3  1  0  0  0  0
  1  7  1  0  0  0  0
  1  2  2  0  0  0  0
 37 38  1  0  0  0  0
 38 46  1  0  0  0  0
 38 39  2  0  0  0  0
  8  9  1  0  0  0  0
  9 17  1  0  0  0  0
  9 10  2  0  0  0  0
 18 19  1  0  0  0  0
 19 36  1  0  0  0  0
 19 20  2  0  0  0  0
 37 40  1  0  0  0  0
  8 11  1  0  0  0  0
 22 23  1  0  0  0  0
 22 24  1  0  0  0  0
 46 47  1  0  0  0  0
 18 21  1  0  0  0  0
 21 22  1  0  0  0  0
 36 37  1  0  0  0  0
  7  8  1  0  0  0  0
 17 18  1  0  0  0  0
  3  4  1  0  0  0  0
  3  5  1  0  0  0  0
  3  6  1  0  0  0  0
 40 43  1  0  0  0  0
 40 44  1  0  0  0  0
 40 45  1  0  0  0  0
 11 14  1  0  0  0  0
 11 15  1  0  0  0  0
 11 16  1  0  0  0  0
 23 30  1  0  0  0  0
 23 31  1  0  0  0  0
 23 32  1  0  0  0  0
 24 33  1  0  0  0  0
 24 34  1  0  0  0  0
 24 35  1  0  0  0  0
 47 49  1  0  0  0  0
 47 50  1  0  0  0  0
 47 51  1  0  0  0  0
 21 27  1  0  0  0  0
 21 28  1  0  0  0  0
 37 42  1  0  0  0  0
  8 13  1  0  0  0  0
 18 26  1  0  0  0  0
 22 29  1  0  0  0  0
 46 48  1  0  0  0  0
  7 12  1  0  0  0  0
 36 41  1  0  0  0  0
 17 25  1  0  0  0  0
M  END
$$$$

  -OEChem-05262214473D

 51 50  0     1  0  0  0  0  0999 V2000
    3.4018   -1.2440   -3.0186 C   0  0  0  0  0  0  0  0  0  0  0  0
    3.2697   -2.0909   -2.1427 O   0  0  0  0  0  0  0  0  0  0  0  0
    4.6845   -1.1645   -3.7779 C   0  0  0  0  0  0  0  0  0  0  0  0
    5.4123   -0.4862   -3.3041 H   0  0  0  0  0  0  0  0  0  0  0  0
    5.1949   -2.1387   -3.8443 H   0  0  0  0  0  0  0  0  0  0  0  0
    4.5953   -0.8128   -4.8182 H   0  0  0  0  0  0  0  0  0  0  0  0
    2.4540   -0.3103   -3.4040 N   0  0  0  0  0  0  0  0  0  0  0  0
    1.1494   -0.2128   -2.8039 C   0  0  2  0  0  0  0  0  0  0  0  0
    1.3350    0.0367   -1.3130 C   0  0  0  0  0  0  0  0  0  0  0  0
    2.3625   -0.2586   -0.7063 O   0  0  0  0  0  0  0  0  0  0  0  0
    0.3331   -1.4728   -3.0467 C   0  0  0  0  0  0  0  0  0  0  0  0
    2.6924    0.3404   -4.1502 H   0  0  0  0  0  0  0  0  0  0  0  0
    0.6550    0.6514   -3.2607 H   0  0  0  0  0  0  0  0  0  0  0  0
    0.8129   -2.3494   -2.5963 H   0  0  0  0  0  0  0  0  0  0  0  0
   -0.6690   -1.3857   -2.6142 H   0  0  0  0  0  0  0  0  0  0  0  0
    0.2259   -1.6670   -4.1194 H   0  0  0  0  0  0  0  0  0  0  0  0
    0.2019    0.5893   -0.7269 N   0  0  0  0  0  0  0  0  0  0  0  0
    0.1242    0.9059    0.6756 C   0  0  2  0  0  0  0  0  0  0  0  0
   -1.2252    0.4000    1.1760 C   0  0  0  0  0  0  0  0  0  0  0  0
   -2.0226   -0.2006    0.4587 O   0  0  0  0  0  0  0  0  0  0  0  0
    0.2572    2.4112    0.9392 C   0  0  0  0  0  0  0  0  0  0  0  0
    1.6353    3.0097    0.5907 C   0  0  0  0  0  0  0  0  0  0  0  0
    1.5936    4.5315    0.7552 C   0  0  0  0  0  0  0  0  0  0  0  0
    2.0816    2.6572   -0.8289 C   0  0  0  0  0  0  0  0  0  0  0  0
   -0.5975    0.8179   -1.3140 H   0  0  0  0  0  0  0  0  0  0  0  0
    0.9185    0.3420    1.1749 H   0  0  0  0  0  0  0  0  0  0  0  0
    0.0481    2.6051    2.0007 H   0  0  0  0  0  0  0  0  0  0  0  0
   -0.5194    2.9488    0.3790 H   0  0  0  0  0  0  0  0  0  0  0  0
    2.3838    2.6222    1.2926 H   0  0  0  0  0  0  0  0  0  0  0  0
    0.8593    4.9766    0.0754 H   0  0  0  0  0  0  0  0  0  0  0  0
    2.5689    4.9745    0.5270 H   0  0  0  0  0  0  0  0  0  0  0  0
    1.3234    4.8142    1.7784 H   0  0  0  0  0  0  0  0  0  0  0  0
    1.3656    3.0232   -1.5726 H   0  0  0  0  0  0  0  0  0  0  0  0
    3.0568    3.1038   -1.0512 H   0  0  0  0  0  0  0  0  0  0  0  0
    2.1857    1.5758   -0.9574 H   0  0  0  0  0  0  0  0  0  0  0  0
   -1.4078    0.6549    2.5281 N   0  0  0  0  0  0  0  0  0  0  0  0
   -2.5900    0.2557    3.2573 C   0  0  2  0  0  0  0  0  0  0  0  0
   -3.0020   -1.1255    2.7653 C   0  0  0  0  0  0  0  0  0  0  0  0
   -2.6744   -1.5719    1.6678 O   0  0  0  0  0  0  0  0  0  0  0  0
   -3.7190    1.2576    3.0723 C   0  0  0  0  0  0  0  0  0  0  0  0
   -0.6787    1.1363    3.0460 H   0  0  0  0  0  0  0  0  0  0  0  0
   -2.3056    0.1979    4.3136 H   0  0  0  0  0  0  0  0  0  0  0  0
   -4.0176    1.3292    2.0201 H   0  0  0  0  0  0  0  0  0  0  0  0
   -4.6043    0.9686    3.6482 H   0  0  0  0  0  0  0  0  0  0  0  0
   -3.4108    2.2567    3.3990 H   0  0  0  0  0  0  0  0  0  0  0  0
   -3.8142   -1.7838    3.6780 N   0  0  0  0  0  0  0  0  0  0  0  0
   -4.3465   -3.1047    3.4372 C   0  0  0  0  0  0  0  0  0  0  0  0
   -4.0192   -1.3459    4.5713 H   0  0  0  0  0  0  0  0  0  0  0  0
   -5.3404   -3.0211    2.9733 H   0  0  0  0  0  0  0  0  0  0  0  0
   -3.6726   -3.6542    2.7634 H   0  0  0  0  0  0  0  0  0  0  0  0
   -4.4316   -3.6452    4.3915 H   0  0  0  0  0  0  0  0  0  0  0  0
  1  3  1  0  0  0  0
  1  7  1  0  0  0  0
  1  2  2  0  0  0  0
 37 38  1  0  0  0  0
 38 46  1  0  0  0  0
 38 39  2  0  0  0  0
  8  9  1  0  0  0  0
  9 17  1  0  0  0  0
  9 10  2  0  0  0  0
 18 19  1  0  0  0  0
 19 36  1  0  0  0  0
 19 20  2  0  0  0  0
 37 40  1  0  0  0  0
  8 11  1  0  0  0  0
 22 23  1  0  0  0  0
 22 24  1  0  0  0  0
 46 47  1  0  0  0  0
 18 21  1  0  0  0  0
 21 22  1  0  0  0  0
 36 37  1  0  0  0  0
  7  8  1  0  0  0  0
 17 18  1  0  0  0  0
  3  4  1  0  0  0  0
  3  5  1  0  0  0  0
  3  6  1  0  0  0  0
 40 43  1  0  0  0  0
 40 44  1  0  0  0  0
 40 45  1  0  0  0  0
 11 14  1  0  0  0  0
 11 15  1  0  0  0  0
 11 16  1  0  0  0  0
 23 30  1  0  0  0  0
 23 31  1  0  0  0  0
 23 32  1  0  0  0  0
 24 33  1  0  0  0  0
 24 34  1  0  0  0  0
 24 35  1  0  0  0  0
 47 49  1  0  0  0  0
 47 50  1  0  0  0  0
 47 51  1  0  0  0  0
 21 27  1  0  0  0  0
 21 28  1  0  0  0  0
 37 42  1  0  0  0  0
  8 13  1  0  0  0  0
 18 26  1  0  0  0  0
 22 29  1  0  0  0  0
 46 48  1  0  0  0  0
  7 12  1  0  0  0  0
 36 41  1  0  0  0  0
 17 25  1  0  0  0  0
M  END
$$$$

  -OEChem-05262214473D

 51 50  0     1  0  0  0  0  0999 V2000
    3.4018   -1.2440   -3.0186 C   0  0  0  0  0  0  0  0  0  0  0  0
    3.2697   -2.0909   -2.1427 O   0  0  0  0  0  0  0  0  0  0  0  0
    4.6845   -1.1645   -3.7779 C   0  0  0  0  0  0  0  0  0  0  0  0
    5.4123   -0.4862   -3.3041 H   0  0  0  0  0  0  0  0  0  0  0  0
    5.1949   -2.1387   -3.8443 H   0  0  0  0  0  0  0  0  0  0  0  0
    4.5953   -0.8128   -4.8182 H   0  0  0  0  0  0  0  0  0  0  0  0
    2.4540   -0.3103   -3.4040 N   0  0  0  0  0  0  0  0  0  0  0  0
    1.1494   -0.2128   -2.8039 C   0  0  2  0  0  0  0  0  0  0  0  0
    1.3350    0.0367   -1.3130 C   0  0  0  0  0  0  0  0  0  0  0  0
    2.3625   -0.2586   -0.7063 O   0  0  0  0  0  0  0  0  0  0  0  0
    0.3331   -1.4728   -3.0467 C   0  0  0  0  0  0  0  0  0  0  0  0
    2.6924    0.3404   -4.1502 H   0  0  0  0  0  0  0  0  0  0  0  0
    0.6550    0.6514   -3.2607 H   0  0  0  0  0  0  0  0  0  0  0  0
    0.8129   -2.3494   -2.5963 H   0  0  0  0  0  0  0  0  0  0  0  0
   -0.6690   -1.3857   -2.6142 H   0  0  0  0  0  0  0  0  0  0  0  0
    0.2259   -1.6670   -4.1194 H   0  0  0  0  0  0  0  0  0  0  0  0
    0.2019    0.5893   -0.7269 N   0  0  0  0  0  0  0  0  0  0  0  0
    0.1242    0.9059    0.6756 C   0  0  2  0  0  0  0  0  0  0  0  0
   -1.2252    0.4000    1.1760 C   0  0  0  0  0  0  0  0  0  0  0  0
   -1.9031   -0.4196    0.5597 O   0  0  0  0  0  0  0  0  0  0  0  0
    0.2572    2.4112    0.9392 C   0  0  0  0  0  0  0  0  0  0  0  0
    1.6353    3.0097    0.5907 C   0  0  0  0  0  0  0  0  0  0  0  0
    1.5936    4.5315    0.7552 C   0  0  0  0  0  0  0  0  0  0  0  0
    2.0816    2.6572   -0.8289 C   0  0  0  0  0  0  0  0  0  0  0  0
   -0.5975    0.8179   -1.3140 H   0  0  0  0  0  0  0  0  0  0  0  0
    0.9185    0.3420    1.1749 H   0  0  0  0  0  0  0  0  0  0  0  0
    0.0481    2.6051    2.0007 H   0  0  0  0  0  0  0  0  0  0  0  0
   -0.5194    2.9488    0.3790 H   0  0  0  0  0  0  0  0  0  0  0  0
    2.3838    2.6222    1.2926 H   0  0  0  0  0  0  0  0  0  0  0  0
    0.8593    4.9766    0.0754 H   0  0  0  0  0  0  0  0  0  0  0  0
    2.5689    4.9745    0.5270 H   0  0  0  0  0  0  0  0  0  0  0  0
    1.3234    4.8142    1.7784 H   0  0  0  0  0  0  0  0  0  0  0  0
    1.3656    3.0232   -1.5726 H   0  0  0  0  0  0  0  0  0  0  0  0
    3.0568    3.1038   -1.0512 H   0  0  0  0  0  0  0  0  0  0  0  0
    2.1857    1.5758   -0.9574 H   0  0  0  0  0  0  0  0  0  0  0  0
   -1.5550    0.9344    2.4138 N   0  0  0  0  0  0  0  0  0  0  0  0
   -2.7683    0.5993    3.1240 C   0  0  2  0  0  0  0  0  0  0  0  0
   -3.0266   -0.8899    2.9370 C   0  0  0  0  0  0  0  0  0  0  0  0
   -2.5630   -1.5389    2.0016 O   0  0  0  0  0  0  0  0  0  0  0  0
   -3.9462    1.4221    2.6258 C   0  0  0  0  0  0  0  0  0  0  0  0
   -0.9168    1.5870    2.8593 H   0  0  0  0  0  0  0  0  0  0  0  0
   -2.5827    0.8082    4.1832 H   0  0  0  0  0  0  0  0  0  0  0  0
   -4.1473    1.2262    1.5662 H   0  0  0  0  0  0  0  0  0  0  0  0
   -4.8585    1.1875    3.1841 H   0  0  0  0  0  0  0  0  0  0  0  0
   -3.7464    2.4937    2.7335 H   0  0  0  0  0  0  0  0  0  0  0  0
   -3.8709   -1.3998    3.9134 N   0  0  0  0  0  0  0  0  0  0  0  0
   -4.2772   -2.7853    3.9468 C   0  0  0  0  0  0  0  0  0  0  0  0
   -4.1926   -0.7933    4.6621 H   0  0  0  0  0  0  0  0  0  0  0  0
   -5.2256   -2.9031    3.4021 H   0  0  0  0  0  0  0  0  0  0  0  0
   -3.5027   -3.4059    3.4725 H   0  0  0  0  0  0  0  0  0  0  0  0
   -4.4126   -3.1026    4.9913 H   0  0  0  0  0  0  0  0  0  0  0  0
  1  3  1  0  0  0  0
  1  7  1  0  0  0  0
  1  2  2  0  0  0  0
 37 38  1  0  0  0  0
 38 46  1  0  0  0  0
 38 39  2  0  0  0  0
  8  9  1  0  0  0  0
  9 17  1  0  0  0  0
  9 10  2  0  0  0  0
 18 19  1  0  0  0  0
 19 36  1  0  0  0  0
 19 20  2  0  0  0  0
 37 40  1  0  0  0  0
  8 11  1  0  0  0  0
 22 23  1  0  0  0  0
 22 24  1  0  0  0  0
 46 47  1  0  0  0  0
 18 21  1  0  0  0  0
 21 22  1  0  0  0  0
 36 37  1  0  0  0  0
  7  8  1  0  0  0  0
 17 18  1  0  0  0  0
  3  4  1  0  0  0  0
  3  5  1  0  0  0  0
  3  6  1  0  0  0  0
 40 43  1  0  0  0  0
 40 44  1  0  0  0  0
 40 45  1  0  0  0  0
 11 14  1  0  0  0  0
 11 15  1  0  0  0  0
 11 16  1  0  0  0  0
 23 30  1  0  0  0  0
 23 31  1  0  0  0  0
 23 32  1  0  0  0  0
 24 33  1  0  0  0  0
 24 34  1  0  0  0  0
 24 35  1  0  0  0  0
 47 49  1  0  0  0  0
 47 50  1  0  0  0  0
 47 51  1  0  0  0  0
 21 27  1  0  0  0  0
 21 28  1  0  0  0  0
 37 42  1  0  0  0  0
  8 13  1  0  0  0  0
 18 26  1  0  0  0  0
 22 29  1  0  0  0  0
 46 48  1  0  0  0  0
  7 12  1  0  0  0  0
 36 41  1  0  0  0  0
 17 25  1  0  0  0  0
M  END
$$$$

  -OEChem-05262214473D

 51 50  0     1  0  0  0  0  0999 V2000
    3.4018   -1.2440   -3.0186 C   0  0  0  0  0  0  0  0  0  0  0  0
    3.2697   -2.0909   -2.1427 O   0  0  0  0  0  0  0  0  0  0  0  0
    4.6845   -1.1645   -3.7779 C   0  0  0  0  0  0  0  0  0  0  0  0
    5.4123   -0.4862   -3.3041 H   0  0  0  0  0  0  0  0  0  0  0  0
    5.1949   -2.1387   -3.8443 H   0  0  0  0  0  0  0  0  0  0  0  0
    4.5953   -0.8128   -4.8182 H   0  0  0  0  0  0  0  0  0  0  0  0
    2.4540   -0.3103   -3.4040 N   0  0  0  0  0  0  0  0  0  0  0  0
    1.1494   -0.2128   -2.8039 C   0  0  2  0  0  0  0  0  0  0  0  0
    1.3350    0.0367   -1.3130 C   0  0  0  0  0  0  0  0  0  0  0  0
    2.3625   -0.2586   -0.7063 O   0  0  0  0  0  0  0  0  0  0  0  0
    0.3331   -1.4728   -3.0467 C   0  0  0  0  0  0  0  0  0  0  0  0
    2.6924    0.3404   -4.1502 H   0  0  0  0  0  0  0  0  0  0  0  0
    0.6550    0.6514   -3.2607 H   0  0  0  0  0  0  0  0  0  0  0  0
    0.8129   -2.3494   -2.5963 H   0  0  0  0  0  0  0  0  0  0  0  0
   -0.6690   -1.3857   -2.6142 H   0  0  0  0  0  0  0  0  0  0  0  0
    0.2259   -1.6670   -4.1194 H   0  0  0  0  0  0  0  0  0  0  0  0
    0.2019    0.5893   -0.7269 N   0  0  0  0  0  0  0  0  0  0  0  0
    0.1242    0.9059    0.6756 C   0  0  2  0  0  0  0  0  0  0  0  0
   -1.2252    0.4000    1.1760 C   0  0  0  0  0  0  0  0  0  0  0  0
   -1.7777   -0.5979    0.7177 O   0  0  0  0  0  0  0  0  0  0  0  0
    0.2572    2.4112    0.9392 C   0  0  0  0  0  0  0  0  0  0  0  0
    1.6353    3.0097    0.5907 C   0  0  0  0  0  0  0  0  0  0  0  0
    1.5936    4.5315    0.7552 C   0  0  0  0  0  0  0  0  0  0  0  0
    2.0816    2.6572   -0.8289 C   0  0  0  0  0  0  0  0  0  0  0  0
   -0.5975    0.8179   -1.3140 H   0  0  0  0  0  0  0  0  0  0  0  0
    0.9185    0.3420    1.1749 H   0  0  0  0  0  0  0  0  0  0  0  0
    0.0481    2.6051    2.0007 H   0  0  0  0  0  0  0  0  0  0  0  0
   -0.5194    2.9488    0.3790 H   0  0  0  0  0  0  0  0  0  0  0  0
    2.3838    2.6222    1.2926 H   0  0  0  0  0  0  0  0  0  0  0  0
    0.8593    4.9766    0.0754 H   0  0  0  0  0  0  0  0  0  0  0  0
    2.5689    4.9745    0.5270 H   0  0  0  0  0  0  0  0  0  0  0  0
    1.3234    4.8142    1.7784 H   0  0  0  0  0  0  0  0  0  0  0  0
    1.3656    3.0232   -1.5726 H   0  0  0  0  0  0  0  0  0  0  0  0
    3.0568    3.1038   -1.0512 H   0  0  0  0  0  0  0  0  0  0  0  0
    2.1857    1.5758   -0.9574 H   0  0  0  0  0  0  0  0  0  0  0  0
   -1.7110    1.1657    2.2269 N   0  0  0  0  0  0  0  0  0  0  0  0
   -2.9582    0.8856    2.9012 C   0  0  2  0  0  0  0  0  0  0  0  0
   -3.0852   -0.6251    3.0468 C   0  0  0  0  0  0  0  0  0  0  0  0
   -2.4869   -1.4211    2.3260 O   0  0  0  0  0  0  0  0  0  0  0  0
   -4.1413    1.4594    2.1373 C   0  0  0  0  0  0  0  0  0  0  0  0
   -1.1691    1.9594    2.5554 H   0  0  0  0  0  0  0  0  0  0  0  0
   -2.8911    1.3443    3.8937 H   0  0  0  0  0  0  0  0  0  0  0  0
   -4.2248    1.0117    1.1403 H   0  0  0  0  0  0  0  0  0  0  0  0
   -5.0827    1.2711    2.6640 H   0  0  0  0  0  0  0  0  0  0  0  0
   -4.0337    2.5417    2.0076 H   0  0  0  0  0  0  0  0  0  0  0  0
   -3.9785   -0.9797    4.0480 N   0  0  0  0  0  0  0  0  0  0  0  0
   -4.2812   -2.3543    4.3719 C   0  0  0  0  0  0  0  0  0  0  0  0
   -4.4149   -0.2536    4.6084 H   0  0  0  0  0  0  0  0  0  0  0  0
   -5.1616   -2.6811    3.7991 H   0  0  0  0  0  0  0  0  0  0  0  0
   -3.4205   -2.9894    4.1152 H   0  0  0  0  0  0  0  0  0  0  0  0
   -4.4917   -2.4395    5.4481 H   0  0  0  0  0  0  0  0  0  0  0  0
  1  3  1  0  0  0  0
  1  7  1  0  0  0  0
  1  2  2  0  0  0  0
 37 38  1  0  0  0  0
 38 46  1  0  0  0  0
 38 39  2  0  0  0  0
  8  9  1  0  0  0  0
  9 17  1  0  0  0  0
  9 10  2  0  0  0  0
 18 19  1  0  0  0  0
 19 36  1  0  0  0  0
 19 20  2  0  0  0  0
 37 40  1  0  0  0  0
  8 11  1  0  0  0  0
 22 23  1  0  0  0  0
 22 24  1  0  0  0  0
 46 47  1  0  0  0  0
 18 21  1  0  0  0  0
 21 22  1  0  0  0  0
 36 37  1  0  0  0  0
  7  8  1  0  0  0  0
 17 18  1  0  0  0  0
  3  4  1  0  0  0  0
  3  5  1  0  0  0  0
  3  6  1  0  0  0  0
 40 43  1  0  0  0  0
 40 44  1  0  0  0  0
 40 45  1  0  0  0  0
 11 14  1  0  0  0  0
 11 15  1  0  0  0  0
 11 16  1  0  0  0  0
 23 30  1  0  0  0  0
 23 31  1  0  0  0  0
 23 32  1  0  0  0  0
 24 33  1  0  0  0  0
 24 34  1  0  0  0  0
 24 35  1  0  0  0  0
 47 49  1  0  0  0  0
 47 50  1  0  0  0  0
 47 51  1  0  0  0  0
 21 27  1  0  0  0  0
 21 28  1  0  0  0  0
 37 42  1  0  0  0  0
  8 13  1  0  0  0  0
 18 26  1  0  0  0  0
 22 29  1  0  0  0  0
 46 48  1  0  0  0  0
  7 12  1  0  0  0  0
 36 41  1  0  0  0  0
 17 25  1  0  0  0  0
M  END
$$$$

  -OEChem-05262214473D

 51 50  0     1  0  0  0  0  0999 V2000
    3.4018   -1.2440   -3.0186 C   0  0  0  0  0  0  0  0  0  0  0  0
    3.2697   -2.0909   -2.1427 O   0  0  0  0  0  0  0  0  0  0  0  0
    4.6845   -1.1645   -3.7779 C   0  0  0  0  0  0  0  0  0  0  0  0
    5.4123   -0.4862   -3.3041 H   0  0  0  0  0  0  0  0  0  0  0  0
    5.1949   -2.1387   -3.8443 H   0  0  0  0  0  0  0  0  0  0  0  0
    4.5953   -0.8128   -4.8182 H   0  0  0  0  0  0  0  0  0  0  0  0
    2.4540   -0.3103   -3.4040 N   0  0  0  0  0  0  0  0  0  0  0  0
    1.1494   -0.2128   -2.8039 C   0  0  2  0  0  0  0  0  0  0  0  0
    1.3350    0.0367   -1.3130 C   0  0  0  0  0  0  0  0  0  0  0  0
    2.3625   -0.2586   -0.7063 O   0  0  0  0  0  0  0  0  0  0  0  0
    0.3331   -1.4728   -3.0467 C   0  0  0  0  0  0  0  0  0  0  0  0
    2.6924    0.3404   -4.1502 H   0  0  0  0  0  0  0  0  0  0  0  0
    0.6550    0.6514   -3.2607 H   0  0  0  0  0  0  0  0  0  0  0  0
    0.8129   -2.3494   -2.5963 H   0  0  0  0  0  0  0  0  0  0  0  0
   -0.6690   -1.3857   -2.6142 H   0  0  0  0  0  0  0  0  0  0  0  0
    0.2259   -1.6670   -4.1194 H   0  0  0  0  0  0  0  0  0  0  0  0
    0.2019    0.5893   -0.7269 N   0  0  0  0  0  0  0  0  0  0  0  0
    0.1242    0.9059    0.6756 C   0  0  2  0  0  0  0  0  0  0  0  0
   -1.2252    0.4000    1.1760 C   0  0  0  0  0  0  0  0  0  0  0  0
   -1.6550   -0.7233    0.9218 O   0  0  0  0  0  0  0  0  0  0  0  0
    0.2572    2.4112    0.9392 C   0  0  0  0  0  0  0  0  0  0  0  0
    1.6353    3.0097    0.5907 C   0  0  0  0  0  0  0  0  0  0  0  0
    1.5936    4.5315    0.7552 C   0  0  0  0  0  0  0  0  0  0  0  0
    2.0816    2.6572   -0.8289 C   0  0  0  0  0  0  0  0  0  0  0  0
   -0.5975    0.8179   -1.3140 H   0  0  0  0  0  0  0  0  0  0  0  0
    0.9185    0.3420    1.1749 H   0  0  0  0  0  0  0  0  0  0  0  0
    0.0481    2.6051    2.0007 H   0  0  0  0  0  0  0  0  0  0  0  0
   -0.5194    2.9488    0.3790 H   0  0  0  0  0  0  0  0  0  0  0  0
    2.3838    2.6222    1.2926 H   0  0  0  0  0  0  0  0  0  0  0  0
    0.8593    4.9766    0.0754 H   0  0  0  0  0  0  0  0  0  0  0  0
    2.5689    4.9745    0.5270 H   0  0  0  0  0  0  0  0  0  0  0  0
    1.3234    4.8142    1.7784 H   0  0  0  0  0  0  0  0  0  0  0  0
    1.3656    3.0232   -1.5726 H   0  0  0  0  0  0  0  0  0  0  0  0
    3.0568    3.1038   -1.0512 H   0  0  0  0  0  0  0  0  0  0  0  0
    2.1857    1.5758   -0.9574 H   0  0  0  0  0  0  0  0  0  0  0  0
   -1.8654    1.3331    1.9799 N   0  0  0  0  0  0  0  0  0  0  0  0
   -3.1468    1.0950    2.6042 C   0  0  2  0  0  0  0  0  0  0  0  0
   -3.1737   -0.3492    3.0872 C   0  0  0  0  0  0  0  0  0  0  0  0
   -2.4512   -1.2266    2.6189 O   0  0  0  0  0  0  0  0  0  0  0  0
   -4.2911    1.3671    1.6402 C   0  0  0  0  0  0  0  0  0  0  0  0
   -1.4184    2.2281    2.1549 H   0  0  0  0  0  0  0  0  0  0  0  0
   -3.2096    1.7697    3.4649 H   0  0  0  0  0  0  0  0  0  0  0  0
   -4.2450    0.7004    0.7713 H   0  0  0  0  0  0  0  0  0  0  0  0
   -5.2618    1.2138    2.1232 H   0  0  0  0  0  0  0  0  0  0  0  0
   -4.2529    2.3976    1.2708 H   0  0  0  0  0  0  0  0  0  0  0  0
   -4.1296   -0.5522    4.0726 N   0  0  0  0  0  0  0  0  0  0  0  0
   -4.3581   -1.8409    4.6834 C   0  0  0  0  0  0  0  0  0  0  0  0
   -4.6708    0.2367    4.4139 H   0  0  0  0  0  0  0  0  0  0  0  0
   -5.1527   -2.3704    4.1373 H   0  0  0  0  0  0  0  0  0  0  0  0
   -3.4316   -2.4329    4.6477 H   0  0  0  0  0  0  0  0  0  0  0  0
   -4.6637   -1.7011    5.7308 H   0  0  0  0  0  0  0  0  0  0  0  0
  1  3  1  0  0  0  0
  1  7  1  0  0  0  0
  1  2  2  0  0  0  0
 37 38  1  0  0  0  0
 38 46  1  0  0  0  0
 38 39  2  0  0  0  0
  8  9  1  0  0  0  0
  9 17  1  0  0  0  0
  9 10  2  0  0  0  0
 18 19  1  0  0  0  0
 19 36  1  0  0  0  0
 19 20  2  0  0  0  0
 37 40  1  0  0  0  0
  8 11  1  0  0  0  0
 22 23  1  0  0  0  0
 22 24  1  0  0  0  0
 46 47  1  0  0  0  0
 18 21  1  0  0  0  0
 21 22  1  0  0  0  0
 36 37  1  0  0  0  0
  7  8  1  0  0  0  0
 17 18  1  0  0  0  0
  3  4  1  0  0  0  0
  3  5  1  0  0  0  0
  3  6  1  0  0  0  0
 40 43  1  0  0  0  0
 40 44  1  0  0  0  0
 40 45  1  0  0  0  0
 11 14  1  0  0  0  0
 11 15  1  0  0  0  0
 11 16  1  0  0  0  0
 23 30  1  0  0  0  0
 23 31  1  0  0  0  0
 23 32  1  0  0  0  0
 24 33  1  0  0  0  0
 24 34  1  0  0  0  0
 24 35  1  0  0  0  0
 47 49  1  0  0  0  0
 47 50  1  0  0  0  0
 47 51  1  0  0  0  0
 21 27  1  0  0  0  0
 21 28  1  0  0  0  0
 37 42  1  0  0  0  0
  8 13  1  0  0  0  0
 18 26  1  0  0  0  0
 22 29  1  0  0  0  0
 46 48  1  0  0  0  0
  7 12  1  0  0  0  0
 36 41  1  0  0  0  0
 17 25  1  0  0  0  0
M  END
$$$$

  -OEChem-05262214473D

 51 50  0     1  0  0  0  0  0999 V2000
    3.4018   -1.2440   -3.0186 C   0  0  0  0  0  0  0  0  0  0  0  0
    3.2697   -2.0909   -2.1427 O   0  0  0  0  0  0  0  0  0  0  0  0
    4.6845   -1.1645   -3.7779 C   0  0  0  0  0  0  0  0  0  0  0  0
    5.4123   -0.4862   -3.3041 H   0  0  0  0  0  0  0  0  0  0  0  0
    5.1949   -2.1387   -3.8443 H   0  0  0  0  0  0  0  0  0  0  0  0
    4.5953   -0.8128   -4.8182 H   0  0  0  0  0  0  0  0  0  0  0  0
    2.4540   -0.3103   -3.4040 N   0  0  0  0  0  0  0  0  0  0  0  0
    1.1494   -0.2128   -2.8039 C   0  0  2  0  0  0  0  0  0  0  0  0
    1.3350    0.0367   -1.3130 C   0  0  0  0  0  0  0  0  0  0  0  0
    2.3625   -0.2586   -0.7063 O   0  0  0  0  0  0  0  0  0  0  0  0
    0.3331   -1.4728   -3.0467 C   0  0  0  0  0  0  0  0  0  0  0  0
    2.6924    0.3404   -4.1502 H   0  0  0  0  0  0  0  0  0  0  0  0
    0.6550    0.6514   -3.2607 H   0  0  0  0  0  0  0  0  0  0  0  0
    0.8129   -2.3494   -2.5963 H   0  0  0  0  0  0  0  0  0  0  0  0
   -0.6690   -1.3857   -2.6142 H   0  0  0  0  0  0  0  0  0  0  0  0
    0.2259   -1.6670   -4.1194 H   0  0  0  0  0  0  0  0  0  0  0  0
    0.2019    0.5893   -0.7269 N   0  0  0  0  0  0  0  0  0  0  0  0
    0.1242    0.9059    0.6756 C   0  0  2  0  0  0  0  0  0  0  0  0
   -1.2252    0.4000    1.1760 C   0  0  0  0  0  0  0  0  0  0  0  0
   -1.5433   -0.7873    1.1583 O   0  0  0  0  0  0  0  0  0  0  0  0
    0.2572    2.4112    0.9392 C   0  0  0  0  0  0  0  0  0  0  0  0
    1.6353    3.0097    0.5907 C   0  0  0  0  0  0  0  0  0  0  0  0
    1.5936    4.5315    0.7552 C   0  0  0  0  0  0  0  0  0  0  0  0
    2.0816    2.6572   -0.8289 C   0  0  0  0  0  0  0  0  0  0  0  0
   -0.5975    0.8179   -1.3140 H   0  0  0  0  0  0  0  0  0  0  0  0
    0.9185    0.3420    1.1749 H   0  0  0  0  0  0  0  0  0  0  0  0
    0.0481    2.6051    2.0007 H   0  0  0  0  0  0  0  0  0  0  0  0
   -0.5194    2.9488    0.3790 H   0  0  0  0  0  0  0  0  0  0  0  0
    2.3838    2.6222    1.2926 H   0  0  0  0  0  0  0  0  0  0  0  0
    0.8593    4.9766    0.0754 H   0  0  0  0  0  0  0  0  0  0  0  0
    2.5689    4.9745    0.5270 H   0  0  0  0  0  0  0  0  0  0  0  0
    1.3234    4.8142    1.7784 H   0  0  0  0  0  0  0  0  0  0  0  0
    1.3656    3.0232   -1.5726 H   0  0  0  0  0  0  0  0  0  0  0  0
    3.0568    3.1038   -1.0512 H   0  0  0  0  0  0  0  0  0  0  0  0
    2.1857    1.5758   -0.9574 H   0  0  0  0  0  0  0  0  0  0  0  0
   -2.0074    1.4251    1.6898 N   0  0  0  0  0  0  0  0  0  0  0  0
   -3.3214    1.2132    2.2532 C   0  0  2  0  0  0  0  0  0  0  0  0
   -3.2860   -0.0809    3.0554 C   0  0  0  0  0  0  0  0  0  0  0  0
   -2.4583   -0.9686    2.8604 O   0  0  0  0  0  0  0  0  0  0  0  0
   -4.3852    1.1513    1.1683 C   0  0  0  0  0  0  0  0  0  0  0  0
   -1.6476    2.3749    1.6852 H   0  0  0  0  0  0  0  0  0  0  0  0
   -3.5165    2.0554    2.9260 H   0  0  0  0  0  0  0  0  0  0  0  0
   -4.2064    0.3136    0.4844 H   0  0  0  0  0  0  0  0  0  0  0  0
   -5.3835    1.0194    1.5985 H   0  0  0  0  0  0  0  0  0  0  0  0
   -4.3891    2.0710    0.5733 H   0  0  0  0  0  0  0  0  0  0  0  0
   -4.3139   -0.1466    3.9855 N   0  0  0  0  0  0  0  0  0  0  0  0
   -4.5026   -1.2803    4.8602 C   0  0  0  0  0  0  0  0  0  0  0  0
   -4.9429    0.6439    4.0918 H   0  0  0  0  0  0  0  0  0  0  0  0
   -5.1994   -1.9921    4.3935 H   0  0  0  0  0  0  0  0  0  0  0  0
   -3.5353   -1.7744    5.0336 H   0  0  0  0  0  0  0  0  0  0  0  0
   -4.9167   -0.9378    5.8200 H   0  0  0  0  0  0  0  0  0  0  0  0
  1  3  1  0  0  0  0
  1  7  1  0  0  0  0
  1  2  2  0  0  0  0
 37 38  1  0  0  0  0
 38 46  1  0  0  0  0
 38 39  2  0  0  0  0
  8  9  1  0  0  0  0
  9 17  1  0  0  0  0
  9 10  2  0  0  0  0
 18 19  1  0  0  0  0
 19 36  1  0  0  0  0
 19 20  2  0  0  0  0
 37 40  1  0  0  0  0
  8 11  1  0  0  0  0
 22 23  1  0  0  0  0
 22 24  1  0  0  0  0
 46 47  1  0  0  0  0
 18 21  1  0  0  0  0
 21 22  1  0  0  0  0
 36 37  1  0  0  0  0
  7  8  1  0  0  0  0
 17 18  1  0  0  0  0
  3  4  1  0  0  0  0
  3  5  1  0  0  0  0
  3  6  1  0  0  0  0
 40 43  1  0  0  0  0
 40 44  1  0  0  0  0
 40 45  1  0  0  0  0
 11 14  1  0  0  0  0
 11 15  1  0  0  0  0
 11 16  1  0  0  0  0
 23 30  1  0  0  0  0
 23 31  1  0  0  0  0
 23 32  1  0  0  0  0
 24 33  1  0  0  0  0
 24 34  1  0  0  0  0
 24 35  1  0  0  0  0
 47 49  1  0  0  0  0
 47 50  1  0  0  0  0
 47 51  1  0  0  0  0
 21 27  1  0  0  0  0
 21 28  1  0  0  0  0
 37 42  1  0  0  0  0
  8 13  1  0  0  0  0
 18 26  1  0  0  0  0
 22 29  1  0  0  0  0
 46 48  1  0  0  0  0
  7 12  1  0  0  0  0
 36 41  1  0  0  0  0
 17 25  1  0  0  0  0
M  END
$$$$

  -OEChem-05262214473D

 51 50  0     1  0  0  0  0  0999 V2000
    3.4018   -1.2440   -3.0186 C   0  0  0  0  0  0  0  0  0  0  0  0
    3.2697   -2.0909   -2.1427 O   0  0  0  0  0  0  0  0  0  0  0  0
    4.6845   -1.1645   -3.7779 C   0  0  0  0  0  0  0  0  0  0  0  0
    5.4123   -0.4862   -3.3041 H   0  0  0  0  0  0  0  0  0  0  0  0
    5.1949   -2.1387   -3.8443 H   0  0  0  0  0  0  0  0  0  0  0  0
    4.5953   -0.8128   -4.8182 H   0  0  0  0  0  0  0  0  0  0  0  0
    2.4540   -0.3103   -3.4040 N   0  0  0  0  0  0  0  0  0  0  0  0
    1.1494   -0.2128   -2.8039 C   0  0  2  0  0  0  0  0  0  0  0  0
    1.3350    0.0367   -1.3130 C   0  0  0  0  0  0  0  0  0  0  0  0
    2.3625   -0.2586   -0.7063 O   0  0  0  0  0  0  0  0  0  0  0  0
    0.3331   -1.4728   -3.0467 C   0  0  0  0  0  0  0  0  0  0  0  0
    2.6924    0.3404   -4.1502 H   0  0  0  0  0  0  0  0  0  0  0  0
    0.6550    0.6514   -3.2607 H   0  0  0  0  0  0  0  0  0  0  0  0
    0.8129   -2.3494   -2.5963 H   0  0  0  0  0  0  0  0  0  0  0  0
   -0.6690   -1.3857   -2.6142 H   0  0  0  0  0  0  0  0  0  0  0  0
    0.2259   -1.6670   -4.1194 H   0  0  0  0  0  0  0  0  0  0  0  0
    0.2019    0.5893   -0.7269 N   0  0  0  0  0  0  0  0  0  0  0  0
    0.1242    0.9059    0.6756 C   0  0  2  0  0  0  0  0  0  0  0  0
   -1.2252    0.4000    1.1760 C   0  0  0  0  0  0  0  0  0  0  0  0
   -1.4503   -0.7854    1.4109 O   0  0  0  0  0  0  0  0  0  0  0  0
    0.2572    2.4112    0.9392 C   0  0  0  0  0  0  0  0  0  0  0  0
    1.6353    3.0097    0.5907 C   0  0  0  0  0  0  0  0  0  0  0  0
    1.5936    4.5315    0.7552 C   0  0  0  0  0  0  0  0  0  0  0  0
    2.0816    2.6572   -0.8289 C   0  0  0  0  0  0  0  0  0  0  0  0
   -0.5975    0.8179   -1.3140 H   0  0  0  0  0  0  0  0  0  0  0  0
    0.9185    0.3420    1.1749 H   0  0  0  0  0  0  0  0  0  0  0  0
    0.0481    2.6051    2.0007 H   0  0  0  0  0  0  0  0  0  0  0  0
   -0.5194    2.9488    0.3790 H   0  0  0  0  0  0  0  0  0  0  0  0
    2.3838    2.6222    1.2926 H   0  0  0  0  0  0  0  0  0  0  0  0
    0.8593    4.9766    0.0754 H   0  0  0  0  0  0  0  0  0  0  0  0
    2.5689    4.9745    0.5270 H   0  0  0  0  0  0  0  0  0  0  0  0
    1.3234    4.8142    1.7784 H   0  0  0  0  0  0  0  0  0  0  0  0
    1.3656    3.0232   -1.5726 H   0  0  0  0  0  0  0  0  0  0  0  0
    3.0568    3.1038   -1.0512 H   0  0  0  0  0  0  0  0  0  0  0  0
    2.1857    1.5758   -0.9574 H   0  0  0  0  0  0  0  0  0  0  0  0
   -2.1276    1.4355    1.3763 N   0  0  0  0  0  0  0  0  0  0  0  0
   -3.4698    1.2323    1.8721 C   0  0  2  0  0  0  0  0  0  0  0  0
   -3.4146    0.1614    2.9536 C   0  0  0  0  0  0  0  0  0  0  0  0
   -2.5079   -0.6647    3.0339 O   0  0  0  0  0  0  0  0  0  0  0  0
   -4.4173    0.8269    0.7538 C   0  0  0  0  0  0  0  0  0  0  0  0
   -1.8411    2.3896    1.1782 H   0  0  0  0  0  0  0  0  0  0  0  0
   -3.7910    2.1819    2.3137 H   0  0  0  0  0  0  0  0  0  0  0  0
   -4.1116   -0.1224    0.2992 H   0  0  0  0  0  0  0  0  0  0  0  0
   -5.4395    0.7012    1.1258 H   0  0  0  0  0  0  0  0  0  0  0  0
   -4.4332    1.5844   -0.0373 H   0  0  0  0  0  0  0  0  0  0  0  0
   -4.5190    0.2097    3.7927 N   0  0  0  0  0  0  0  0  0  0  0  0
   -4.7051   -0.7105    4.8902 C   0  0  0  0  0  0  0  0  0  0  0  0
   -5.2127    0.9405    3.6641 H   0  0  0  0  0  0  0  0  0  0  0  0
   -5.2987   -1.5720    4.5505 H   0  0  0  0  0  0  0  0  0  0  0  0
   -3.7245   -1.0588    5.2468 H   0  0  0  0  0  0  0  0  0  0  0  0
   -5.2336   -0.2015    5.7098 H   0  0  0  0  0  0  0  0  0  0  0  0
  1  3  1  0  0  0  0
  1  7  1  0  0  0  0
  1  2  2  0  0  0  0
 37 38  1  0  0  0  0
 38 46  1  0  0  0  0
 38 39  2  0  0  0  0
  8  9  1  0  0  0  0
  9 17  1  0  0  0  0
  9 10  2  0  0  0  0
 18 19  1  0  0  0  0
 19 36  1  0  0  0  0
 19 20  2  0  0  0  0
 37 40  1  0  0  0  0
  8 11  1  0  0  0  0
 22 23  1  0  0  0  0
 22 24  1  0  0  0  0
 46 47  1  0  0  0  0
 18 21  1  0  0  0  0
 21 22  1  0  0  0  0
 36 37  1  0  0  0  0
  7  8  1  0  0  0  0
 17 18  1  0  0  0  0
  3  4  1  0  0  0  0
  3  5  1  0  0  0  0
  3  6  1  0  0  0  0
 40 43  1  0  0  0  0
 40 44  1  0  0  0  0
 40 45  1  0  0  0  0
 11 14  1  0  0  0  0
 11 15  1  0  0  0  0
 11 16  1  0  0  0  0
 23 30  1  0  0  0  0
 23 31  1  0  0  0  0
 23 32  1  0  0  0  0
 24 33  1  0  0  0  0
 24 34  1  0  0  0  0
 24 35  1  0  0  0  0
 47 49  1  0  0  0  0
 47 50  1  0  0  0  0
 47 51  1  0  0  0  0
 21 27  1  0  0  0  0
 21 28  1  0  0  0  0
 37 42  1  0  0  0  0
  8 13  1  0  0  0  0
 18 26  1  0  0  0  0
 22 29  1  0  0  0  0
 46 48  1  0  0  0  0
  7 12  1  0  0  0  0
 36 41  1  0  0  0  0
 17 25  1  0  0  0  0
M  END
$$$$

  -OEChem-05262214473D

 51 50  0     1  0  0  0  0  0999 V2000
    3.4018   -1.2440   -3.0186 C   0  0  0  0  0  0  0  0  0  0  0  0
    3.2697   -2.0909   -2.1427 O   0  0  0  0  0  0  0  0  0  0  0  0
    4.6845   -1.1645   -3.7779 C   0  0  0  0  0  0  0  0  0  0  0  0
    5.4123   -0.4862   -3.3041 H   0  0  0  0  0  0  0  0  0  0  0  0
    5.1949   -2.1387   -3.8443 H   0  0  0  0  0  0  0  0  0  0  0  0
    4.5953   -0.8128   -4.8182 H   0  0  0  0  0  0  0  0  0  0  0  0
    2.4540   -0.3103   -3.4040 N   0  0  0  0  0  0  0  0  0  0  0  0
    1.1494   -0.2128   -2.8039 C   0  0  2  0  0  0  0  0  0  0  0  0
    1.3350    0.0367   -1.3130 C   0  0  0  0  0  0  0  0  0  0  0  0
    2.3625   -0.2586   -0.7063 O   0  0  0  0  0  0  0  0  0  0  0  0
    0.3331   -1.4728   -3.0467 C   0  0  0  0  0  0  0  0  0  0  0  0
    2.6924    0.3404   -4.1502 H   0  0  0  0  0  0  0  0  0  0  0  0
    0.6550    0.6514   -3.2607 H   0  0  0  0  0  0  0  0  0  0  0  0
    0.8129   -2.3494   -2.5963 H   0  0  0  0  0  0  0  0  0  0  0  0
   -0.6690   -1.3857   -2.6142 H   0  0  0  0  0  0  0  0  0  0  0  0
    0.2259   -1.6670   -4.1194 H   0  0  0  0  0  0  0  0  0  0  0  0
    0.2019    0.5893   -0.7269 N   0  0  0  0  0  0  0  0  0  0  0  0
    0.1242    0.9059    0.6756 C   0  0  2  0  0  0  0  0  0  0  0  0
   -1.2252    0.4000    1.1760 C   0  0  0  0  0  0  0  0  0  0  0  0
   -1.3823   -0.7179    1.6624 O   0  0  0  0  0  0  0  0  0  0  0  0
    0.2572    2.4112    0.9392 C   0  0  0  0  0  0  0  0  0  0  0  0
    1.6353    3.0097    0.5907 C   0  0  0  0  0  0  0  0  0  0  0  0
    1.5936    4.5315    0.7552 C   0  0  0  0  0  0  0  0  0  0  0  0
    2.0816    2.6572   -0.8289 C   0  0  0  0  0  0  0  0  0  0  0  0
   -0.5975    0.8179   -1.3140 H   0  0  0  0  0  0  0  0  0  0  0  0
    0.9185    0.3420    1.1749 H   0  0  0  0  0  0  0  0  0  0  0  0
    0.0481    2.6051    2.0007 H   0  0  0  0  0  0  0  0  0  0  0  0
   -0.5194    2.9488    0.3790 H   0  0  0  0  0  0  0  0  0  0  0  0
    2.3838    2.6222    1.2926 H   0  0  0  0  0  0  0  0  0  0  0  0
    0.8593    4.9766    0.0754 H   0  0  0  0  0  0  0  0  0  0  0  0
    2.5689    4.9745    0.5270 H   0  0  0  0  0  0  0  0  0  0  0  0
    1.3234    4.8142    1.7784 H   0  0  0  0  0  0  0  0  0  0  0  0
    1.3656    3.0232   -1.5726 H   0  0  0  0  0  0  0  0  0  0  0  0
    3.0568    3.1038   -1.0512 H   0  0  0  0  0  0  0  0  0  0  0  0
    2.1857    1.5758   -0.9574 H   0  0  0  0  0  0  0  0  0  0  0  0
   -2.2176    1.3636    1.0608 N   0  0  0  0  0  0  0  0  0  0  0  0
   -3.5821    1.1508    1.4869 C   0  0  2  0  0  0  0  0  0  0  0  0
   -3.5506    0.3613    2.7889 C   0  0  0  0  0  0  0  0  0  0  0  0
   -2.5964   -0.3357    3.1277 O   0  0  0  0  0  0  0  0  0  0  0  0
   -4.3852    0.4160    0.4249 C   0  0  0  0  0  0  0  0  0  0  0  0
   -1.9858    2.2713    0.6685 H   0  0  0  0  0  0  0  0  0  0  0  0
   -4.0144    2.1407    1.6697 H   0  0  0  0  0  0  0  0  0  0  0  0
   -3.9671   -0.5780    0.2282 H   0  0  0  0  0  0  0  0  0  0  0  0
   -5.4260    0.2808    0.7373 H   0  0  0  0  0  0  0  0  0  0  0  0
   -4.3820    0.9707   -0.5196 H   0  0  0  0  0  0  0  0  0  0  0  0
   -4.7308    0.4923    3.5073 N   0  0  0  0  0  0  0  0  0  0  0  0
   -4.9516   -0.1705    4.7714 C   0  0  0  0  0  0  0  0  0  0  0  0
   -5.4618    1.1061    3.1600 H   0  0  0  0  0  0  0  0  0  0  0  0
   -5.4438   -1.1387    4.5973 H   0  0  0  0  0  0  0  0  0  0  0  0
   -3.9863   -0.3349    5.2727 H   0  0  0  0  0  0  0  0  0  0  0  0
   -5.5928    0.4575    5.4075 H   0  0  0  0  0  0  0  0  0  0  0  0
  1  3  1  0  0  0  0
  1  7  1  0  0  0  0
  1  2  2  0  0  0  0
 37 38  1  0  0  0  0
 38 46  1  0  0  0  0
 38 39  2  0  0  0  0
  8  9  1  0  0  0  0
  9 17  1  0  0  0  0
  9 10  2  0  0  0  0
 18 19  1  0  0  0  0
 19 36  1  0  0  0  0
 19 20  2  0  0  0  0
 37 40  1  0  0  0  0
  8 11  1  0  0  0  0
 22 23  1  0  0  0  0
 22 24  1  0  0  0  0
 46 47  1  0  0  0  0
 18 21  1  0  0  0  0
 21 22  1  0  0  0  0
 36 37  1  0  0  0  0
  7  8  1  0  0  0  0
 17 18  1  0  0  0  0
  3  4  1  0  0  0  0
  3  5  1  0  0  0  0
  3  6  1  0  0  0  0
 40 43  1  0  0  0  0
 40 44  1  0  0  0  0
 40 45  1  0  0  0  0
 11 14  1  0  0  0  0
 11 15  1  0  0  0  0
 11 16  1  0  0  0  0
 23 30  1  0  0  0  0
 23 31  1  0  0  0  0
 23 32  1  0  0  0  0
 24 33  1  0  0  0  0
 24 34  1  0  0  0  0
 24 35  1  0  0  0  0
 47 49  1  0  0  0  0
 47 50  1  0  0  0  0
 47 51  1  0  0  0  0
 21 27  1  0  0  0  0
 21 28  1  0  0  0  0
 37 42  1  0  0  0  0
  8 13  1  0  0  0  0
 18 26  1  0  0  0  0
 22 29  1  0  0  0  0
 46 48  1  0  0  0  0
  7 12  1  0  0  0  0
 36 41  1  0  0  0  0
 17 25  1  0  0  0  0
M  END
$$$$

  -OEChem-05262214473D

 51 50  0     1  0  0  0  0  0999 V2000
    3.4018   -1.2440   -3.0186 C   0  0  0  0  0  0  0  0  0  0  0  0
    3.2697   -2.0909   -2.1427 O   0  0  0  0  0  0  0  0  0  0  0  0
    4.6845   -1.1645   -3.7779 C   0  0  0  0  0  0  0  0  0  0  0  0
    5.4123   -0.4862   -3.3041 H   0  0  0  0  0  0  0  0  0  0  0  0
    5.1949   -2.1387   -3.8443 H   0  0  0  0  0  0  0  0  0  0  0  0
    4.5953   -0.8128   -4.8182 H   0  0  0  0  0  0  0  0  0  0  0  0
    2.4540   -0.3103   -3.4040 N   0  0  0  0  0  0  0  0  0  0  0  0
    1.1494   -0.2128   -2.8039 C   0  0  2  0  0  0  0  0  0  0  0  0
    1.3350    0.0367   -1.3130 C   0  0  0  0  0  0  0  0  0  0  0  0
    2.3625   -0.2586   -0.7063 O   0  0  0  0  0  0  0  0  0  0  0  0
    0.3331   -1.4728   -3.0467 C   0  0  0  0  0  0  0  0  0  0  0  0
    2.6924    0.3404   -4.1502 H   0  0  0  0  0  0  0  0  0  0  0  0
    0.6550    0.6514   -3.2607 H   0  0  0  0  0  0  0  0  0  0  0  0
    0.8129   -2.3494   -2.5963 H   0  0  0  0  0  0  0  0  0  0  0  0
   -0.6690   -1.3857   -2.6142 H   0  0  0  0  0  0  0  0  0  0  0  0
    0.2259   -1.6670   -4.1194 H   0  0  0  0  0  0  0  0  0  0  0  0
    0.2019    0.5893   -0.7269 N   0  0  0  0  0  0  0  0  0  0  0  0
    0.1242    0.9059    0.6756 C   0  0  2  0  0  0  0  0  0  0  0  0
   -1.2252    0.4000    1.1760 C   0  0  0  0  0  0  0  0  0  0  0  0
   -1.3439   -0.5894    1.8958 O   0  0  0  0  0  0  0  0  0  0  0  0
    0.2572    2.4112    0.9392 C   0  0  0  0  0  0  0  0  0  0  0  0
    1.6353    3.0097    0.5907 C   0  0  0  0  0  0  0  0  0  0  0  0
    1.5936    4.5315    0.7552 C   0  0  0  0  0  0  0  0  0  0  0  0
    2.0816    2.6572   -0.8289 C   0  0  0  0  0  0  0  0  0  0  0  0
   -0.5975    0.8179   -1.3140 H   0  0  0  0  0  0  0  0  0  0  0  0
    0.9185    0.3420    1.1749 H   0  0  0  0  0  0  0  0  0  0  0  0
    0.0481    2.6051    2.0007 H   0  0  0  0  0  0  0  0  0  0  0  0
   -0.5194    2.9488    0.3790 H   0  0  0  0  0  0  0  0  0  0  0  0
    2.3838    2.6222    1.2926 H   0  0  0  0  0  0  0  0  0  0  0  0
    0.8593    4.9766    0.0754 H   0  0  0  0  0  0  0  0  0  0  0  0
    2.5689    4.9745    0.5270 H   0  0  0  0  0  0  0  0  0  0  0  0
    1.3234    4.8142    1.7784 H   0  0  0  0  0  0  0  0  0  0  0  0
    1.3656    3.0232   -1.5726 H   0  0  0  0  0  0  0  0  0  0  0  0
    3.0568    3.1038   -1.0512 H   0  0  0  0  0  0  0  0  0  0  0  0
    2.1857    1.5758   -0.9574 H   0  0  0  0  0  0  0  0  0  0  0  0
   -2.2714    1.2142    0.7648 N   0  0  0  0  0  0  0  0  0  0  0  0
   -3.6507    0.9744    1.1238 C   0  0  2  0  0  0  0  0  0  0  0  0
   -3.6848    0.5051    2.5723 C   0  0  0  0  0  0  0  0  0  0  0  0
   -2.7179   -0.0039    3.1354 O   0  0  0  0  0  0  0  0  0  0  0  0
   -4.2911   -0.0536    0.2041 C   0  0  0  0  0  0  0  0  0  0  0  0
   -2.0718    2.0281    0.1909 H   0  0  0  0  0  0  0  0  0  0  0  0
   -4.1713    1.9344    1.0379 H   0  0  0  0  0  0  0  0  0  0  0  0
   -3.7828   -1.0220    0.2764 H   0  0  0  0  0  0  0  0  0  0  0  0
   -5.3439   -0.2130    0.4594 H   0  0  0  0  0  0  0  0  0  0  0  0
   -4.2390    0.2720   -0.8405 H   0  0  0  0  0  0  0  0  0  0  0  0
   -4.9348    0.6819    3.1488 N   0  0  0  0  0  0  0  0  0  0  0  0
   -5.2253    0.3030    4.5119 C   0  0  0  0  0  0  0  0  0  0  0  0
   -5.6731    1.1295    2.6137 H   0  0  0  0  0  0  0  0  0  0  0  0
   -5.6247   -0.7218    4.5310 H   0  0  0  0  0  0  0  0  0  0  0  0
   -4.3029    0.3481    5.1094 H   0  0  0  0  0  0  0  0  0  0  0  0
   -5.9697    0.9943    4.9338 H   0  0  0  0  0  0  0  0  0  0  0  0
  1  3  1  0  0  0  0
  1  7  1  0  0  0  0
  1  2  2  0  0  0  0
 37 38  1  0  0  0  0
 38 46  1  0  0  0  0
 38 39  2  0  0  0  0
  8  9  1  0  0  0  0
  9 17  1  0  0  0  0
  9 10  2  0  0  0  0
 18 19  1  0  0  0  0
 19 36  1  0  0  0  0
 19 20  2  0  0  0  0
 37 40  1  0  0  0  0
  8 11  1  0  0  0  0
 22 23  1  0  0  0  0
 22 24  1  0  0  0  0
 46 47  1  0  0  0  0
 18 21  1  0  0  0  0
 21 22  1  0  0  0  0
 36 37  1  0  0  0  0
  7  8  1  0  0  0  0
 17 18  1  0  0  0  0
  3  4  1  0  0  0  0
  3  5  1  0  0  0  0
  3  6  1  0  0  0  0
 40 43  1  0  0  0  0
 40 44  1  0  0  0  0
 40 45  1  0  0  0  0
 11 14  1  0  0  0  0
 11 15  1  0  0  0  0
 11 16  1  0  0  0  0
 23 30  1  0  0  0  0
 23 31  1  0  0  0  0
 23 32  1  0  0  0  0
 24 33  1  0  0  0  0
 24 34  1  0  0  0  0
 24 35  1  0  0  0  0
 47 49  1  0  0  0  0
 47 50  1  0  0  0  0
 47 51  1  0  0  0  0
 21 27  1  0  0  0  0
 21 28  1  0  0  0  0
 37 42  1  0  0  0  0
  8 13  1  0  0  0  0
 18 26  1  0  0  0  0
 22 29  1  0  0  0  0
 46 48  1  0  0  0  0
  7 12  1  0  0  0  0
 36 41  1  0  0  0  0
 17 25  1  0  0  0  0
M  END
$$$$

  -OEChem-05262214473D

 51 50  0     1  0  0  0  0  0999 V2000
    3.4018   -1.2440   -3.0186 C   0  0  0  0  0  0  0  0  0  0  0  0
    3.2697   -2.0909   -2.1427 O   0  0  0  0  0  0  0  0  0  0  0  0
    4.6845   -1.1645   -3.7779 C   0  0  0  0  0  0  0  0  0  0  0  0
    5.4123   -0.4862   -3.3041 H   0  0  0  0  0  0  0  0  0  0  0  0
    5.1949   -2.1387   -3.8443 H   0  0  0  0  0  0  0  0  0  0  0  0
    4.5953   -0.8128   -4.8182 H   0  0  0  0  0  0  0  0  0  0  0  0
    2.4540   -0.3103   -3.4040 N   0  0  0  0  0  0  0  0  0  0  0  0
    1.1494   -0.2128   -2.8039 C   0  0  2  0  0  0  0  0  0  0  0  0
    1.3350    0.0367   -1.3130 C   0  0  0  0  0  0  0  0  0  0  0  0
    2.3625   -0.2586   -0.7063 O   0  0  0  0  0  0  0  0  0  0  0  0
    0.3331   -1.4728   -3.0467 C   0  0  0  0  0  0  0  0  0  0  0  0
    2.6924    0.3404   -4.1502 H   0  0  0  0  0  0  0  0  0  0  0  0
    0.6550    0.6514   -3.2607 H   0  0  0  0  0  0  0  0  0  0  0  0
    0.8129   -2.3494   -2.5963 H   0  0  0  0  0  0  0  0  0  0  0  0
   -0.6690   -1.3857   -2.6142 H   0  0  0  0  0  0  0  0  0  0  0  0
    0.2259   -1.6670   -4.1194 H   0  0  0  0  0  0  0  0  0  0  0  0
    0.2019    0.5893   -0.7269 N   0  0  0  0  0  0  0  0  0  0  0  0
    0.1242    0.9059    0.6756 C   0  0  2  0  0  0  0  0  0  0  0  0
   -1.2252    0.4000    1.1760 C   0  0  0  0  0  0  0  0  0  0  0  0
   -1.3378   -0.4085    2.0951 O   0  0  0  0  0  0  0  0  0  0  0  0
    0.2572    2.4112    0.9392 C   0  0  0  0  0  0  0  0  0  0  0  0
    1.6353    3.0097    0.5907 C   0  0  0  0  0  0  0  0  0  0  0  0
    1.5936    4.5315    0.7552 C   0  0  0  0  0  0  0  0  0  0  0  0
    2.0816    2.6572   -0.8289 C   0  0  0  0  0  0  0  0  0  0  0  0
   -0.5975    0.8179   -1.3140 H   0  0  0  0  0  0  0  0  0  0  0  0
    0.9185    0.3420    1.1749 H   0  0  0  0  0  0  0  0  0  0  0  0
    0.0481    2.6051    2.0007 H   0  0  0  0  0  0  0  0  0  0  0  0
   -0.5194    2.9488    0.3790 H   0  0  0  0  0  0  0  0  0  0  0  0
    2.3838    2.6222    1.2926 H   0  0  0  0  0  0  0  0  0  0  0  0
    0.8593    4.9766    0.0754 H   0  0  0  0  0  0  0  0  0  0  0  0
    2.5689    4.9745    0.5270 H   0  0  0  0  0  0  0  0  0  0  0  0
    1.3234    4.8142    1.7784 H   0  0  0  0  0  0  0  0  0  0  0  0
    1.3656    3.0232   -1.5726 H   0  0  0  0  0  0  0  0  0  0  0  0
    3.0568    3.1038   -1.0512 H   0  0  0  0  0  0  0  0  0  0  0  0
    2.1857    1.5758   -0.9574 H   0  0  0  0  0  0  0  0  0  0  0  0
   -2.2853    0.9976    0.5084 N   0  0  0  0  0  0  0  0  0  0  0  0
   -3.6707    0.7150    0.8076 C   0  0  2  0  0  0  0  0  0  0  0  0
   -3.8081    0.5830    2.3186 C   0  0  0  0  0  0  0  0  0  0  0  0
   -2.8642    0.3080    3.0565 O   0  0  0  0  0  0  0  0  0  0  0  0
   -4.1414   -0.5497    0.1064 C   0  0  0  0  0  0  0  0  0  0  0  0
   -2.0932    1.6765   -0.2222 H   0  0  0  0  0  0  0  0  0  0  0  0
   -4.2512    1.5772    0.4615 H   0  0  0  0  0  0  0  0  0  0  0  0
   -3.5713   -1.4242    0.4404 H   0  0  0  0  0  0  0  0  0  0  0  0
   -5.1989   -0.7467    0.3111 H   0  0  0  0  0  0  0  0  0  0  0  0
   -4.0141   -0.4643   -0.9782 H   0  0  0  0  0  0  0  0  0  0  0  0
   -5.1172    0.7657    2.7416 N   0  0  0  0  0  0  0  0  0  0  0  0
   -5.5077    0.6777    4.1293 C   0  0  0  0  0  0  0  0  0  0  0  0
   -5.8324    1.0091    2.0625 H   0  0  0  0  0  0  0  0  0  0  0  0
   -5.8291   -0.3496    4.3559 H   0  0  0  0  0  0  0  0  0  0  0  0
   -4.6526    0.9435    4.7682 H   0  0  0  0  0  0  0  0  0  0  0  0
   -6.3387    1.3724    4.3210 H   0  0  0  0  0  0  0  0  0  0  0  0
  1  3  1  0  0  0  0
  1  7  1  0  0  0  0
  1  2  2  0  0  0  0
 37 38  1  0  0  0  0
 38 46  1  0  0  0  0
 38 39  2  0  0  0  0
  8  9  1  0  0  0  0
  9 17  1  0  0  0  0
  9 10  2  0  0  0  0
 18 19  1  0  0  0  0
 19 36  1  0  0  0  0
 19 20  2  0  0  0  0
 37 40  1  0  0  0  0
  8 11  1  0  0  0  0
 22 23  1  0  0  0  0
 22 24  1  0  0  0  0
 46 47  1  0  0  0  0
 18 21  1  0  0  0  0
 21 22  1  0  0  0  0
 36 37  1  0  0  0  0
  7  8  1  0  0  0  0
 17 18  1  0  0  0  0
  3  4  1  0  0  0  0
  3  5  1  0  0  0  0
  3  6  1  0  0  0  0
 40 43  1  0  0  0  0
 40 44  1  0  0  0  0
 40 45  1  0  0  0  0
 11 14  1  0  0  0  0
 11 15  1  0  0  0  0
 11 16  1  0  0  0  0
 23 30  1  0  0  0  0
 23 31  1  0  0  0  0
 23 32  1  0  0  0  0
 24 33  1  0  0  0  0
 24 34  1  0  0  0  0
 24 35  1  0  0  0  0
 47 49  1  0  0  0  0
 47 50  1  0  0  0  0
 47 51  1  0  0  0  0
 21 27  1  0  0  0  0
 21 28  1  0  0  0  0
 37 42  1  0  0  0  0
  8 13  1  0  0  0  0
 18 26  1  0  0  0  0
 22 29  1  0  0  0  0
 46 48  1  0  0  0  0
  7 12  1  0  0  0  0
 36 41  1  0  0  0  0
 17 25  1  0  0  0  0
M  END
$$$$

  -OEChem-05262214473D

 51 50  0     1  0  0  0  0  0999 V2000
    3.4018   -1.2440   -3.0186 C   0  0  0  0  0  0  0  0  0  0  0  0
    3.2697   -2.0909   -2.1427 O   0  0  0  0  0  0  0  0  0  0  0  0
    4.6845   -1.1645   -3.7779 C   0  0  0  0  0  0  0  0  0  0  0  0
    5.4123   -0.4862   -3.3041 H   0  0  0  0  0  0  0  0  0  0  0  0
    5.1949   -2.1387   -3.8443 H   0  0  0  0  0  0  0  0  0  0  0  0
    4.5953   -0.8128   -4.8182 H   0  0  0  0  0  0  0  0  0  0  0  0
    2.4540   -0.3103   -3.4040 N   0  0  0  0  0  0  0  0  0  0  0  0
    1.1494   -0.2128   -2.8039 C   0  0  2  0  0  0  0  0  0  0  0  0
    1.3350    0.0367   -1.3130 C   0  0  0  0  0  0  0  0  0  0  0  0
    2.3625   -0.2586   -0.7063 O   0  0  0  0  0  0  0  0  0  0  0  0
    0.3331   -1.4728   -3.0467 C   0  0  0  0  0  0  0  0  0  0  0  0
    2.6924    0.3404   -4.1502 H   0  0  0  0  0  0  0  0  0  0  0  0
    0.6550    0.6514   -3.2607 H   0  0  0  0  0  0  0  0  0  0  0  0
    0.8129   -2.3494   -2.5963 H   0  0  0  0  0  0  0  0  0  0  0  0
   -0.6690   -1.3857   -2.6142 H   0  0  0  0  0  0  0  0  0  0  0  0
    0.2259   -1.6670   -4.1194 H   0  0  0  0  0  0  0  0  0  0  0  0
    0.2019    0.5893   -0.7269 N   0  0  0  0  0  0  0  0  0  0  0  0
    0.1242    0.9059    0.6756 C   0  0  2  0  0  0  0  0  0  0  0  0
   -1.2252    0.4000    1.1760 C   0  0  0  0  0  0  0  0  0  0  0  0
   -1.3644   -0.1877    2.2467 O   0  0  0  0  0  0  0  0  0  0  0  0
    0.2572    2.4112    0.9392 C   0  0  0  0  0  0  0  0  0  0  0  0
    1.6353    3.0097    0.5907 C   0  0  0  0  0  0  0  0  0  0  0  0
    1.5936    4.5315    0.7552 C   0  0  0  0  0  0  0  0  0  0  0  0
    2.0816    2.6572   -0.8289 C   0  0  0  0  0  0  0  0  0  0  0  0
   -0.5975    0.8179   -1.3140 H   0  0  0  0  0  0  0  0  0  0  0  0
    0.9185    0.3420    1.1749 H   0  0  0  0  0  0  0  0  0  0  0  0
    0.0481    2.6051    2.0007 H   0  0  0  0  0  0  0  0  0  0  0  0
   -0.5194    2.9488    0.3790 H   0  0  0  0  0  0  0  0  0  0  0  0
    2.3838    2.6222    1.2926 H   0  0  0  0  0  0  0  0  0  0  0  0
    0.8593    4.9766    0.0754 H   0  0  0  0  0  0  0  0  0  0  0  0
    2.5689    4.9745    0.5270 H   0  0  0  0  0  0  0  0  0  0  0  0
    1.3234    4.8142    1.7784 H   0  0  0  0  0  0  0  0  0  0  0  0
    1.3656    3.0232   -1.5726 H   0  0  0  0  0  0  0  0  0  0  0  0
    3.0568    3.1038   -1.0512 H   0  0  0  0  0  0  0  0  0  0  0  0
    2.1857    1.5758   -0.9574 H   0  0  0  0  0  0  0  0  0  0  0  0
   -2.2583    0.7285    0.3092 N   0  0  0  0  0  0  0  0  0  0  0  0
   -3.6409    0.3904    0.5598 C   0  0  2  0  0  0  0  0  0  0  0  0
   -3.9120    0.5897    2.0452 C   0  0  0  0  0  0  0  0  0  0  0  0
   -3.0251    0.5788    2.8963 O   0  0  0  0  0  0  0  0  0  0  0  0
   -3.9463   -1.0385    0.1384 C   0  0  0  0  0  0  0  0  0  0  0  0
   -2.0485    1.2405   -0.5426 H   0  0  0  0  0  0  0  0  0  0  0  0
   -4.2486    1.0934   -0.0204 H   0  0  0  0  0  0  0  0  0  0  0  0
   -3.3468   -1.7572    0.7090 H   0  0  0  0  0  0  0  0  0  0  0  0
   -5.0008   -1.2838    0.3024 H   0  0  0  0  0  0  0  0  0  0  0  0
   -3.7225   -1.1880   -0.9234 H   0  0  0  0  0  0  0  0  0  0  0  0
   -5.2656    0.7379    2.3134 N   0  0  0  0  0  0  0  0  0  0  0  0
   -5.7794    0.9280    3.6497 C   0  0  0  0  0  0  0  0  0  0  0  0
   -5.9287    0.7531    1.5440 H   0  0  0  0  0  0  0  0  0  0  0  0
   -6.0432   -0.0476    4.0840 H   0  0  0  0  0  0  0  0  0  0  0  0
   -5.0117    1.4109    4.2723 H   0  0  0  0  0  0  0  0  0  0  0  0
   -6.6746    1.5661    3.6109 H   0  0  0  0  0  0  0  0  0  0  0  0
  1  3  1  0  0  0  0
  1  7  1  0  0  0  0
  1  2  2  0  0  0  0
 37 38  1  0  0  0  0
 38 46  1  0  0  0  0
 38 39  2  0  0  0  0
  8  9  1  0  0  0  0
  9 17  1  0  0  0  0
  9 10  2  0  0  0  0
 18 19  1  0  0  0  0
 19 36  1  0  0  0  0
 19 20  2  0  0  0  0
 37 40  1  0  0  0  0
  8 11  1  0  0  0  0
 22 23  1  0  0  0  0
 22 24  1  0  0  0  0
 46 47  1  0  0  0  0
 18 21  1  0  0  0  0
 21 22  1  0  0  0  0
 36 37  1  0  0  0  0
  7  8  1  0  0  0  0
 17 18  1  0  0  0  0
  3  4  1  0  0  0  0
  3  5  1  0  0  0  0
  3  6  1  0  0  0  0
 40 43  1  0  0  0  0
 40 44  1  0  0  0  0
 40 45  1  0  0  0  0
 11 14  1  0  0  0  0
 11 15  1  0  0  0  0
 11 16  1  0  0  0  0
 23 30  1  0  0  0  0
 23 31  1  0  0  0  0
 23 32  1  0  0  0  0
 24 33  1  0  0  0  0
 24 34  1  0  0  0  0
 24 35  1  0  0  0  0
 47 49  1  0  0  0  0
 47 50  1  0  0  0  0
 47 51  1  0  0  0  0
 21 27  1  0  0  0  0
 21 28  1  0  0  0  0
 37 42  1  0  0  0  0
  8 13  1  0  0  0  0
 18 26  1  0  0  0  0
 22 29  1  0  0  0  0
 46 48  1  0  0  0  0
  7 12  1  0  0  0  0
 36 41  1  0  0  0  0
 17 25  1  0  0  0  0
M  END
$$$$

  -OEChem-05262214473D

 51 50  0     1  0  0  0  0  0999 V2000
    3.4018   -1.2440   -3.0186 C   0  0  0  0  0  0  0  0  0  0  0  0
    3.2697   -2.0909   -2.1427 O   0  0  0  0  0  0  0  0  0  0  0  0
    4.6845   -1.1645   -3.7779 C   0  0  0  0  0  0  0  0  0  0  0  0
    5.4123   -0.4862   -3.3041 H   0  0  0  0  0  0  0  0  0  0  0  0
    5.1949   -2.1387   -3.8443 H   0  0  0  0  0  0  0  0  0  0  0  0
    4.5953   -0.8128   -4.8182 H   0  0  0  0  0  0  0  0  0  0  0  0
    2.4540   -0.3103   -3.4040 N   0  0  0  0  0  0  0  0  0  0  0  0
    1.1494   -0.2128   -2.8039 C   0  0  2  0  0  0  0  0  0  0  0  0
    1.3350    0.0367   -1.3130 C   0  0  0  0  0  0  0  0  0  0  0  0
    2.3625   -0.2586   -0.7063 O   0  0  0  0  0  0  0  0  0  0  0  0
    0.3331   -1.4728   -3.0467 C   0  0  0  0  0  0  0  0  0  0  0  0
    2.6924    0.3404   -4.1502 H   0  0  0  0  0  0  0  0  0  0  0  0
    0.6550    0.6514   -3.2607 H   0  0  0  0  0  0  0  0  0  0  0  0
    0.8129   -2.3494   -2.5963 H   0  0  0  0  0  0  0  0  0  0  0  0
   -0.6690   -1.3857   -2.6142 H   0  0  0  0  0  0  0  0  0  0  0  0
    0.2259   -1.6670   -4.1194 H   0  0  0  0  0  0  0  0  0  0  0  0
    0.2019    0.5893   -0.7269 N   0  0  0  0  0  0  0  0  0  0  0  0
    0.1242    0.9059    0.6756 C   0  0  2  0  0  0  0  0  0  0  0  0
   -1.2252    0.4000    1.1760 C   0  0  0  0  0  0  0  0  0  0  0  0
   -1.4218    0.0581    2.3403 O   0  0  0  0  0  0  0  0  0  0  0  0
    0.2572    2.4112    0.9392 C   0  0  0  0  0  0  0  0  0  0  0  0
    1.6353    3.0097    0.5907 C   0  0  0  0  0  0  0  0  0  0  0  0
    1.5936    4.5315    0.7552 C   0  0  0  0  0  0  0  0  0  0  0  0
    2.0816    2.6572   -0.8289 C   0  0  0  0  0  0  0  0  0  0  0  0
   -0.5975    0.8179   -1.3140 H   0  0  0  0  0  0  0  0  0  0  0  0
    0.9185    0.3420    1.1749 H   0  0  0  0  0  0  0  0  0  0  0  0
    0.0481    2.6051    2.0007 H   0  0  0  0  0  0  0  0  0  0  0  0
   -0.5194    2.9488    0.3790 H   0  0  0  0  0  0  0  0  0  0  0  0
    2.3838    2.6222    1.2926 H   0  0  0  0  0  0  0  0  0  0  0  0
    0.8593    4.9766    0.0754 H   0  0  0  0  0  0  0  0  0  0  0  0
    2.5689    4.9745    0.5270 H   0  0  0  0  0  0  0  0  0  0  0  0
    1.3234    4.8142    1.7784 H   0  0  0  0  0  0  0  0  0  0  0  0
    1.3656    3.0232   -1.5726 H   0  0  0  0  0  0  0  0  0  0  0  0
    3.0568    3.1038   -1.0512 H   0  0  0  0  0  0  0  0  0  0  0  0
    2.1857    1.5758   -0.9574 H   0  0  0  0  0  0  0  0  0  0  0  0
   -2.1923    0.4253    0.1807 N   0  0  0  0  0  0  0  0  0  0  0  0
   -3.5633    0.0227    0.3973 C   0  0  2  0  0  0  0  0  0  0  0  0
   -3.9895    0.5247    1.7706 C   0  0  0  0  0  0  0  0  0  0  0  0
   -3.1898    0.7901    2.6657 O   0  0  0  0  0  0  0  0  0  0  0  0
   -3.7190   -1.4868    0.2980 C   0  0  0  0  0  0  0  0  0  0  0  0
   -1.9409    0.7498   -0.7483 H   0  0  0  0  0  0  0  0  0  0  0  0
   -4.1636    0.5160   -0.3749 H   0  0  0  0  0  0  0  0  0  0  0  0
   -3.1248   -1.9983    1.0640 H   0  0  0  0  0  0  0  0  0  0  0  0
   -4.7630   -1.7878    0.4340 H   0  0  0  0  0  0  0  0  0  0  0  0
   -3.3841   -1.8497   -0.6797 H   0  0  0  0  0  0  0  0  0  0  0  0
   -5.3698    0.6004    1.8934 N   0  0  0  0  0  0  0  0  0  0  0  0
   -6.0219    1.0370    3.1058 C   0  0  0  0  0  0  0  0  0  0  0  0
   -5.9555    0.3789    1.0936 H   0  0  0  0  0  0  0  0  0  0  0  0
   -6.2522    0.1638    3.7339 H   0  0  0  0  0  0  0  0  0  0  0  0
   -5.3557    1.7183    3.6554 H   0  0  0  0  0  0  0  0  0  0  0  0
   -6.9546    1.5620    2.8518 H   0  0  0  0  0  0  0  0  0  0  0  0
  1  3  1  0  0  0  0
  1  7  1  0  0  0  0
  1  2  2  0  0  0  0
 37 38  1  0  0  0  0
 38 46  1  0  0  0  0
 38 39  2  0  0  0  0
  8  9  1  0  0  0  0
  9 17  1  0  0  0  0
  9 10  2  0  0  0  0
 18 19  1  0  0  0  0
 19 36  1  0  0  0  0
 19 20  2  0  0  0  0
 37 40  1  0  0  0  0
  8 11  1  0  0  0  0
 22 23  1  0  0  0  0
 22 24  1  0  0  0  0
 46 47  1  0  0  0  0
 18 21  1  0  0  0  0
 21 22  1  0  0  0  0
 36 37  1  0  0  0  0
  7  8  1  0  0  0  0
 17 18  1  0  0  0  0
  3  4  1  0  0  0  0
  3  5  1  0  0  0  0
  3  6  1  0  0  0  0
 40 43  1  0  0  0  0
 40 44  1  0  0  0  0
 40 45  1  0  0  0  0
 11 14  1  0  0  0  0
 11 15  1  0  0  0  0
 11 16  1  0  0  0  0
 23 30  1  0  0  0  0
 23 31  1  0  0  0  0
 23 32  1  0  0  0  0
 24 33  1  0  0  0  0
 24 34  1  0  0  0  0
 24 35  1  0  0  0  0
 47 49  1  0  0  0  0
 47 50  1  0  0  0  0
 47 51  1  0  0  0  0
 21 27  1  0  0  0  0
 21 28  1  0  0  0  0
 37 42  1  0  0  0  0
  8 13  1  0  0  0  0
 18 26  1  0  0  0  0
 22 29  1  0  0  0  0
 46 48  1  0  0  0  0
  7 12  1  0  0  0  0
 36 41  1  0  0  0  0
 17 25  1  0  0  0  0
M  END
$$$$

  -OEChem-05262214473D

 51 50  0     1  0  0  0  0  0999 V2000
    3.4018   -1.2440   -3.0186 C   0  0  0  0  0  0  0  0  0  0  0  0
    3.2697   -2.0909   -2.1427 O   0  0  0  0  0  0  0  0  0  0  0  0
    4.6845   -1.1645   -3.7779 C   0  0  0  0  0  0  0  0  0  0  0  0
    5.4123   -0.4862   -3.3041 H   0  0  0  0  0  0  0  0  0  0  0  0
    5.1949   -2.1387   -3.8443 H   0  0  0  0  0  0  0  0  0  0  0  0
    4.5953   -0.8128   -4.8182 H   0  0  0  0  0  0  0  0  0  0  0  0
    2.4540   -0.3103   -3.4040 N   0  0  0  0  0  0  0  0  0  0  0  0
    1.1494   -0.2128   -2.8039 C   0  0  2  0  0  0  0  0  0  0  0  0
    1.3350    0.0367   -1.3130 C   0  0  0  0  0  0  0  0  0  0  0  0
    2.3625   -0.2586   -0.7063 O   0  0  0  0  0  0  0  0  0  0  0  0
    0.3331   -1.4728   -3.0467 C   0  0  0  0  0  0  0  0  0  0  0  0
    2.6924    0.3404   -4.1502 H   0  0  0  0  0  0  0  0  0  0  0  0
    0.6550    0.6514   -3.2607 H   0  0  0  0  0  0  0  0  0  0  0  0
    0.8129   -2.3494   -2.5963 H   0  0  0  0  0  0  0  0  0  0  0  0
   -0.6690   -1.3857   -2.6142 H   0  0  0  0  0  0  0  0  0  0  0  0
    0.2259   -1.6670   -4.1194 H   0  0  0  0  0  0  0  0  0  0  0  0
    0.2019    0.5893   -0.7269 N   0  0  0  0  0  0  0  0  0  0  0  0
    0.1242    0.9059    0.6756 C   0  0  2  0  0  0  0  0  0  0  0  0
   -1.2252    0.4000    1.1760 C   0  0  0  0  0  0  0  0  0  0  0  0
   -1.5062    0.3121    2.3695 O   0  0  0  0  0  0  0  0  0  0  0  0
    0.2572    2.4112    0.9392 C   0  0  0  0  0  0  0  0  0  0  0  0
    1.6353    3.0097    0.5907 C   0  0  0  0  0  0  0  0  0  0  0  0
    1.5936    4.5315    0.7552 C   0  0  0  0  0  0  0  0  0  0  0  0
    2.0816    2.6572   -0.8289 C   0  0  0  0  0  0  0  0  0  0  0  0
   -0.5975    0.8179   -1.3140 H   0  0  0  0  0  0  0  0  0  0  0  0
    0.9185    0.3420    1.1749 H   0  0  0  0  0  0  0  0  0  0  0  0
    0.0481    2.6051    2.0007 H   0  0  0  0  0  0  0  0  0  0  0  0
   -0.5194    2.9488    0.3790 H   0  0  0  0  0  0  0  0  0  0  0  0
    2.3838    2.6222    1.2926 H   0  0  0  0  0  0  0  0  0  0  0  0
    0.8593    4.9766    0.0754 H   0  0  0  0  0  0  0  0  0  0  0  0
    2.5689    4.9745    0.5270 H   0  0  0  0  0  0  0  0  0  0  0  0
    1.3234    4.8142    1.7784 H   0  0  0  0  0  0  0  0  0  0  0  0
    1.3656    3.0232   -1.5726 H   0  0  0  0  0  0  0  0  0  0  0  0
    3.0568    3.1038   -1.0512 H   0  0  0  0  0  0  0  0  0  0  0  0
    2.1857    1.5758   -0.9574 H   0  0  0  0  0  0  0  0  0  0  0  0
   -2.0918    0.1086    0.1317 N   0  0  0  0  0  0  0  0  0  0  0  0
   -3.4432   -0.3631    0.3313 C   0  0  2  0  0  0  0  0  0  0  0  0
   -4.0352    0.3925    1.5136 C   0  0  0  0  0  0  0  0  0  0  0  0
   -3.3470    0.9273    2.3805 O   0  0  0  0  0  0  0  0  0  0  0  0
   -3.4752   -1.8640    0.5743 C   0  0  0  0  0  0  0  0  0  0  0  0
   -1.7776    0.2378   -0.8255 H   0  0  0  0  0  0  0  0  0  0  0  0
   -4.0021   -0.1157   -0.5778 H   0  0  0  0  0  0  0  0  0  0  0  0
   -2.9203   -2.1311    1.4811 H   0  0  0  0  0  0  0  0  0  0  0  0
   -4.5019   -2.2243    0.6970 H   0  0  0  0  0  0  0  0  0  0  0  0
   -3.0220   -2.4043   -0.2638 H   0  0  0  0  0  0  0  0  0  0  0  0
   -5.4228    0.3625    1.5103 N   0  0  0  0  0  0  0  0  0  0  0  0
   -6.2188    0.9972    2.5347 C   0  0  0  0  0  0  0  0  0  0  0  0
   -5.9110   -0.0879    0.7418 H   0  0  0  0  0  0  0  0  0  0  0  0
   -6.4421    0.2700    3.3293 H   0  0  0  0  0  0  0  0  0  0  0  0
   -5.6612    1.8448    2.9597 H   0  0  0  0  0  0  0  0  0  0  0  0
   -7.1596    1.3605    2.0955 H   0  0  0  0  0  0  0  0  0  0  0  0
  1  3  1  0  0  0  0
  1  7  1  0  0  0  0
  1  2  2  0  0  0  0
 37 38  1  0  0  0  0
 38 46  1  0  0  0  0
 38 39  2  0  0  0  0
  8  9  1  0  0  0  0
  9 17  1  0  0  0  0
  9 10  2  0  0  0  0
 18 19  1  0  0  0  0
 19 36  1  0  0  0  0
 19 20  2  0  0  0  0
 37 40  1  0  0  0  0
  8 11  1  0  0  0  0
 22 23  1  0  0  0  0
 22 24  1  0  0  0  0
 46 47  1  0  0  0  0
 18 21  1  0  0  0  0
 21 22  1  0  0  0  0
 36 37  1  0  0  0  0
  7  8  1  0  0  0  0
 17 18  1  0  0  0  0
  3  4  1  0  0  0  0
  3  5  1  0  0  0  0
  3  6  1  0  0  0  0
 40 43  1  0  0  0  0
 40 44  1  0  0  0  0
 40 45  1  0  0  0  0
 11 14  1  0  0  0  0
 11 15  1  0  0  0  0
 11 16  1  0  0  0  0
 23 30  1  0  0  0  0
 23 31  1  0  0  0  0
 23 32  1  0  0  0  0
 24 33  1  0  0  0  0
 24 34  1  0  0  0  0
 24 35  1  0  0  0  0
 47 49  1  0  0  0  0
 47 50  1  0  0  0  0
 47 51  1  0  0  0  0
 21 27  1  0  0  0  0
 21 28  1  0  0  0  0
 37 42  1  0  0  0  0
  8 13  1  0  0  0  0
 18 26  1  0  0  0  0
 22 29  1  0  0  0  0
 46 48  1  0  0  0  0
  7 12  1  0  0  0  0
 36 41  1  0  0  0  0
 17 25  1  0  0  0  0
M  END
$$$$

  -OEChem-05262214473D

 51 50  0     1  0  0  0  0  0999 V2000
    3.4018   -1.2440   -3.0186 C   0  0  0  0  0  0  0  0  0  0  0  0
    3.2697   -2.0909   -2.1427 O   0  0  0  0  0  0  0  0  0  0  0  0
    4.6845   -1.1645   -3.7779 C   0  0  0  0  0  0  0  0  0  0  0  0
    5.4123   -0.4862   -3.3041 H   0  0  0  0  0  0  0  0  0  0  0  0
    5.1949   -2.1387   -3.8443 H   0  0  0  0  0  0  0  0  0  0  0  0
    4.5953   -0.8128   -4.8182 H   0  0  0  0  0  0  0  0  0  0  0  0
    2.4540   -0.3103   -3.4040 N   0  0  0  0  0  0  0  0  0  0  0  0
    1.1494   -0.2128   -2.8039 C   0  0  2  0  0  0  0  0  0  0  0  0
    1.3350    0.0367   -1.3130 C   0  0  0  0  0  0  0  0  0  0  0  0
    2.3625   -0.2586   -0.7063 O   0  0  0  0  0  0  0  0  0  0  0  0
    0.3331   -1.4728   -3.0467 C   0  0  0  0  0  0  0  0  0  0  0  0
    2.6924    0.3404   -4.1502 H   0  0  0  0  0  0  0  0  0  0  0  0
    0.6550    0.6514   -3.2607 H   0  0  0  0  0  0  0  0  0  0  0  0
    0.8129   -2.3494   -2.5963 H   0  0  0  0  0  0  0  0  0  0  0  0
   -0.6690   -1.3857   -2.6142 H   0  0  0  0  0  0  0  0  0  0  0  0
    0.2259   -1.6670   -4.1194 H   0  0  0  0  0  0  0  0  0  0  0  0
    0.2019    0.5893   -0.7269 N   0  0  0  0  0  0  0  0  0  0  0  0
    0.1242    0.9059    0.6756 C   0  0  2  0  0  0  0  0  0  0  0  0
   -1.2252    0.4000    1.1760 C   0  0  0  0  0  0  0  0  0  0  0  0
   -1.6117    0.5569    2.3324 O   0  0  0  0  0  0  0  0  0  0  0  0
    0.2572    2.4112    0.9392 C   0  0  0  0  0  0  0  0  0  0  0  0
    1.6353    3.0097    0.5907 C   0  0  0  0  0  0  0  0  0  0  0  0
    1.5936    4.5315    0.7552 C   0  0  0  0  0  0  0  0  0  0  0  0
    2.0816    2.6572   -0.8289 C   0  0  0  0  0  0  0  0  0  0  0  0
   -0.5975    0.8179   -1.3140 H   0  0  0  0  0  0  0  0  0  0  0  0
    0.9185    0.3420    1.1749 H   0  0  0  0  0  0  0  0  0  0  0  0
    0.0481    2.6051    2.0007 H   0  0  0  0  0  0  0  0  0  0  0  0
   -0.5194    2.9488    0.3790 H   0  0  0  0  0  0  0  0  0  0  0  0
    2.3838    2.6222    1.2926 H   0  0  0  0  0  0  0  0  0  0  0  0
    0.8593    4.9766    0.0754 H   0  0  0  0  0  0  0  0  0  0  0  0
    2.5689    4.9745    0.5270 H   0  0  0  0  0  0  0  0  0  0  0  0
    1.3234    4.8142    1.7784 H   0  0  0  0  0  0  0  0  0  0  0  0
    1.3656    3.0232   -1.5726 H   0  0  0  0  0  0  0  0  0  0  0  0
    3.0568    3.1038   -1.0512 H   0  0  0  0  0  0  0  0  0  0  0  0
    2.1857    1.5758   -0.9574 H   0  0  0  0  0  0  0  0  0  0  0  0
   -1.9636   -0.2000    0.1654 N   0  0  0  0  0  0  0  0  0  0  0  0
   -3.2887   -0.7407    0.3661 C   0  0  2  0  0  0  0  0  0  0  0  0
   -4.0462    0.2021    1.2917 C   0  0  0  0  0  0  0  0  0  0  0  0
   -3.4861    0.9813    2.0601 O   0  0  0  0  0  0  0  0  0  0  0  0
   -3.2313   -2.1444    0.9485 C   0  0  0  0  0  0  0  0  0  0  0  0
   -1.5698   -0.2605   -0.7689 H   0  0  0  0  0  0  0  0  0  0  0  0
   -3.7750   -0.7586   -0.6154 H   0  0  0  0  0  0  0  0  0  0  0  0
   -2.7473   -2.1465    1.9320 H   0  0  0  0  0  0  0  0  0  0  0  0
   -4.2352   -2.5635    1.0733 H   0  0  0  0  0  0  0  0  0  0  0  0
   -2.6608   -2.8140    0.2959 H   0  0  0  0  0  0  0  0  0  0  0  0
   -5.4208    0.0406    1.1901 N   0  0  0  0  0  0  0  0  0  0  0  0
   -6.3566    0.8112    1.9753 C   0  0  0  0  0  0  0  0  0  0  0  0
   -5.7981   -0.6156    0.5127 H   0  0  0  0  0  0  0  0  0  0  0  0
   -6.5998    0.2639    2.8980 H   0  0  0  0  0  0  0  0  0  0  0  0
   -5.9072    1.7817    2.2325 H   0  0  0  0  0  0  0  0  0  0  0  0
   -7.2755    0.9753    1.3934 H   0  0  0  0  0  0  0  0  0  0  0  0
  1  3  1  0  0  0  0
  1  7  1  0  0  0  0
  1  2  2  0  0  0  0
 37 38  1  0  0  0  0
 38 46  1  0  0  0  0
 38 39  2  0  0  0  0
  8  9  1  0  0  0  0
  9 17  1  0  0  0  0
  9 10  2  0  0  0  0
 18 19  1  0  0  0  0
 19 36  1  0  0  0  0
 19 20  2  0  0  0  0
 37 40  1  0  0  0  0
  8 11  1  0  0  0  0
 22 23  1  0  0  0  0
 22 24  1  0  0  0  0
 46 47  1  0  0  0  0
 18 21  1  0  0  0  0
 21 22  1  0  0  0  0
 36 37  1  0  0  0  0
  7  8  1  0  0  0  0
 17 18  1  0  0  0  0
  3  4  1  0  0  0  0
  3  5  1  0  0  0  0
  3  6  1  0  0  0  0
 40 43  1  0  0  0  0
 40 44  1  0  0  0  0
 40 45  1  0  0  0  0
 11 14  1  0  0  0  0
 11 15  1  0  0  0  0
 11 16  1  0  0  0  0
 23 30  1  0  0  0  0
 23 31  1  0  0  0  0
 23 32  1  0  0  0  0
 24 33  1  0  0  0  0
 24 34  1  0  0  0  0
 24 35  1  0  0  0  0
 47 49  1  0  0  0  0
 47 50  1  0  0  0  0
 47 51  1  0  0  0  0
 21 27  1  0  0  0  0
 21 28  1  0  0  0  0
 37 42  1  0  0  0  0
  8 13  1  0  0  0  0
 18 26  1  0  0  0  0
 22 29  1  0  0  0  0
 46 48  1  0  0  0  0
  7 12  1  0  0  0  0
 36 41  1  0  0  0  0
 17 25  1  0  0  0  0
M  END
$$$$

  -OEChem-05262214473D

 51 50  0     1  0  0  0  0  0999 V2000
    3.4018   -1.2440   -3.0186 C   0  0  0  0  0  0  0  0  0  0  0  0
    3.2697   -2.0909   -2.1427 O   0  0  0  0  0  0  0  0  0  0  0  0
    4.6845   -1.1645   -3.7779 C   0  0  0  0  0  0  0  0  0  0  0  0
    5.4123   -0.4862   -3.3041 H   0  0  0  0  0  0  0  0  0  0  0  0
    5.1949   -2.1387   -3.8443 H   0  0  0  0  0  0  0  0  0  0  0  0
    4.5953   -0.8128   -4.8182 H   0  0  0  0  0  0  0  0  0  0  0  0
    2.4540   -0.3103   -3.4040 N   0  0  0  0  0  0  0  0  0  0  0  0
    1.1494   -0.2128   -2.8039 C   0  0  2  0  0  0  0  0  0  0  0  0
    1.3350    0.0367   -1.3130 C   0  0  0  0  0  0  0  0  0  0  0  0
    2.3625   -0.2586   -0.7063 O   0  0  0  0  0  0  0  0  0  0  0  0
    0.3331   -1.4728   -3.0467 C   0  0  0  0  0  0  0  0  0  0  0  0
    2.6924    0.3404   -4.1502 H   0  0  0  0  0  0  0  0  0  0  0  0
    0.6550    0.6514   -3.2607 H   0  0  0  0  0  0  0  0  0  0  0  0
    0.8129   -2.3494   -2.5963 H   0  0  0  0  0  0  0  0  0  0  0  0
   -0.6690   -1.3857   -2.6142 H   0  0  0  0  0  0  0  0  0  0  0  0
    0.2259   -1.6670   -4.1194 H   0  0  0  0  0  0  0  0  0  0  0  0
    0.2019    0.5893   -0.7269 N   0  0  0  0  0  0  0  0  0  0  0  0
    0.1242    0.9059    0.6756 C   0  0  2  0  0  0  0  0  0  0  0  0
   -1.2252    0.4000    1.1760 C   0  0  0  0  0  0  0  0  0  0  0  0
   -1.7313    0.7759    2.2314 O   0  0  0  0  0  0  0  0  0  0  0  0
    0.2572    2.4112    0.9392 C   0  0  0  0  0  0  0  0  0  0  0  0
    1.6353    3.0097    0.5907 C   0  0  0  0  0  0  0  0  0  0  0  0
    1.5936    4.5315    0.7552 C   0  0  0  0  0  0  0  0  0  0  0  0
    2.0816    2.6572   -0.8289 C   0  0  0  0  0  0  0  0  0  0  0  0
   -0.5975    0.8179   -1.3140 H   0  0  0  0  0  0  0  0  0  0  0  0
    0.9185    0.3420    1.1749 H   0  0  0  0  0  0  0  0  0  0  0  0
    0.0481    2.6051    2.0007 H   0  0  0  0  0  0  0  0  0  0  0  0
   -0.5194    2.9488    0.3790 H   0  0  0  0  0  0  0  0  0  0  0  0
    2.3838    2.6222    1.2926 H   0  0  0  0  0  0  0  0  0  0  0  0
    0.8593    4.9766    0.0754 H   0  0  0  0  0  0  0  0  0  0  0  0
    2.5689    4.9745    0.5270 H   0  0  0  0  0  0  0  0  0  0  0  0
    1.3234    4.8142    1.7784 H   0  0  0  0  0  0  0  0  0  0  0  0
    1.3656    3.0232   -1.5726 H   0  0  0  0  0  0  0  0  0  0  0  0
    3.0568    3.1038   -1.0512 H   0  0  0  0  0  0  0  0  0  0  0  0
    2.1857    1.5758   -0.9574 H   0  0  0  0  0  0  0  0  0  0  0  0
   -1.8164   -0.4795    0.2797 N   0  0  0  0  0  0  0  0  0  0  0  0
   -3.1105   -1.0844    0.4994 C   0  0  2  0  0  0  0  0  0  0  0  0
   -4.0215   -0.0335    1.1201 C   0  0  0  0  0  0  0  0  0  0  0  0
   -3.5975    0.9482    1.7263 O   0  0  0  0  0  0  0  0  0  0  0  0
   -3.0041   -2.3088    1.3950 C   0  0  0  0  0  0  0  0  0  0  0  0
   -1.3316   -0.7112   -0.5822 H   0  0  0  0  0  0  0  0  0  0  0  0
   -3.4978   -1.3689   -0.4850 H   0  0  0  0  0  0  0  0  0  0  0  0
   -2.6176   -2.0434    2.3858 H   0  0  0  0  0  0  0  0  0  0  0  0
   -3.9810   -2.7824    1.5373 H   0  0  0  0  0  0  0  0  0  0  0  0
   -2.3251   -3.0510    0.9614 H   0  0  0  0  0  0  0  0  0  0  0  0
   -5.3642   -0.3435    0.9547 N   0  0  0  0  0  0  0  0  0  0  0  0
   -6.4258    0.4918    1.4657 C   0  0  0  0  0  0  0  0  0  0  0  0
   -5.6247   -1.1681    0.4219 H   0  0  0  0  0  0  0  0  0  0  0  0
   -6.7145    0.1458    2.4692 H   0  0  0  0  0  0  0  0  0  0  0  0
   -6.0771    1.5335    1.5234 H   0  0  0  0  0  0  0  0  0  0  0  0
   -7.2946    0.4327    0.7936 H   0  0  0  0  0  0  0  0  0  0  0  0
  1  3  1  0  0  0  0
  1  7  1  0  0  0  0
  1  2  2  0  0  0  0
 37 38  1  0  0  0  0
 38 46  1  0  0  0  0
 38 39  2  0  0  0  0
  8  9  1  0  0  0  0
  9 17  1  0  0  0  0
  9 10  2  0  0  0  0
 18 19  1  0  0  0  0
 19 36  1  0  0  0  0
 19 20  2  0  0  0  0
 37 40  1  0  0  0  0
  8 11  1  0  0  0  0
 22 23  1  0  0  0  0
 22 24  1  0  0  0  0
 46 47  1  0  0  0  0
 18 21  1  0  0  0  0
 21 22  1  0  0  0  0
 36 37  1  0  0  0  0
  7  8  1  0  0  0  0
 17 18  1  0  0  0  0
  3  4  1  0  0  0  0
  3  5  1  0  0  0  0
  3  6  1  0  0  0  0
 40 43  1  0  0  0  0
 40 44  1  0  0  0  0
 40 45  1  0  0  0  0
 11 14  1  0  0  0  0
 11 15  1  0  0  0  0
 11 16  1  0  0  0  0
 23 30  1  0  0  0  0
 23 31  1  0  0  0  0
 23 32  1  0  0  0  0
 24 33  1  0  0  0  0
 24 34  1  0  0  0  0
 24 35  1  0  0  0  0
 47 49  1  0  0  0  0
 47 50  1  0  0  0  0
 47 51  1  0  0  0  0
 21 27  1  0  0  0  0
 21 28  1  0  0  0  0
 37 42  1  0  0  0  0
  8 13  1  0  0  0  0
 18 26  1  0  0  0  0
 22 29  1  0  0  0  0
 46 48  1  0  0  0  0
  7 12  1  0  0  0  0
 36 41  1  0  0  0  0
 17 25  1  0  0  0  0
M  END
$$$$

  -OEChem-05262214473D

 51 50  0     1  0  0  0  0  0999 V2000
    3.4018   -1.2440   -3.0186 C   0  0  0  0  0  0  0  0  0  0  0  0
    3.2697   -2.0909   -2.1427 O   0  0  0  0  0  0  0  0  0  0  0  0
    4.6845   -1.1645   -3.7779 C   0  0  0  0  0  0  0  0  0  0  0  0
    5.4123   -0.4862   -3.3041 H   0  0  0  0  0  0  0  0  0  0  0  0
    5.1949   -2.1387   -3.8443 H   0  0  0  0  0  0  0  0  0  0  0  0
    4.5953   -0.8128   -4.8182 H   0  0  0  0  0  0  0  0  0  0  0  0
    2.4540   -0.3103   -3.4040 N   0  0  0  0  0  0  0  0  0  0  0  0
    1.1494   -0.2128   -2.8039 C   0  0  2  0  0  0  0  0  0  0  0  0
    1.3350    0.0367   -1.3130 C   0  0  0  0  0  0  0  0  0  0  0  0
    2.3625   -0.2586   -0.7063 O   0  0  0  0  0  0  0  0  0  0  0  0
    0.3331   -1.4728   -3.0467 C   0  0  0  0  0  0  0  0  0  0  0  0
    2.6924    0.3404   -4.1502 H   0  0  0  0  0  0  0  0  0  0  0  0
    0.6550    0.6514   -3.2607 H   0  0  0  0  0  0  0  0  0  0  0  0
    0.8129   -2.3494   -2.5963 H   0  0  0  0  0  0  0  0  0  0  0  0
   -0.6690   -1.3857   -2.6142 H   0  0  0  0  0  0  0  0  0  0  0  0
    0.2259   -1.6670   -4.1194 H   0  0  0  0  0  0  0  0  0  0  0  0
    0.2019    0.5893   -0.7269 N   0  0  0  0  0  0  0  0  0  0  0  0
    0.1242    0.9059    0.6756 C   0  0  2  0  0  0  0  0  0  0  0  0
   -1.2252    0.4000    1.1760 C   0  0  0  0  0  0  0  0  0  0  0  0
   -1.8567    0.9542    2.0734 O   0  0  0  0  0  0  0  0  0  0  0  0
    0.2572    2.4112    0.9392 C   0  0  0  0  0  0  0  0  0  0  0  0
    1.6353    3.0097    0.5907 C   0  0  0  0  0  0  0  0  0  0  0  0
    1.5936    4.5315    0.7552 C   0  0  0  0  0  0  0  0  0  0  0  0
    2.0816    2.6572   -0.8289 C   0  0  0  0  0  0  0  0  0  0  0  0
   -0.5975    0.8179   -1.3140 H   0  0  0  0  0  0  0  0  0  0  0  0
    0.9185    0.3420    1.1749 H   0  0  0  0  0  0  0  0  0  0  0  0
    0.0481    2.6051    2.0007 H   0  0  0  0  0  0  0  0  0  0  0  0
   -0.5194    2.9488    0.3790 H   0  0  0  0  0  0  0  0  0  0  0  0
    2.3838    2.6222    1.2926 H   0  0  0  0  0  0  0  0  0  0  0  0
    0.8593    4.9766    0.0754 H   0  0  0  0  0  0  0  0  0  0  0  0
    2.5689    4.9745    0.5270 H   0  0  0  0  0  0  0  0  0  0  0  0
    1.3234    4.8142    1.7784 H   0  0  0  0  0  0  0  0  0  0  0  0
    1.3656    3.0232   -1.5726 H   0  0  0  0  0  0  0  0  0  0  0  0
    3.0568    3.1038   -1.0512 H   0  0  0  0  0  0  0  0  0  0  0  0
    2.1857    1.5758   -0.9574 H   0  0  0  0  0  0  0  0  0  0  0  0
   -1.6604   -0.7108    0.4667 N   0  0  0  0  0  0  0  0  0  0  0  0
   -2.9205   -1.3706    0.7222 C   0  0  2  0  0  0  0  0  0  0  0  0
   -3.9629   -0.2983    1.0103 C   0  0  0  0  0  0  0  0  0  0  0  0
   -3.6736    0.8304    1.4019 O   0  0  0  0  0  0  0  0  0  0  0  0
   -2.8089   -2.3461    1.8835 C   0  0  0  0  0  0  0  0  0  0  0  0
   -1.0793   -1.0836   -0.2783 H   0  0  0  0  0  0  0  0  0  0  0  0
   -3.1895   -1.9050   -0.1955 H   0  0  0  0  0  0  0  0  0  0  0  0
   -2.5401   -1.8289    2.8118 H   0  0  0  0  0  0  0  0  0  0  0  0
   -3.7568   -2.8661    2.0574 H   0  0  0  0  0  0  0  0  0  0  0  0
   -2.0379   -3.0991    1.6873 H   0  0  0  0  0  0  0  0  0  0  0  0
   -5.2566   -0.7635    0.8201 N   0  0  0  0  0  0  0  0  0  0  0  0
   -6.4219    0.0608    1.0407 C   0  0  0  0  0  0  0  0  0  0  0  0
   -5.4024   -1.7079    0.4756 H   0  0  0  0  0  0  0  0  0  0  0  0
   -6.7786   -0.0761    2.0722 H   0  0  0  0  0  0  0  0  0  0  0  0
   -6.1593    1.1169    0.8808 H   0  0  0  0  0  0  0  0  0  0  0  0
   -7.2154   -0.2304    0.3368 H   0  0  0  0  0  0  0  0  0  0  0  0
  1  3  1  0  0  0  0
  1  7  1  0  0  0  0
  1  2  2  0  0  0  0
 37 38  1  0  0  0  0
 38 46  1  0  0  0  0
 38 39  2  0  0  0  0
  8  9  1  0  0  0  0
  9 17  1  0  0  0  0
  9 10  2  0  0  0  0
 18 19  1  0  0  0  0
 19 36  1  0  0  0  0
 19 20  2  0  0  0  0
 37 40  1  0  0  0  0
  8 11  1  0  0  0  0
 22 23  1  0  0  0  0
 22 24  1  0  0  0  0
 46 47  1  0  0  0  0
 18 21  1  0  0  0  0
 21 22  1  0  0  0  0
 36 37  1  0  0  0  0
  7  8  1  0  0  0  0
 17 18  1  0  0  0  0
  3  4  1  0  0  0  0
  3  5  1  0  0  0  0
  3  6  1  0  0  0  0
 40 43  1  0  0  0  0
 40 44  1  0  0  0  0
 40 45  1  0  0  0  0
 11 14  1  0  0  0  0
 11 15  1  0  0  0  0
 11 16  1  0  0  0  0
 23 30  1  0  0  0  0
 23 31  1  0  0  0  0
 23 32  1  0  0  0  0
 24 33  1  0  0  0  0
 24 34  1  0  0  0  0
 24 35  1  0  0  0  0
 47 49  1  0  0  0  0
 47 50  1  0  0  0  0
 47 51  1  0  0  0  0
 21 27  1  0  0  0  0
 21 28  1  0  0  0  0
 37 42  1  0  0  0  0
  8 13  1  0  0  0  0
 18 26  1  0  0  0  0
 22 29  1  0  0  0  0
 46 48  1  0  0  0  0
  7 12  1  0  0  0  0
 36 41  1  0  0  0  0
 17 25  1  0  0  0  0
M  END
$$$$

  -OEChem-05262214473D

 51 50  0     1  0  0  0  0  0999 V2000
    3.4018   -1.2440   -3.0186 C   0  0  0  0  0  0  0  0  0  0  0  0
    3.2697   -2.0909   -2.1427 O   0  0  0  0  0  0  0  0  0  0  0  0
    4.6845   -1.1645   -3.7779 C   0  0  0  0  0  0  0  0  0  0  0  0
    5.4123   -0.4862   -3.3041 H   0  0  0  0  0  0  0  0  0  0  0  0
    5.1949   -2.1387   -3.8443 H   0  0  0  0  0  0  0  0  0  0  0  0
    4.5953   -0.8128   -4.8182 H   0  0  0  0  0  0  0  0  0  0  0  0
    2.4540   -0.3103   -3.4040 N   0  0  0  0  0  0  0  0  0  0  0  0
    1.1494   -0.2128   -2.8039 C   0  0  2  0  0  0  0  0  0  0  0  0
    1.3350    0.0367   -1.3130 C   0  0  0  0  0  0  0  0  0  0  0  0
    2.3625   -0.2586   -0.7063 O   0  0  0  0  0  0  0  0  0  0  0  0
    0.3331   -1.4728   -3.0467 C   0  0  0  0  0  0  0  0  0  0  0  0
    2.6924    0.3404   -4.1502 H   0  0  0  0  0  0  0  0  0  0  0  0
    0.6550    0.6514   -3.2607 H   0  0  0  0  0  0  0  0  0  0  0  0
    0.8129   -2.3494   -2.5963 H   0  0  0  0  0  0  0  0  0  0  0  0
   -0.6690   -1.3857   -2.6142 H   0  0  0  0  0  0  0  0  0  0  0  0
    0.2259   -1.6670   -4.1194 H   0  0  0  0  0  0  0  0  0  0  0  0
    0.2019    0.5893   -0.7269 N   0  0  0  0  0  0  0  0  0  0  0  0
    0.1242    0.9059    0.6756 C   0  0  2  0  0  0  0  0  0  0  0  0
   -1.2252    0.4000    1.1760 C   0  0  0  0  0  0  0  0  0  0  0  0
   -1.9794    1.0796    1.8692 O   0  0  0  0  0  0  0  0  0  0  0  0
    0.2572    2.4112    0.9392 C   0  0  0  0  0  0  0  0  0  0  0  0
    1.6353    3.0097    0.5907 C   0  0  0  0  0  0  0  0  0  0  0  0
    1.5936    4.5315    0.7552 C   0  0  0  0  0  0  0  0  0  0  0  0
    2.0816    2.6572   -0.8289 C   0  0  0  0  0  0  0  0  0  0  0  0
   -0.5975    0.8179   -1.3140 H   0  0  0  0  0  0  0  0  0  0  0  0
    0.9185    0.3420    1.1749 H   0  0  0  0  0  0  0  0  0  0  0  0
    0.0481    2.6051    2.0007 H   0  0  0  0  0  0  0  0  0  0  0  0
   -0.5194    2.9488    0.3790 H   0  0  0  0  0  0  0  0  0  0  0  0
    2.3838    2.6222    1.2926 H   0  0  0  0  0  0  0  0  0  0  0  0
    0.8593    4.9766    0.0754 H   0  0  0  0  0  0  0  0  0  0  0  0
    2.5689    4.9745    0.5270 H   0  0  0  0  0  0  0  0  0  0  0  0
    1.3234    4.8142    1.7784 H   0  0  0  0  0  0  0  0  0  0  0  0
    1.3656    3.0232   -1.5726 H   0  0  0  0  0  0  0  0  0  0  0  0
    3.0568    3.1038   -1.0512 H   0  0  0  0  0  0  0  0  0  0  0  0
    2.1857    1.5758   -0.9574 H   0  0  0  0  0  0  0  0  0  0  0  0
   -1.5060   -0.8782    0.7136 N   0  0  0  0  0  0  0  0  0  0  0  0
   -2.7319   -1.5800    1.0192 C   0  0  2  0  0  0  0  0  0  0  0  0
   -3.8745   -0.5743    0.9699 C   0  0  0  0  0  0  0  0  0  0  0  0
   -3.7093    0.6359    1.1090 O   0  0  0  0  0  0  0  0  0  0  0  0
   -2.6592   -2.2538    2.3806 C   0  0  0  0  0  0  0  0  0  0  0  0
   -0.8301   -1.3523    0.1221 H   0  0  0  0  0  0  0  0  0  0  0  0
   -2.8710   -2.3304    0.2333 H   0  0  0  0  0  0  0  0  0  0  0  0
   -2.5199   -1.5177    3.1808 H   0  0  0  0  0  0  0  0  0  0  0  0
   -3.5777   -2.8087    2.5983 H   0  0  0  0  0  0  0  0  0  0  0  0
   -1.8187   -2.9549    2.4241 H   0  0  0  0  0  0  0  0  0  0  0  0
   -5.1055   -1.1910    0.7955 N   0  0  0  0  0  0  0  0  0  0  0  0
   -6.3450   -0.4526    0.7291 C   0  0  0  0  0  0  0  0  0  0  0  0
   -5.1465   -2.1981    0.6701 H   0  0  0  0  0  0  0  0  0  0  0  0
   -6.7875   -0.3868    1.7340 H   0  0  0  0  0  0  0  0  0  0  0  0
   -6.1482    0.5605    0.3483 H   0  0  0  0  0  0  0  0  0  0  0  0
   -7.0434   -0.9688    0.0541 H   0  0  0  0  0  0  0  0  0  0  0  0
  1  3  1  0  0  0  0
  1  7  1  0  0  0  0
  1  2  2  0  0  0  0
 37 38  1  0  0  0  0
 38 46  1  0  0  0  0
 38 39  2  0  0  0  0
  8  9  1  0  0  0  0
  9 17  1  0  0  0  0
  9 10  2  0  0  0  0
 18 19  1  0  0  0  0
 19 36  1  0  0  0  0
 19 20  2  0  0  0  0
 37 40  1  0  0  0  0
  8 11  1  0  0  0  0
 22 23  1  0  0  0  0
 22 24  1  0  0  0  0
 46 47  1  0  0  0  0
 18 21  1  0  0  0  0
 21 22  1  0  0  0  0
 36 37  1  0  0  0  0
  7  8  1  0  0  0  0
 17 18  1  0  0  0  0
  3  4  1  0  0  0  0
  3  5  1  0  0  0  0
  3  6  1  0  0  0  0
 40 43  1  0  0  0  0
 40 44  1  0  0  0  0
 40 45  1  0  0  0  0
 11 14  1  0  0  0  0
 11 15  1  0  0  0  0
 11 16  1  0  0  0  0
 23 30  1  0  0  0  0
 23 31  1  0  0  0  0
 23 32  1  0  0  0  0
 24 33  1  0  0  0  0
 24 34  1  0  0  0  0
 24 35  1  0  0  0  0
 47 49  1  0  0  0  0
 47 50  1  0  0  0  0
 47 51  1  0  0  0  0
 21 27  1  0  0  0  0
 21 28  1  0  0  0  0
 37 42  1  0  0  0  0
  8 13  1  0  0  0  0
 18 26  1  0  0  0  0
 22 29  1  0  0  0  0
 46 48  1  0  0  0  0
  7 12  1  0  0  0  0
 36 41  1  0  0  0  0
 17 25  1  0  0  0  0
M  END
$$$$

  -OEChem-05262214473D

 51 50  0     1  0  0  0  0  0999 V2000
    3.4018   -1.2440   -3.0186 C   0  0  0  0  0  0  0  0  0  0  0  0
    3.2697   -2.0909   -2.1427 O   0  0  0  0  0  0  0  0  0  0  0  0
    4.6845   -1.1645   -3.7779 C   0  0  0  0  0  0  0  0  0  0  0  0
    5.4123   -0.4862   -3.3041 H   0  0  0  0  0  0  0  0  0  0  0  0
    5.1949   -2.1387   -3.8443 H   0  0  0  0  0  0  0  0  0  0  0  0
    4.5953   -0.8128   -4.8182 H   0  0  0  0  0  0  0  0  0  0  0  0
    2.4540   -0.3103   -3.4040 N   0  0  0  0  0  0  0  0  0  0  0  0
    1.1494   -0.2128   -2.8039 C   0  0  2  0  0  0  0  0  0  0  0  0
    1.3350    0.0367   -1.3130 C   0  0  0  0  0  0  0  0  0  0  0  0
    2.3625   -0.2586   -0.7063 O   0  0  0  0  0  0  0  0  0  0  0  0
    0.3331   -1.4728   -3.0467 C   0  0  0  0  0  0  0  0  0  0  0  0
    2.6924    0.3404   -4.1502 H   0  0  0  0  0  0  0  0  0  0  0  0
    0.6550    0.6514   -3.2607 H   0  0  0  0  0  0  0  0  0  0  0  0
    0.8129   -2.3494   -2.5963 H   0  0  0  0  0  0  0  0  0  0  0  0
   -0.6690   -1.3857   -2.6142 H   0  0  0  0  0  0  0  0  0  0  0  0
    0.2259   -1.6670   -4.1194 H   0  0  0  0  0  0  0  0  0  0  0  0
    0.2019    0.5893   -0.7269 N   0  0  0  0  0  0  0  0  0  0  0  0
    0.1242    0.9059    0.6756 C   0  0  2  0  0  0  0  0  0  0  0  0
   -1.2252    0.4000    1.1760 C   0  0  0  0  0  0  0  0  0  0  0  0
   -2.0911    1.1435    1.6328 O   0  0  0  0  0  0  0  0  0  0  0  0
    0.2572    2.4112    0.9392 C   0  0  0  0  0  0  0  0  0  0  0  0
    1.6353    3.0097    0.5907 C   0  0  0  0  0  0  0  0  0  0  0  0
    1.5936    4.5315    0.7552 C   0  0  0  0  0  0  0  0  0  0  0  0
    2.0816    2.6572   -0.8289 C   0  0  0  0  0  0  0  0  0  0  0  0
   -0.5975    0.8179   -1.3140 H   0  0  0  0  0  0  0  0  0  0  0  0
    0.9185    0.3420    1.1749 H   0  0  0  0  0  0  0  0  0  0  0  0
    0.0481    2.6051    2.0007 H   0  0  0  0  0  0  0  0  0  0  0  0
   -0.5194    2.9488    0.3790 H   0  0  0  0  0  0  0  0  0  0  0  0
    2.3838    2.6222    1.2926 H   0  0  0  0  0  0  0  0  0  0  0  0
    0.8593    4.9766    0.0754 H   0  0  0  0  0  0  0  0  0  0  0  0
    2.5689    4.9745    0.5270 H   0  0  0  0  0  0  0  0  0  0  0  0
    1.3234    4.8142    1.7784 H   0  0  0  0  0  0  0  0  0  0  0  0
    1.3656    3.0232   -1.5726 H   0  0  0  0  0  0  0  0  0  0  0  0
    3.0568    3.1038   -1.0512 H   0  0  0  0  0  0  0  0  0  0  0  0
    2.1857    1.5758   -0.9574 H   0  0  0  0  0  0  0  0  0  0  0  0
   -1.3640   -0.9702    1.0038 N   0  0  0  0  0  0  0  0  0  0  0  0
   -2.5574   -1.6983    1.3702 C   0  0  2  0  0  0  0  0  0  0  0  0
   -3.7621   -0.8425    1.0017 C   0  0  0  0  0  0  0  0  0  0  0  0
   -3.7022    0.3779    0.8675 O   0  0  0  0  0  0  0  0  0  0  0  0
   -2.5650   -2.0381    2.8525 C   0  0  0  0  0  0  0  0  0  0  0  0
   -0.6009   -1.4990    0.5919 H   0  0  0  0  0  0  0  0  0  0  0  0
   -2.5640   -2.6161    0.7723 H   0  0  0  0  0  0  0  0  0  0  0  0
   -2.5585   -1.1308    3.4676 H   0  0  0  0  0  0  0  0  0  0  0  0
   -3.4560   -2.6143    3.1229 H   0  0  0  0  0  0  0  0  0  0  0  0
   -1.6825   -2.6284    3.1216 H   0  0  0  0  0  0  0  0  0  0  0  0
   -4.9211   -1.5967    0.8826 N   0  0  0  0  0  0  0  0  0  0  0  0
   -6.2004   -1.0132    0.5523 C   0  0  0  0  0  0  0  0  0  0  0  0
   -4.8744   -2.6054    0.9922 H   0  0  0  0  0  0  0  0  0  0  0  0
   -6.7407   -0.7651    1.4778 H   0  0  0  0  0  0  0  0  0  0  0  0
   -6.0445   -0.0980   -0.0377 H   0  0  0  0  0  0  0  0  0  0  0  0
   -6.7904   -1.7321   -0.0351 H   0  0  0  0  0  0  0  0  0  0  0  0
  1  3  1  0  0  0  0
  1  7  1  0  0  0  0
  1  2  2  0  0  0  0
 37 38  1  0  0  0  0
 38 46  1  0  0  0  0
 38 39  2  0  0  0  0
  8  9  1  0  0  0  0
  9 17  1  0  0  0  0
  9 10  2  0  0  0  0
 18 19  1  0  0  0  0
 19 36  1  0  0  0  0
 19 20  2  0  0  0  0
 37 40  1  0  0  0  0
  8 11  1  0  0  0  0
 22 23  1  0  0  0  0
 22 24  1  0  0  0  0
 46 47  1  0  0  0  0
 18 21  1  0  0  0  0
 21 22  1  0  0  0  0
 36 37  1  0  0  0  0
  7  8  1  0  0  0  0
 17 18  1  0  0  0  0
  3  4  1  0  0  0  0
  3  5  1  0  0  0  0
  3  6  1  0  0  0  0
 40 43  1  0  0  0  0
 40 44  1  0  0  0  0
 40 45  1  0  0  0  0
 11 14  1  0  0  0  0
 11 15  1  0  0  0  0
 11 16  1  0  0  0  0
 23 30  1  0  0  0  0
 23 31  1  0  0  0  0
 23 32  1  0  0  0  0
 24 33  1  0  0  0  0
 24 34  1  0  0  0  0
 24 35  1  0  0  0  0
 47 49  1  0  0  0  0
 47 50  1  0  0  0  0
 47 51  1  0  0  0  0
 21 27  1  0  0  0  0
 21 28  1  0  0  0  0
 37 42  1  0  0  0  0
  8 13  1  0  0  0  0
 18 26  1  0  0  0  0
 22 29  1  0  0  0  0
 46 48  1  0  0  0  0
  7 12  1  0  0  0  0
 36 41  1  0  0  0  0
 17 25  1  0  0  0  0
M  END
$$$$

  -OEChem-05262214473D

 51 50  0     1  0  0  0  0  0999 V2000
    3.4018   -1.2440   -3.0186 C   0  0  0  0  0  0  0  0  0  0  0  0
    3.2697   -2.0909   -2.1427 O   0  0  0  0  0  0  0  0  0  0  0  0
    4.6845   -1.1645   -3.7779 C   0  0  0  0  0  0  0  0  0  0  0  0
    5.4123   -0.4862   -3.3041 H   0  0  0  0  0  0  0  0  0  0  0  0
    5.1949   -2.1387   -3.8443 H   0  0  0  0  0  0  0  0  0  0  0  0
    4.5953   -0.8128   -4.8182 H   0  0  0  0  0  0  0  0  0  0  0  0
    2.4540   -0.3103   -3.4040 N   0  0  0  0  0  0  0  0  0  0  0  0
    1.1494   -0.2128   -2.8039 C   0  0  2  0  0  0  0  0  0  0  0  0
    1.3350    0.0367   -1.3130 C   0  0  0  0  0  0  0  0  0  0  0  0
    2.3625   -0.2586   -0.7063 O   0  0  0  0  0  0  0  0  0  0  0  0
    0.3331   -1.4728   -3.0467 C   0  0  0  0  0  0  0  0  0  0  0  0
    2.6924    0.3404   -4.1502 H   0  0  0  0  0  0  0  0  0  0  0  0
    0.6550    0.6514   -3.2607 H   0  0  0  0  0  0  0  0  0  0  0  0
    0.8129   -2.3494   -2.5963 H   0  0  0  0  0  0  0  0  0  0  0  0
   -0.6690   -1.3857   -2.6142 H   0  0  0  0  0  0  0  0  0  0  0  0
    0.2259   -1.6670   -4.1194 H   0  0  0  0  0  0  0  0  0  0  0  0
    0.2019    0.5893   -0.7269 N   0  0  0  0  0  0  0  0  0  0  0  0
    0.1242    0.9059    0.6756 C   0  0  2  0  0  0  0  0  0  0  0  0
   -1.2252    0.4000    1.1760 C   0  0  0  0  0  0  0  0  0  0  0  0
   -2.1841    1.1417    1.3802 O   0  0  0  0  0  0  0  0  0  0  0  0
    0.2572    2.4112    0.9392 C   0  0  0  0  0  0  0  0  0  0  0  0
    1.6353    3.0097    0.5907 C   0  0  0  0  0  0  0  0  0  0  0  0
    1.5936    4.5315    0.7552 C   0  0  0  0  0  0  0  0  0  0  0  0
    2.0816    2.6572   -0.8289 C   0  0  0  0  0  0  0  0  0  0  0  0
   -0.5975    0.8179   -1.3140 H   0  0  0  0  0  0  0  0  0  0  0  0
    0.9185    0.3420    1.1749 H   0  0  0  0  0  0  0  0  0  0  0  0
    0.0481    2.6051    2.0007 H   0  0  0  0  0  0  0  0  0  0  0  0
   -0.5194    2.9488    0.3790 H   0  0  0  0  0  0  0  0  0  0  0  0
    2.3838    2.6222    1.2926 H   0  0  0  0  0  0  0  0  0  0  0  0
    0.8593    4.9766    0.0754 H   0  0  0  0  0  0  0  0  0  0  0  0
    2.5689    4.9745    0.5270 H   0  0  0  0  0  0  0  0  0  0  0  0
    1.3234    4.8142    1.7784 H   0  0  0  0  0  0  0  0  0  0  0  0
    1.3656    3.0232   -1.5726 H   0  0  0  0  0  0  0  0  0  0  0  0
    3.0568    3.1038   -1.0512 H   0  0  0  0  0  0  0  0  0  0  0  0
    2.1857    1.5758   -0.9574 H   0  0  0  0  0  0  0  0  0  0  0  0
   -1.2438   -0.9806    1.3172 N   0  0  0  0  0  0  0  0  0  0  0  0
   -2.4089   -1.7173    1.7513 C   0  0  2  0  0  0  0  0  0  0  0  0
   -3.6335   -1.0848    1.1034 C   0  0  0  0  0  0  0  0  0  0  0  0
   -3.6526    0.0741    0.6940 O   0  0  0  0  0  0  0  0  0  0  0  0
   -2.5329   -1.7137    3.2670 C   0  0  0  0  0  0  0  0  0  0  0  0
   -0.4073   -1.5138    1.0989 H   0  0  0  0  0  0  0  0  0  0  0  0
   -2.2895   -2.7426    1.3846 H   0  0  0  0  0  0  0  0  0  0  0  0
   -2.6533   -0.6948    3.6529 H   0  0  0  0  0  0  0  0  0  0  0  0
   -3.4000   -2.2961    3.5956 H   0  0  0  0  0  0  0  0  0  0  0  0
   -1.6384   -2.1417    3.7323 H   0  0  0  0  0  0  0  0  0  0  0  0
   -4.7161   -1.9529    1.0754 N   0  0  0  0  0  0  0  0  0  0  0  0
   -5.9979   -1.5830    0.5223 C   0  0  0  0  0  0  0  0  0  0  0  0
   -4.6046   -2.9019    1.4199 H   0  0  0  0  0  0  0  0  0  0  0  0
   -6.6414   -1.1852    1.3209 H   0  0  0  0  0  0  0  0  0  0  0  0
   -5.8553   -0.8136   -0.2508 H   0  0  0  0  0  0  0  0  0  0  0  0
   -6.4735   -2.4684    0.0752 H   0  0  0  0  0  0  0  0  0  0  0  0
  1  3  1  0  0  0  0
  1  7  1  0  0  0  0
  1  2  2  0  0  0  0
 37 38  1  0  0  0  0
 38 46  1  0  0  0  0
 38 39  2  0  0  0  0
  8  9  1  0  0  0  0
  9 17  1  0  0  0  0
  9 10  2  0  0  0  0
 18 19  1  0  0  0  0
 19 36  1  0  0  0  0
 19 20  2  0  0  0  0
 37 40  1  0  0  0  0
  8 11  1  0  0  0  0
 22 23  1  0  0  0  0
 22 24  1  0  0  0  0
 46 47  1  0  0  0  0
 18 21  1  0  0  0  0
 21 22  1  0  0  0  0
 36 37  1  0  0  0  0
  7  8  1  0  0  0  0
 17 18  1  0  0  0  0
  3  4  1  0  0  0  0
  3  5  1  0  0  0  0
  3  6  1  0  0  0  0
 40 43  1  0  0  0  0
 40 44  1  0  0  0  0
 40 45  1  0  0  0  0
 11 14  1  0  0  0  0
 11 15  1  0  0  0  0
 11 16  1  0  0  0  0
 23 30  1  0  0  0  0
 23 31  1  0  0  0  0
 23 32  1  0  0  0  0
 24 33  1  0  0  0  0
 24 34  1  0  0  0  0
 24 35  1  0  0  0  0
 47 49  1  0  0  0  0
 47 50  1  0  0  0  0
 47 51  1  0  0  0  0
 21 27  1  0  0  0  0
 21 28  1  0  0  0  0
 37 42  1  0  0  0  0
  8 13  1  0  0  0  0
 18 26  1  0  0  0  0
 22 29  1  0  0  0  0
 46 48  1  0  0  0  0
  7 12  1  0  0  0  0
 36 41  1  0  0  0  0
 17 25  1  0  0  0  0
M  END
$$$$

  -OEChem-05262214473D

 51 50  0     1  0  0  0  0  0999 V2000
    3.4018   -1.2440   -3.0186 C   0  0  0  0  0  0  0  0  0  0  0  0
    3.2697   -2.0909   -2.1427 O   0  0  0  0  0  0  0  0  0  0  0  0
    4.6845   -1.1645   -3.7779 C   0  0  0  0  0  0  0  0  0  0  0  0
    5.4123   -0.4862   -3.3041 H   0  0  0  0  0  0  0  0  0  0  0  0
    5.1949   -2.1387   -3.8443 H   0  0  0  0  0  0  0  0  0  0  0  0
    4.5953   -0.8128   -4.8182 H   0  0  0  0  0  0  0  0  0  0  0  0
    2.4540   -0.3103   -3.4040 N   0  0  0  0  0  0  0  0  0  0  0  0
    1.1494   -0.2128   -2.8039 C   0  0  2  0  0  0  0  0  0  0  0  0
    1.3350    0.0367   -1.3130 C   0  0  0  0  0  0  0  0  0  0  0  0
    2.3625   -0.2586   -0.7063 O   0  0  0  0  0  0  0  0  0  0  0  0
    0.3331   -1.4728   -3.0467 C   0  0  0  0  0  0  0  0  0  0  0  0
    2.6924    0.3404   -4.1502 H   0  0  0  0  0  0  0  0  0  0  0  0
    0.6550    0.6514   -3.2607 H   0  0  0  0  0  0  0  0  0  0  0  0
    0.8129   -2.3494   -2.5963 H   0  0  0  0  0  0  0  0  0  0  0  0
   -0.6690   -1.3857   -2.6142 H   0  0  0  0  0  0  0  0  0  0  0  0
    0.2259   -1.6670   -4.1194 H   0  0  0  0  0  0  0  0  0  0  0  0
    0.2019    0.5893   -0.7269 N   0  0  0  0  0  0  0  0  0  0  0  0
    0.1242    0.9059    0.6756 C   0  0  2  0  0  0  0  0  0  0  0  0
   -1.2252    0.4000    1.1760 C   0  0  0  0  0  0  0  0  0  0  0  0
   -2.2521    1.0742    1.1286 O   0  0  0  0  0  0  0  0  0  0  0  0
    0.2572    2.4112    0.9392 C   0  0  0  0  0  0  0  0  0  0  0  0
    1.6353    3.0097    0.5907 C   0  0  0  0  0  0  0  0  0  0  0  0
    1.5936    4.5315    0.7552 C   0  0  0  0  0  0  0  0  0  0  0  0
    2.0816    2.6572   -0.8289 C   0  0  0  0  0  0  0  0  0  0  0  0
   -0.5975    0.8179   -1.3140 H   0  0  0  0  0  0  0  0  0  0  0  0
    0.9185    0.3420    1.1749 H   0  0  0  0  0  0  0  0  0  0  0  0
    0.0481    2.6051    2.0007 H   0  0  0  0  0  0  0  0  0  0  0  0
   -0.5194    2.9488    0.3790 H   0  0  0  0  0  0  0  0  0  0  0  0
    2.3838    2.6222    1.2926 H   0  0  0  0  0  0  0  0  0  0  0  0
    0.8593    4.9766    0.0754 H   0  0  0  0  0  0  0  0  0  0  0  0
    2.5689    4.9745    0.5270 H   0  0  0  0  0  0  0  0  0  0  0  0
    1.3234    4.8142    1.7784 H   0  0  0  0  0  0  0  0  0  0  0  0
    1.3656    3.0232   -1.5726 H   0  0  0  0  0  0  0  0  0  0  0  0
    3.0568    3.1038   -1.0512 H   0  0  0  0  0  0  0  0  0  0  0  0
    2.1857    1.5758   -0.9574 H   0  0  0  0  0  0  0  0  0  0  0  0
   -1.1538   -0.9087    1.6327 N   0  0  0  0  0  0  0  0  0  0  0  0
   -2.2966   -1.6359    2.1365 C   0  0  2  0  0  0  0  0  0  0  0  0
   -3.4975   -1.2847    1.2682 C   0  0  0  0  0  0  0  0  0  0  0  0
   -3.5641   -0.2550    0.6001 O   0  0  0  0  0  0  0  0  0  0  0  0
   -2.5650   -1.3027    3.5959 C   0  0  0  0  0  0  0  0  0  0  0  0
   -0.2626   -1.3955    1.6086 H   0  0  0  0  0  0  0  0  0  0  0  0
   -2.0662   -2.7013    2.0286 H   0  0  0  0  0  0  0  0  0  0  0  0
   -2.7978   -0.2392    3.7238 H   0  0  0  0  0  0  0  0  0  0  0  0
   -3.4135   -1.8757    3.9841 H   0  0  0  0  0  0  0  0  0  0  0  0
   -1.6896   -1.5281    4.2145 H   0  0  0  0  0  0  0  0  0  0  0  0
   -4.5043   -2.2355    1.3608 N   0  0  0  0  0  0  0  0  0  0  0  0
   -5.7514   -2.1230    0.6411 C   0  0  0  0  0  0  0  0  0  0  0  0
   -4.3555   -3.0675    1.9241 H   0  0  0  0  0  0  0  0  0  0  0  0
   -6.4964   -1.6185    1.2740 H   0  0  0  0  0  0  0  0  0  0  0  0
   -5.5935   -1.5376   -0.2767 H   0  0  0  0  0  0  0  0  0  0  0  0
   -6.1144   -3.1274    0.3774 H   0  0  0  0  0  0  0  0  0  0  0  0
  1  3  1  0  0  0  0
  1  7  1  0  0  0  0
  1  2  2  0  0  0  0
 37 38  1  0  0  0  0
 38 46  1  0  0  0  0
 38 39  2  0  0  0  0
  8  9  1  0  0  0  0
  9 17  1  0  0  0  0
  9 10  2  0  0  0  0
 18 19  1  0  0  0  0
 19 36  1  0  0  0  0
 19 20  2  0  0  0  0
 37 40  1  0  0  0  0
  8 11  1  0  0  0  0
 22 23  1  0  0  0  0
 22 24  1  0  0  0  0
 46 47  1  0  0  0  0
 18 21  1  0  0  0  0
 21 22  1  0  0  0  0
 36 37  1  0  0  0  0
  7  8  1  0  0  0  0
 17 18  1  0  0  0  0
  3  4  1  0  0  0  0
  3  5  1  0  0  0  0
  3  6  1  0  0  0  0
 40 43  1  0  0  0  0
 40 44  1  0  0  0  0
 40 45  1  0  0  0  0
 11 14  1  0  0  0  0
 11 15  1  0  0  0  0
 11 16  1  0  0  0  0
 23 30  1  0  0  0  0
 23 31  1  0  0  0  0
 23 32  1  0  0  0  0
 24 33  1  0  0  0  0
 24 34  1  0  0  0  0
 24 35  1  0  0  0  0
 47 49  1  0  0  0  0
 47 50  1  0  0  0  0
 47 51  1  0  0  0  0
 21 27  1  0  0  0  0
 21 28  1  0  0  0  0
 37 42  1  0  0  0  0
  8 13  1  0  0  0  0
 18 26  1  0  0  0  0
 22 29  1  0  0  0  0
 46 48  1  0  0  0  0
  7 12  1  0  0  0  0
 36 41  1  0  0  0  0
 17 25  1  0  0  0  0
M  END
$$$$

  -OEChem-05262214473D

 51 50  0     1  0  0  0  0  0999 V2000
    3.4018   -1.2440   -3.0186 C   0  0  0  0  0  0  0  0  0  0  0  0
    3.2697   -2.0909   -2.1427 O   0  0  0  0  0  0  0  0  0  0  0  0
    4.6845   -1.1645   -3.7779 C   0  0  0  0  0  0  0  0  0  0  0  0
    5.4123   -0.4862   -3.3041 H   0  0  0  0  0  0  0  0  0  0  0  0
    5.1949   -2.1387   -3.8443 H   0  0  0  0  0  0  0  0  0  0  0  0
    4.5953   -0.8128   -4.8182 H   0  0  0  0  0  0  0  0  0  0  0  0
    2.4540   -0.3103   -3.4040 N   0  0  0  0  0  0  0  0  0  0  0  0
    1.1494   -0.2128   -2.8039 C   0  0  2  0  0  0  0  0  0  0  0  0
    1.3350    0.0367   -1.3130 C   0  0  0  0  0  0  0  0  0  0  0  0
    2.3625   -0.2586   -0.7063 O   0  0  0  0  0  0  0  0  0  0  0  0
    0.3331   -1.4728   -3.0467 C   0  0  0  0  0  0  0  0  0  0  0  0
    2.6924    0.3404   -4.1502 H   0  0  0  0  0  0  0  0  0  0  0  0
    0.6550    0.6514   -3.2607 H   0  0  0  0  0  0  0  0  0  0  0  0
    0.8129   -2.3494   -2.5963 H   0  0  0  0  0  0  0  0  0  0  0  0
   -0.6690   -1.3857   -2.6142 H   0  0  0  0  0  0  0  0  0  0  0  0
    0.2259   -1.6670   -4.1194 H   0  0  0  0  0  0  0  0  0  0  0  0
    0.2019    0.5893   -0.7269 N   0  0  0  0  0  0  0  0  0  0  0  0
    0.1242    0.9059    0.6756 C   0  0  2  0  0  0  0  0  0  0  0  0
   -1.2252    0.4000    1.1760 C   0  0  0  0  0  0  0  0  0  0  0  0
   -2.2904    0.9457    0.8953 O   0  0  0  0  0  0  0  0  0  0  0  0
    0.2572    2.4112    0.9392 C   0  0  0  0  0  0  0  0  0  0  0  0
    1.6353    3.0097    0.5907 C   0  0  0  0  0  0  0  0  0  0  0  0
    1.5936    4.5315    0.7552 C   0  0  0  0  0  0  0  0  0  0  0  0
    2.0816    2.6572   -0.8289 C   0  0  0  0  0  0  0  0  0  0  0  0
   -0.5975    0.8179   -1.3140 H   0  0  0  0  0  0  0  0  0  0  0  0
    0.9185    0.3420    1.1749 H   0  0  0  0  0  0  0  0  0  0  0  0
    0.0481    2.6051    2.0007 H   0  0  0  0  0  0  0  0  0  0  0  0
   -0.5194    2.9488    0.3790 H   0  0  0  0  0  0  0  0  0  0  0  0
    2.3838    2.6222    1.2926 H   0  0  0  0  0  0  0  0  0  0  0  0
    0.8593    4.9766    0.0754 H   0  0  0  0  0  0  0  0  0  0  0  0
    2.5689    4.9745    0.5270 H   0  0  0  0  0  0  0  0  0  0  0  0
    1.3234    4.8142    1.7784 H   0  0  0  0  0  0  0  0  0  0  0  0
    1.3656    3.0232   -1.5726 H   0  0  0  0  0  0  0  0  0  0  0  0
    3.0568    3.1038   -1.0512 H   0  0  0  0  0  0  0  0  0  0  0  0
    2.1857    1.5758   -0.9574 H   0  0  0  0  0  0  0  0  0  0  0  0
   -1.1000   -0.7593    1.9288 N   0  0  0  0  0  0  0  0  0  0  0  0
   -2.2281   -1.4594    2.4996 C   0  0  2  0  0  0  0  0  0  0  0  0
   -3.3633   -1.4285    1.4848 C   0  0  0  0  0  0  0  0  0  0  0  0
   -3.4425   -0.5868    0.5924 O   0  0  0  0  0  0  0  0  0  0  0  0
   -2.6591   -0.8332    3.8167 C   0  0  0  0  0  0  0  0  0  0  0  0
   -0.1767   -1.1522    2.0862 H   0  0  0  0  0  0  0  0  0  0  0  0
   -1.9092   -2.4951    2.6603 H   0  0  0  0  0  0  0  0  0  0  0  0
   -2.9821    0.2048    3.6757 H   0  0  0  0  0  0  0  0  0  0  0  0
   -3.4955   -1.3819    4.2620 H   0  0  0  0  0  0  0  0  0  0  0  0
   -1.8325   -0.8293    4.5354 H   0  0  0  0  0  0  0  0  0  0  0  0
   -4.3002   -2.4251    1.7193 N   0  0  0  0  0  0  0  0  0  0  0  0
   -5.4777   -2.5965    0.9006 C   0  0  0  0  0  0  0  0  0  0  0  0
   -4.1442   -3.0909    2.4704 H   0  0  0  0  0  0  0  0  0  0  0  0
   -6.3155   -2.0355    1.3404 H   0  0  0  0  0  0  0  0  0  0  0  0
   -5.2769   -2.2205   -0.1134 H   0  0  0  0  0  0  0  0  0  0  0  0
   -5.7375   -3.6642    0.8511 H   0  0  0  0  0  0  0  0  0  0  0  0
  1  3  1  0  0  0  0
  1  7  1  0  0  0  0
  1  2  2  0  0  0  0
 37 38  1  0  0  0  0
 38 46  1  0  0  0  0
 38 39  2  0  0  0  0
  8  9  1  0  0  0  0
  9 17  1  0  0  0  0
  9 10  2  0  0  0  0
 18 19  1  0  0  0  0
 19 36  1  0  0  0  0
 19 20  2  0  0  0  0
 37 40  1  0  0  0  0
  8 11  1  0  0  0  0
 22 23  1  0  0  0  0
 22 24  1  0  0  0  0
 46 47  1  0  0  0  0
 18 21  1  0  0  0  0
 21 22  1  0  0  0  0
 36 37  1  0  0  0  0
  7  8  1  0  0  0  0
 17 18  1  0  0  0  0
  3  4  1  0  0  0  0
  3  5  1  0  0  0  0
  3  6  1  0  0  0  0
 40 43  1  0  0  0  0
 40 44  1  0  0  0  0
 40 45  1  0  0  0  0
 11 14  1  0  0  0  0
 11 15  1  0  0  0  0
 11 16  1  0  0  0  0
 23 30  1  0  0  0  0
 23 31  1  0  0  0  0
 23 32  1  0  0  0  0
 24 33  1  0  0  0  0
 24 34  1  0  0  0  0
 24 35  1  0  0  0  0
 47 49  1  0  0  0  0
 47 50  1  0  0  0  0
 47 51  1  0  0  0  0
 21 27  1  0  0  0  0
 21 28  1  0  0  0  0
 37 42  1  0  0  0  0
  8 13  1  0  0  0  0
 18 26  1  0  0  0  0
 22 29  1  0  0  0  0
 46 48  1  0  0  0  0
  7 12  1  0  0  0  0
 36 41  1  0  0  0  0
 17 25  1  0  0  0  0
M  END
$$$$

  -OEChem-05262214473D

 51 50  0     1  0  0  0  0  0999 V2000
    3.4018   -1.2440   -3.0186 C   0  0  0  0  0  0  0  0  0  0  0  0
    3.2697   -2.0909   -2.1427 O   0  0  0  0  0  0  0  0  0  0  0  0
    4.6845   -1.1645   -3.7779 C   0  0  0  0  0  0  0  0  0  0  0  0
    5.4123   -0.4862   -3.3041 H   0  0  0  0  0  0  0  0  0  0  0  0
    5.1949   -2.1387   -3.8443 H   0  0  0  0  0  0  0  0  0  0  0  0
    4.5953   -0.8128   -4.8182 H   0  0  0  0  0  0  0  0  0  0  0  0
    2.4540   -0.3103   -3.4040 N   0  0  0  0  0  0  0  0  0  0  0  0
    1.1494   -0.2128   -2.8039 C   0  0  2  0  0  0  0  0  0  0  0  0
    1.3350    0.0367   -1.3130 C   0  0  0  0  0  0  0  0  0  0  0  0
    2.3625   -0.2586   -0.7063 O   0  0  0  0  0  0  0  0  0  0  0  0
    0.3331   -1.4728   -3.0467 C   0  0  0  0  0  0  0  0  0  0  0  0
    2.6924    0.3404   -4.1502 H   0  0  0  0  0  0  0  0  0  0  0  0
    0.6550    0.6514   -3.2607 H   0  0  0  0  0  0  0  0  0  0  0  0
    0.8129   -2.3494   -2.5963 H   0  0  0  0  0  0  0  0  0  0  0  0
   -0.6690   -1.3857   -2.6142 H   0  0  0  0  0  0  0  0  0  0  0  0
    0.2259   -1.6670   -4.1194 H   0  0  0  0  0  0  0  0  0  0  0  0
    0.2019    0.5893   -0.7269 N   0  0  0  0  0  0  0  0  0  0  0  0
    0.1242    0.9059    0.6756 C   0  0  2  0  0  0  0  0  0  0  0  0
   -1.2252    0.4000    1.1760 C   0  0  0  0  0  0  0  0  0  0  0  0
   -2.2965    0.7648    0.6960 O   0  0  0  0  0  0  0  0  0  0  0  0
    0.2572    2.4112    0.9392 C   0  0  0  0  0  0  0  0  0  0  0  0
    1.6353    3.0097    0.5907 C   0  0  0  0  0  0  0  0  0  0  0  0
    1.5936    4.5315    0.7552 C   0  0  0  0  0  0  0  0  0  0  0  0
    2.0816    2.6572   -0.8289 C   0  0  0  0  0  0  0  0  0  0  0  0
   -0.5975    0.8179   -1.3140 H   0  0  0  0  0  0  0  0  0  0  0  0
    0.9185    0.3420    1.1749 H   0  0  0  0  0  0  0  0  0  0  0  0
    0.0481    2.6051    2.0007 H   0  0  0  0  0  0  0  0  0  0  0  0
   -0.5194    2.9488    0.3790 H   0  0  0  0  0  0  0  0  0  0  0  0
    2.3838    2.6222    1.2926 H   0  0  0  0  0  0  0  0  0  0  0  0
    0.8593    4.9766    0.0754 H   0  0  0  0  0  0  0  0  0  0  0  0
    2.5689    4.9745    0.5270 H   0  0  0  0  0  0  0  0  0  0  0  0
    1.3234    4.8142    1.7784 H   0  0  0  0  0  0  0  0  0  0  0  0
    1.3656    3.0232   -1.5726 H   0  0  0  0  0  0  0  0  0  0  0  0
    3.0568    3.1038   -1.0512 H   0  0  0  0  0  0  0  0  0  0  0  0
    2.1857    1.5758   -0.9574 H   0  0  0  0  0  0  0  0  0  0  0  0
   -1.0861   -0.5427    2.1851 N   0  0  0  0  0  0  0  0  0  0  0  0
   -2.2080   -1.2001    2.8158 C   0  0  2  0  0  0  0  0  0  0  0  0
   -3.2400   -1.5064    1.7385 C   0  0  0  0  0  0  0  0  0  0  0  0
   -3.2963   -0.8987    0.6714 O   0  0  0  0  0  0  0  0  0  0  0  0
   -2.8089   -0.3371    3.9144 C   0  0  0  0  0  0  0  0  0  0  0  0
   -0.1553   -0.8007    2.4993 H   0  0  0  0  0  0  0  0  0  0  0  0
   -1.8293   -2.1379    3.2368 H   0  0  0  0  0  0  0  0  0  0  0  0
   -3.1937    0.6070    3.5117 H   0  0  0  0  0  0  0  0  0  0  0  0
   -3.6406   -0.8482    4.4103 H   0  0  0  0  0  0  0  0  0  0  0  0
   -2.0575   -0.0930    4.6731 H   0  0  0  0  0  0  0  0  0  0  0  0
   -4.1178   -2.5089    2.1266 N   0  0  0  0  0  0  0  0  0  0  0  0
   -5.1953   -2.9712    1.2832 C   0  0  0  0  0  0  0  0  0  0  0  0
   -3.9849   -2.9705    3.0215 H   0  0  0  0  0  0  0  0  0  0  0  0
   -6.1110   -2.4076    1.5155 H   0  0  0  0  0  0  0  0  0  0  0  0
   -4.9272   -2.8160    0.2278 H   0  0  0  0  0  0  0  0  0  0  0  0
   -5.3685   -4.0423    1.4639 H   0  0  0  0  0  0  0  0  0  0  0  0
  1  3  1  0  0  0  0
  1  7  1  0  0  0  0
  1  2  2  0  0  0  0
 37 38  1  0  0  0  0
 38 46  1  0  0  0  0
 38 39  2  0  0  0  0
  8  9  1  0  0  0  0
  9 17  1  0  0  0  0
  9 10  2  0  0  0  0
 18 19  1  0  0  0  0
 19 36  1  0  0  0  0
 19 20  2  0  0  0  0
 37 40  1  0  0  0  0
  8 11  1  0  0  0  0
 22 23  1  0  0  0  0
 22 24  1  0  0  0  0
 46 47  1  0  0  0  0
 18 21  1  0  0  0  0
 21 22  1  0  0  0  0
 36 37  1  0  0  0  0
  7  8  1  0  0  0  0
 17 18  1  0  0  0  0
  3  4  1  0  0  0  0
  3  5  1  0  0  0  0
  3  6  1  0  0  0  0
 40 43  1  0  0  0  0
 40 44  1  0  0  0  0
 40 45  1  0  0  0  0
 11 14  1  0  0  0  0
 11 15  1  0  0  0  0
 11 16  1  0  0  0  0
 23 30  1  0  0  0  0
 23 31  1  0  0  0  0
 23 32  1  0  0  0  0
 24 33  1  0  0  0  0
 24 34  1  0  0  0  0
 24 35  1  0  0  0  0
 47 49  1  0  0  0  0
 47 50  1  0  0  0  0
 47 51  1  0  0  0  0
 21 27  1  0  0  0  0
 21 28  1  0  0  0  0
 37 42  1  0  0  0  0
  8 13  1  0  0  0  0
 18 26  1  0  0  0  0
 22 29  1  0  0  0  0
 46 48  1  0  0  0  0
  7 12  1  0  0  0  0
 36 41  1  0  0  0  0
 17 25  1  0  0  0  0
M  END
$$$$

  -OEChem-05262214473D

 51 50  0     1  0  0  0  0  0999 V2000
    3.4018   -1.2440   -3.0186 C   0  0  0  0  0  0  0  0  0  0  0  0
    3.2697   -2.0909   -2.1427 O   0  0  0  0  0  0  0  0  0  0  0  0
    4.6845   -1.1645   -3.7779 C   0  0  0  0  0  0  0  0  0  0  0  0
    5.4123   -0.4862   -3.3041 H   0  0  0  0  0  0  0  0  0  0  0  0
    5.1949   -2.1387   -3.8443 H   0  0  0  0  0  0  0  0  0  0  0  0
    4.5953   -0.8128   -4.8182 H   0  0  0  0  0  0  0  0  0  0  0  0
    2.4540   -0.3103   -3.4040 N   0  0  0  0  0  0  0  0  0  0  0  0
    1.1494   -0.2128   -2.8039 C   0  0  2  0  0  0  0  0  0  0  0  0
    1.3350    0.0367   -1.3130 C   0  0  0  0  0  0  0  0  0  0  0  0
    2.3625   -0.2586   -0.7063 O   0  0  0  0  0  0  0  0  0  0  0  0
    0.3331   -1.4728   -3.0467 C   0  0  0  0  0  0  0  0  0  0  0  0
    2.6924    0.3404   -4.1502 H   0  0  0  0  0  0  0  0  0  0  0  0
    0.6550    0.6514   -3.2607 H   0  0  0  0  0  0  0  0  0  0  0  0
    0.8129   -2.3494   -2.5963 H   0  0  0  0  0  0  0  0  0  0  0  0
   -0.6690   -1.3857   -2.6142 H   0  0  0  0  0  0  0  0  0  0  0  0
    0.2259   -1.6670   -4.1194 H   0  0  0  0  0  0  0  0  0  0  0  0
    0.2019    0.5893   -0.7269 N   0  0  0  0  0  0  0  0  0  0  0  0
    0.1242    0.9059    0.6756 C   0  0  2  0  0  0  0  0  0  0  0  0
   -1.2252    0.4000    1.1760 C   0  0  0  0  0  0  0  0  0  0  0  0
   -2.2700    0.5440    0.5444 O   0  0  0  0  0  0  0  0  0  0  0  0
    0.2572    2.4112    0.9392 C   0  0  0  0  0  0  0  0  0  0  0  0
    1.6353    3.0097    0.5907 C   0  0  0  0  0  0  0  0  0  0  0  0
    1.5936    4.5315    0.7552 C   0  0  0  0  0  0  0  0  0  0  0  0
    2.0816    2.6572   -0.8289 C   0  0  0  0  0  0  0  0  0  0  0  0
   -0.5975    0.8179   -1.3140 H   0  0  0  0  0  0  0  0  0  0  0  0
    0.9185    0.3420    1.1749 H   0  0  0  0  0  0  0  0  0  0  0  0
    0.0481    2.6051    2.0007 H   0  0  0  0  0  0  0  0  0  0  0  0
   -0.5194    2.9488    0.3790 H   0  0  0  0  0  0  0  0  0  0  0  0
    2.3838    2.6222    1.2926 H   0  0  0  0  0  0  0  0  0  0  0  0
    0.8593    4.9766    0.0754 H   0  0  0  0  0  0  0  0  0  0  0  0
    2.5689    4.9745    0.5270 H   0  0  0  0  0  0  0  0  0  0  0  0
    1.3234    4.8142    1.7784 H   0  0  0  0  0  0  0  0  0  0  0  0
    1.3656    3.0232   -1.5726 H   0  0  0  0  0  0  0  0  0  0  0  0
    3.0568    3.1038   -1.0512 H   0  0  0  0  0  0  0  0  0  0  0  0
    2.1857    1.5758   -0.9574 H   0  0  0  0  0  0  0  0  0  0  0  0
   -1.1131   -0.2737    2.3843 N   0  0  0  0  0  0  0  0  0  0  0  0
   -2.2378   -0.8755    3.0636 C   0  0  2  0  0  0  0  0  0  0  0  0
   -3.1361   -1.5131    2.0119 C   0  0  0  0  0  0  0  0  0  0  0  0
   -3.1354   -1.1695    0.8316 O   0  0  0  0  0  0  0  0  0  0  0  0
   -3.0040    0.1518    3.8824 C   0  0  0  0  0  0  0  0  0  0  0  0
   -0.1999   -0.3646    2.8196 H   0  0  0  0  0  0  0  0  0  0  0  0
   -1.8320   -1.6541    3.7187 H   0  0  0  0  0  0  0  0  0  0  0  0
   -3.4181    0.9400    3.2431 H   0  0  0  0  0  0  0  0  0  0  0  0
   -3.8387   -0.3111    4.4190 H   0  0  0  0  0  0  0  0  0  0  0  0
   -2.3491    0.6306    4.6183 H   0  0  0  0  0  0  0  0  0  0  0  0
   -3.9694   -2.4811    2.5548 N   0  0  0  0  0  0  0  0  0  0  0  0
   -4.9236   -3.2215    1.7628 C   0  0  0  0  0  0  0  0  0  0  0  0
   -3.8886   -2.7145    3.5400 H   0  0  0  0  0  0  0  0  0  0  0  0
   -5.8970   -2.7097    1.7873 H   0  0  0  0  0  0  0  0  0  0  0  0
   -4.5681   -3.2833    0.7237 H   0  0  0  0  0  0  0  0  0  0  0  0
   -5.0325   -4.2360    2.1740 H   0  0  0  0  0  0  0  0  0  0  0  0
  1  3  1  0  0  0  0
  1  7  1  0  0  0  0
  1  2  2  0  0  0  0
 37 38  1  0  0  0  0
 38 46  1  0  0  0  0
 38 39  2  0  0  0  0
  8  9  1  0  0  0  0
  9 17  1  0  0  0  0
  9 10  2  0  0  0  0
 18 19  1  0  0  0  0
 19 36  1  0  0  0  0
 19 20  2  0  0  0  0
 37 40  1  0  0  0  0
  8 11  1  0  0  0  0
 22 23  1  0  0  0  0
 22 24  1  0  0  0  0
 46 47  1  0  0  0  0
 18 21  1  0  0  0  0
 21 22  1  0  0  0  0
 36 37  1  0  0  0  0
  7  8  1  0  0  0  0
 17 18  1  0  0  0  0
  3  4  1  0  0  0  0
  3  5  1  0  0  0  0
  3  6  1  0  0  0  0
 40 43  1  0  0  0  0
 40 44  1  0  0  0  0
 40 45  1  0  0  0  0
 11 14  1  0  0  0  0
 11 15  1  0  0  0  0
 11 16  1  0  0  0  0
 23 30  1  0  0  0  0
 23 31  1  0  0  0  0
 23 32  1  0  0  0  0
 24 33  1  0  0  0  0
 24 34  1  0  0  0  0
 24 35  1  0  0  0  0
 47 49  1  0  0  0  0
 47 50  1  0  0  0  0
 47 51  1  0  0  0  0
 21 27  1  0  0  0  0
 21 28  1  0  0  0  0
 37 42  1  0  0  0  0
  8 13  1  0  0  0  0
 18 26  1  0  0  0  0
 22 29  1  0  0  0  0
 46 48  1  0  0  0  0
  7 12  1  0  0  0  0
 36 41  1  0  0  0  0
 17 25  1  0  0  0  0
M  END
$$$$

  -OEChem-05262214473D

 51 50  0     1  0  0  0  0  0999 V2000
    3.4018   -1.2440   -3.0186 C   0  0  0  0  0  0  0  0  0  0  0  0
    3.2697   -2.0909   -2.1427 O   0  0  0  0  0  0  0  0  0  0  0  0
    4.6845   -1.1645   -3.7779 C   0  0  0  0  0  0  0  0  0  0  0  0
    5.4123   -0.4862   -3.3041 H   0  0  0  0  0  0  0  0  0  0  0  0
    5.1949   -2.1387   -3.8443 H   0  0  0  0  0  0  0  0  0  0  0  0
    4.5953   -0.8128   -4.8182 H   0  0  0  0  0  0  0  0  0  0  0  0
    2.4540   -0.3103   -3.4040 N   0  0  0  0  0  0  0  0  0  0  0  0
    1.1494   -0.2128   -2.8039 C   0  0  2  0  0  0  0  0  0  0  0  0
    1.3350    0.0367   -1.3130 C   0  0  0  0  0  0  0  0  0  0  0  0
    2.3625   -0.2586   -0.7063 O   0  0  0  0  0  0  0  0  0  0  0  0
    0.3331   -1.4728   -3.0467 C   0  0  0  0  0  0  0  0  0  0  0  0
    2.6924    0.3404   -4.1502 H   0  0  0  0  0  0  0  0  0  0  0  0
    0.6550    0.6514   -3.2607 H   0  0  0  0  0  0  0  0  0  0  0  0
    0.8129   -2.3494   -2.5963 H   0  0  0  0  0  0  0  0  0  0  0  0
   -0.6690   -1.3857   -2.6142 H   0  0  0  0  0  0  0  0  0  0  0  0
    0.2259   -1.6670   -4.1194 H   0  0  0  0  0  0  0  0  0  0  0  0
    0.2019    0.5893   -0.7269 N   0  0  0  0  0  0  0  0  0  0  0  0
    0.1242    0.9059    0.6756 C   0  0  2  0  0  0  0  0  0  0  0  0
   -1.2252    0.4000    1.1760 C   0  0  0  0  0  0  0  0  0  0  0  0
   -2.2126    0.2982    0.4508 O   0  0  0  0  0  0  0  0  0  0  0  0
    0.2572    2.4112    0.9392 C   0  0  0  0  0  0  0  0  0  0  0  0
    1.6353    3.0097    0.5907 C   0  0  0  0  0  0  0  0  0  0  0  0
    1.5936    4.5315    0.7552 C   0  0  0  0  0  0  0  0  0  0  0  0
    2.0816    2.6572   -0.8289 C   0  0  0  0  0  0  0  0  0  0  0  0
   -0.5975    0.8179   -1.3140 H   0  0  0  0  0  0  0  0  0  0  0  0
    0.9185    0.3420    1.1749 H   0  0  0  0  0  0  0  0  0  0  0  0
    0.0481    2.6051    2.0007 H   0  0  0  0  0  0  0  0  0  0  0  0
   -0.5194    2.9488    0.3790 H   0  0  0  0  0  0  0  0  0  0  0  0
    2.3838    2.6222    1.2926 H   0  0  0  0  0  0  0  0  0  0  0  0
    0.8593    4.9766    0.0754 H   0  0  0  0  0  0  0  0  0  0  0  0
    2.5689    4.9745    0.5270 H   0  0  0  0  0  0  0  0  0  0  0  0
    1.3234    4.8142    1.7784 H   0  0  0  0  0  0  0  0  0  0  0  0
    1.3656    3.0232   -1.5726 H   0  0  0  0  0  0  0  0  0  0  0  0
    3.0568    3.1038   -1.0512 H   0  0  0  0  0  0  0  0  0  0  0  0
    2.1857    1.5758   -0.9574 H   0  0  0  0  0  0  0  0  0  0  0  0
   -1.1791    0.0296    2.5128 N   0  0  0  0  0  0  0  0  0  0  0  0
   -2.3154   -0.5077    3.2261 C   0  0  2  0  0  0  0  0  0  0  0  0
   -3.0586   -1.4481    2.2865 C   0  0  0  0  0  0  0  0  0  0  0  0
   -2.9707   -1.3807    1.0622 O   0  0  0  0  0  0  0  0  0  0  0  0
   -3.2312    0.6001    3.7228 C   0  0  0  0  0  0  0  0  0  0  0  0
   -0.3076    0.1260    3.0254 H   0  0  0  0  0  0  0  0  0  0  0  0
   -1.9170   -1.0767    4.0732 H   0  0  0  0  0  0  0  0  0  0  0  0
   -3.6401    1.1811    2.8881 H   0  0  0  0  0  0  0  0  0  0  0  0
   -4.0765    0.1929    4.2874 H   0  0  0  0  0  0  0  0  0  0  0  0
   -2.6875    1.2923    4.3746 H   0  0  0  0  0  0  0  0  0  0  0  0
   -3.8652   -2.3436    2.9747 N   0  0  0  0  0  0  0  0  0  0  0  0
   -4.6811   -3.3305    2.3067 C   0  0  0  0  0  0  0  0  0  0  0  0
   -3.8618   -2.3404    3.9905 H   0  0  0  0  0  0  0  0  0  0  0  0
   -5.6879   -2.9210    2.1375 H   0  0  0  0  0  0  0  0  0  0  0  0
   -4.2241   -3.5907    1.3405 H   0  0  0  0  0  0  0  0  0  0  0  0
   -4.7525   -4.2319    2.9331 H   0  0  0  0  0  0  0  0  0  0  0  0
  1  3  1  0  0  0  0
  1  7  1  0  0  0  0
  1  2  2  0  0  0  0
 37 38  1  0  0  0  0
 38 46  1  0  0  0  0
 38 39  2  0  0  0  0
  8  9  1  0  0  0  0
  9 17  1  0  0  0  0
  9 10  2  0  0  0  0
 18 19  1  0  0  0  0
 19 36  1  0  0  0  0
 19 20  2  0  0  0  0
 37 40  1  0  0  0  0
  8 11  1  0  0  0  0
 22 23  1  0  0  0  0
 22 24  1  0  0  0  0
 46 47  1  0  0  0  0
 18 21  1  0  0  0  0
 21 22  1  0  0  0  0
 36 37  1  0  0  0  0
  7  8  1  0  0  0  0
 17 18  1  0  0  0  0
  3  4  1  0  0  0  0
  3  5  1  0  0  0  0
  3  6  1  0  0  0  0
 40 43  1  0  0  0  0
 40 44  1  0  0  0  0
 40 45  1  0  0  0  0
 11 14  1  0  0  0  0
 11 15  1  0  0  0  0
 11 16  1  0  0  0  0
 23 30  1  0  0  0  0
 23 31  1  0  0  0  0
 23 32  1  0  0  0  0
 24 33  1  0  0  0  0
 24 34  1  0  0  0  0
 24 35  1  0  0  0  0
 47 49  1  0  0  0  0
 47 50  1  0  0  0  0
 47 51  1  0  0  0  0
 21 27  1  0  0  0  0
 21 28  1  0  0  0  0
 37 42  1  0  0  0  0
  8 13  1  0  0  0  0
 18 26  1  0  0  0  0
 22 29  1  0  0  0  0
 46 48  1  0  0  0  0
  7 12  1  0  0  0  0
 36 41  1  0  0  0  0
 17 25  1  0  0  0  0
M  END
$$$$

  -OEChem-05262214473D

 51 50  0     1  0  0  0  0  0999 V2000
    3.4018   -1.2440   -3.0186 C   0  0  0  0  0  0  0  0  0  0  0  0
    3.2697   -2.0909   -2.1427 O   0  0  0  0  0  0  0  0  0  0  0  0
    4.6845   -1.1645   -3.7779 C   0  0  0  0  0  0  0  0  0  0  0  0
    5.4123   -0.4862   -3.3041 H   0  0  0  0  0  0  0  0  0  0  0  0
    5.1949   -2.1387   -3.8443 H   0  0  0  0  0  0  0  0  0  0  0  0
    4.5953   -0.8128   -4.8182 H   0  0  0  0  0  0  0  0  0  0  0  0
    2.4540   -0.3103   -3.4040 N   0  0  0  0  0  0  0  0  0  0  0  0
    1.1494   -0.2128   -2.8039 C   0  0  2  0  0  0  0  0  0  0  0  0
    1.3350    0.0367   -1.3130 C   0  0  0  0  0  0  0  0  0  0  0  0
    2.3625   -0.2586   -0.7063 O   0  0  0  0  0  0  0  0  0  0  0  0
    0.3331   -1.4728   -3.0467 C   0  0  0  0  0  0  0  0  0  0  0  0
    2.6924    0.3404   -4.1502 H   0  0  0  0  0  0  0  0  0  0  0  0
    0.6550    0.6514   -3.2607 H   0  0  0  0  0  0  0  0  0  0  0  0
    0.8129   -2.3494   -2.5963 H   0  0  0  0  0  0  0  0  0  0  0  0
   -0.6690   -1.3857   -2.6142 H   0  0  0  0  0  0  0  0  0  0  0  0
    0.2259   -1.6670   -4.1194 H   0  0  0  0  0  0  0  0  0  0  0  0
    0.2019    0.5893   -0.7269 N   0  0  0  0  0  0  0  0  0  0  0  0
    0.1242    0.9059    0.6756 C   0  0  2  0  0  0  0  0  0  0  0  0
   -1.2252    0.4000    1.1760 C   0  0  0  0  0  0  0  0  0  0  0  0
   -2.1282    0.0442    0.4215 O   0  0  0  0  0  0  0  0  0  0  0  0
    0.2572    2.4112    0.9392 C   0  0  0  0  0  0  0  0  0  0  0  0
    1.6353    3.0097    0.5907 C   0  0  0  0  0  0  0  0  0  0  0  0
    1.5936    4.5315    0.7552 C   0  0  0  0  0  0  0  0  0  0  0  0
    2.0816    2.6572   -0.8289 C   0  0  0  0  0  0  0  0  0  0  0  0
   -0.5975    0.8179   -1.3140 H   0  0  0  0  0  0  0  0  0  0  0  0
    0.9185    0.3420    1.1749 H   0  0  0  0  0  0  0  0  0  0  0  0
    0.0481    2.6051    2.0007 H   0  0  0  0  0  0  0  0  0  0  0  0
   -0.5194    2.9488    0.3790 H   0  0  0  0  0  0  0  0  0  0  0  0
    2.3838    2.6222    1.2926 H   0  0  0  0  0  0  0  0  0  0  0  0
    0.8593    4.9766    0.0754 H   0  0  0  0  0  0  0  0  0  0  0  0
    2.5689    4.9745    0.5270 H   0  0  0  0  0  0  0  0  0  0  0  0
    1.3234    4.8142    1.7784 H   0  0  0  0  0  0  0  0  0  0  0  0
    1.3656    3.0232   -1.5726 H   0  0  0  0  0  0  0  0  0  0  0  0
    3.0568    3.1038   -1.0512 H   0  0  0  0  0  0  0  0  0  0  0  0
    2.1857    1.5758   -0.9574 H   0  0  0  0  0  0  0  0  0  0  0  0
   -1.2796    0.3463    2.5619 N   0  0  0  0  0  0  0  0  0  0  0  0
   -2.4355   -0.1219    3.2921 C   0  0  2  0  0  0  0  0  0  0  0  0
   -3.0129   -1.3159    2.5434 C   0  0  0  0  0  0  0  0  0  0  0  0
   -2.8135   -1.5180    1.3474 O   0  0  0  0  0  0  0  0  0  0  0  0
   -3.4751    0.9773    3.4465 C   0  0  0  0  0  0  0  0  0  0  0  0
   -0.4708    0.6380    3.1026 H   0  0  0  0  0  0  0  0  0  0  0  0
   -2.0785   -0.4450    4.2761 H   0  0  0  0  0  0  0  0  0  0  0  0
   -3.8446    1.3138    2.4709 H   0  0  0  0  0  0  0  0  0  0  0  0
   -4.3376    0.6294    4.0245 H   0  0  0  0  0  0  0  0  0  0  0  0
   -3.0496    1.8469    3.9588 H   0  0  0  0  0  0  0  0  0  0  0  0
   -3.8123   -2.1058    3.3579 N   0  0  0  0  0  0  0  0  0  0  0  0
   -4.4842   -3.2907    2.8778 C   0  0  0  0  0  0  0  0  0  0  0  0
   -3.9063   -1.8736    4.3422 H   0  0  0  0  0  0  0  0  0  0  0  0
   -5.4981   -3.0272    2.5420 H   0  0  0  0  0  0  0  0  0  0  0  0
   -3.9186   -3.7172    2.0363 H   0  0  0  0  0  0  0  0  0  0  0  0
   -4.5476   -4.0304    3.6894 H   0  0  0  0  0  0  0  0  0  0  0  0
  1  3  1  0  0  0  0
  1  7  1  0  0  0  0
  1  2  2  0  0  0  0
 37 38  1  0  0  0  0
 38 46  1  0  0  0  0
 38 39  2  0  0  0  0
  8  9  1  0  0  0  0
  9 17  1  0  0  0  0
  9 10  2  0  0  0  0
 18 19  1  0  0  0  0
 19 36  1  0  0  0  0
 19 20  2  0  0  0  0
 37 40  1  0  0  0  0
  8 11  1  0  0  0  0
 22 23  1  0  0  0  0
 22 24  1  0  0  0  0
 46 47  1  0  0  0  0
 18 21  1  0  0  0  0
 21 22  1  0  0  0  0
 36 37  1  0  0  0  0
  7  8  1  0  0  0  0
 17 18  1  0  0  0  0
  3  4  1  0  0  0  0
  3  5  1  0  0  0  0
  3  6  1  0  0  0  0
 40 43  1  0  0  0  0
 40 44  1  0  0  0  0
 40 45  1  0  0  0  0
 11 14  1  0  0  0  0
 11 15  1  0  0  0  0
 11 16  1  0  0  0  0
 23 30  1  0  0  0  0
 23 31  1  0  0  0  0
 23 32  1  0  0  0  0
 24 33  1  0  0  0  0
 24 34  1  0  0  0  0
 24 35  1  0  0  0  0
 47 49  1  0  0  0  0
 47 50  1  0  0  0  0
 47 51  1  0  0  0  0
 21 27  1  0  0  0  0
 21 28  1  0  0  0  0
 37 42  1  0  0  0  0
  8 13  1  0  0  0  0
 18 26  1  0  0  0  0
 22 29  1  0  0  0  0
 46 48  1  0  0  0  0
  7 12  1  0  0  0  0
 36 41  1  0  0  0  0
 17 25  1  0  0  0  0
M  END
$$$$

  -OEChem-05262214473D

 51 50  0     1  0  0  0  0  0999 V2000
    3.4018   -1.2440   -3.0186 C   0  0  0  0  0  0  0  0  0  0  0  0
    3.2697   -2.0909   -2.1427 O   0  0  0  0  0  0  0  0  0  0  0  0
    4.6845   -1.1645   -3.7779 C   0  0  0  0  0  0  0  0  0  0  0  0
    5.4123   -0.4862   -3.3041 H   0  0  0  0  0  0  0  0  0  0  0  0
    5.1949   -2.1387   -3.8443 H   0  0  0  0  0  0  0  0  0  0  0  0
    4.5953   -0.8128   -4.8182 H   0  0  0  0  0  0  0  0  0  0  0  0
    2.4540   -0.3103   -3.4040 N   0  0  0  0  0  0  0  0  0  0  0  0
    1.1494   -0.2128   -2.8039 C   0  0  2  0  0  0  0  0  0  0  0  0
    1.3350    0.0367   -1.3130 C   0  0  0  0  0  0  0  0  0  0  0  0
    2.3625   -0.2586   -0.7063 O   0  0  0  0  0  0  0  0  0  0  0  0
    0.3331   -1.4728   -3.0467 C   0  0  0  0  0  0  0  0  0  0  0  0
    2.6924    0.3404   -4.1502 H   0  0  0  0  0  0  0  0  0  0  0  0
    0.6550    0.6514   -3.2607 H   0  0  0  0  0  0  0  0  0  0  0  0
    0.8129   -2.3494   -2.5963 H   0  0  0  0  0  0  0  0  0  0  0  0
   -0.6690   -1.3857   -2.6142 H   0  0  0  0  0  0  0  0  0  0  0  0
    0.2259   -1.6670   -4.1194 H   0  0  0  0  0  0  0  0  0  0  0  0
    0.2019    0.5893   -0.7269 N   0  0  0  0  0  0  0  0  0  0  0  0
    0.1242    0.9059    0.6756 C   0  0  2  0  0  0  0  0  0  0  0  0
   -1.0241    0.0875    1.2577 C   0  0  0  0  0  0  0  0  0  0  0  0
   -1.6823   -0.7097    0.5925 O   0  0  0  0  0  0  0  0  0  0  0  0
   -0.1129    2.4015    0.9209 C   0  0  0  0  0  0  0  0  0  0  0  0
    1.0481    3.3200    0.4881 C   0  0  0  0  0  0  0  0  0  0  0  0
    0.6326    4.7855    0.6446 C   0  0  0  0  0  0  0  0  0  0  0  0
    1.4899    3.0611   -0.9529 C   0  0  0  0  0  0  0  0  0  0  0  0
   -0.5975    0.8179   -1.3140 H   0  0  0  0  0  0  0  0  0  0  0  0
    1.0614    0.5708    1.1312 H   0  0  0  0  0  0  0  0  0  0  0  0
   -0.3053    2.5590    1.9915 H   0  0  0  0  0  0  0  0  0  0  0  0
   -1.0297    2.7143    0.4037 H   0  0  0  0  0  0  0  0  0  0  0  0
    1.9077    3.1484    1.1474 H   0  0  0  0  0  0  0  0  0  0  0  0
   -0.2267    5.0169    0.0062 H   0  0  0  0  0  0  0  0  0  0  0  0
    1.4503    5.4547    0.3565 H   0  0  0  0  0  0  0  0  0  0  0  0
    0.3566    5.0128    1.6800 H   0  0  0  0  0  0  0  0  0  0  0  0
    0.6648    3.2191   -1.6556 H   0  0  0  0  0  0  0  0  0  0  0  0
    2.3070    3.7339   -1.2351 H   0  0  0  0  0  0  0  0  0  0  0  0
    1.8564    2.0382   -1.0801 H   0  0  0  0  0  0  0  0  0  0  0  0
   -1.1903    0.3169    2.6165 N   0  0  0  0  0  0  0  0  0  0  0  0
   -2.1913   -0.3515    3.4165 C   0  0  2  0  0  0  0  0  0  0  0  0
   -2.2676   -1.8020    2.9588 C   0  0  0  0  0  0  0  0  0  0  0  0
   -1.8990   -2.1749    1.8469 O   0  0  0  0  0  0  0  0  0  0  0  0
   -3.5451    0.3299    3.2914 C   0  0  0  0  0  0  0  0  0  0  0  0
   -0.5789    0.9772    3.0874 H   0  0  0  0  0  0  0  0  0  0  0  0
   -1.8437   -0.3133    4.4546 H   0  0  0  0  0  0  0  0  0  0  0  0
   -3.9096    0.3017    2.2580 H   0  0  0  0  0  0  0  0  0  0  0  0
   -4.2957   -0.1603    3.9201 H   0  0  0  0  0  0  0  0  0  0  0  0
   -3.4817    1.3811    3.5928 H   0  0  0  0  0  0  0  0  0  0  0  0
   -2.8358   -2.6240    3.9220 N   0  0  0  0  0  0  0  0  0  0  0  0
   -3.0297   -4.0411    3.7216 C   0  0  0  0  0  0  0  0  0  0  0  0
   -3.0951   -2.2328    4.8228 H   0  0  0  0  0  0  0  0  0  0  0  0
   -4.0365   -4.2203    3.3163 H   0  0  0  0  0  0  0  0  0  0  0  0
   -2.2771   -4.4175    3.0131 H   0  0  0  0  0  0  0  0  0  0  0  0
   -2.9229   -4.5652    4.6828 H   0  0  0  0  0  0  0  0  0  0  0  0
  1  3  1  0  0  0  0
  1  7  1  0  0  0  0
  1  2  2  0  0  0  0
 37 38  1  0  0  0  0
 38 46  1  0  0  0  0
 38 39  2  0  0  0  0
  8  9  1  0  0  0  0
  9 17  1  0  0  0  0
  9 10  2  0  0  0  0
 18 19  1  0  0  0  0
 19 36  1  0  0  0  0
 19 20  2  0  0  0  0
 37 40  1  0  0  0  0
  8 11  1  0  0  0  0
 22 23  1  0  0  0  0
 22 24  1  0  0  0  0
 46 47  1  0  0  0  0
 18 21  1  0  0  0  0
 21 22  1  0  0  0  0
 36 37  1  0  0  0  0
  7  8  1  0  0  0  0
 17 18  1  0  0  0  0
  3  4  1  0  0  0  0
  3  5  1  0  0  0  0
  3  6  1  0  0  0  0
 40 43  1  0  0  0  0
 40 44  1  0  0  0  0
 40 45  1  0  0  0  0
 11 14  1  0  0  0  0
 11 15  1  0  0  0  0
 11 16  1  0  0  0  0
 23 30  1  0  0  0  0
 23 31  1  0  0  0  0
 23 32  1  0  0  0  0
 24 33  1  0  0  0  0
 24 34  1  0  0  0  0
 24 35  1  0  0  0  0
 47 49  1  0  0  0  0
 47 50  1  0  0  0  0
 47 51  1  0  0  0  0
 21 27  1  0  0  0  0
 21 28  1  0  0  0  0
 37 42  1  0  0  0  0
  8 13  1  0  0  0  0
 18 26  1  0  0  0  0
 22 29  1  0  0  0  0
 46 48  1  0  0  0  0
  7 12  1  0  0  0  0
 36 41  1  0  0  0  0
 17 25  1  0  0  0  0
M  END
$$$$

  -OEChem-05262214473D

 51 50  0     1  0  0  0  0  0999 V2000
    3.4018   -1.2440   -3.0186 C   0  0  0  0  0  0  0  0  0  0  0  0
    3.2697   -2.0909   -2.1427 O   0  0  0  0  0  0  0  0  0  0  0  0
    4.6845   -1.1645   -3.7779 C   0  0  0  0  0  0  0  0  0  0  0  0
    5.4123   -0.4862   -3.3041 H   0  0  0  0  0  0  0  0  0  0  0  0
    5.1949   -2.1387   -3.8443 H   0  0  0  0  0  0  0  0  0  0  0  0
    4.5953   -0.8128   -4.8182 H   0  0  0  0  0  0  0  0  0  0  0  0
    2.4540   -0.3103   -3.4040 N   0  0  0  0  0  0  0  0  0  0  0  0
    1.1494   -0.2128   -2.8039 C   0  0  2  0  0  0  0  0  0  0  0  0
    1.3350    0.0367   -1.3130 C   0  0  0  0  0  0  0  0  0  0  0  0
    2.3625   -0.2586   -0.7063 O   0  0  0  0  0  0  0  0  0  0  0  0
    0.3331   -1.4728   -3.0467 C   0  0  0  0  0  0  0  0  0  0  0  0
    2.6924    0.3404   -4.1502 H   0  0  0  0  0  0  0  0  0  0  0  0
    0.6550    0.6514   -3.2607 H   0  0  0  0  0  0  0  0  0  0  0  0
    0.8129   -2.3494   -2.5963 H   0  0  0  0  0  0  0  0  0  0  0  0
   -0.6690   -1.3857   -2.6142 H   0  0  0  0  0  0  0  0  0  0  0  0
    0.2259   -1.6670   -4.1194 H   0  0  0  0  0  0  0  0  0  0  0  0
    0.2019    0.5893   -0.7269 N   0  0  0  0  0  0  0  0  0  0  0  0
    0.1242    0.9059    0.6756 C   0  0  2  0  0  0  0  0  0  0  0  0
   -1.0241    0.0875    1.2577 C   0  0  0  0  0  0  0  0  0  0  0  0
   -1.5059   -0.8894    0.6878 O   0  0  0  0  0  0  0  0  0  0  0  0
   -0.1129    2.4015    0.9209 C   0  0  0  0  0  0  0  0  0  0  0  0
    1.0481    3.3200    0.4881 C   0  0  0  0  0  0  0  0  0  0  0  0
    0.6326    4.7855    0.6446 C   0  0  0  0  0  0  0  0  0  0  0  0
    1.4899    3.0611   -0.9529 C   0  0  0  0  0  0  0  0  0  0  0  0
   -0.5975    0.8179   -1.3140 H   0  0  0  0  0  0  0  0  0  0  0  0
    1.0614    0.5708    1.1312 H   0  0  0  0  0  0  0  0  0  0  0  0
   -0.3053    2.5590    1.9915 H   0  0  0  0  0  0  0  0  0  0  0  0
   -1.0297    2.7143    0.4037 H   0  0  0  0  0  0  0  0  0  0  0  0
    1.9077    3.1484    1.1474 H   0  0  0  0  0  0  0  0  0  0  0  0
   -0.2267    5.0169    0.0062 H   0  0  0  0  0  0  0  0  0  0  0  0
    1.4503    5.4547    0.3565 H   0  0  0  0  0  0  0  0  0  0  0  0
    0.3566    5.0128    1.6800 H   0  0  0  0  0  0  0  0  0  0  0  0
    0.6648    3.2191   -1.6556 H   0  0  0  0  0  0  0  0  0  0  0  0
    2.3070    3.7339   -1.2351 H   0  0  0  0  0  0  0  0  0  0  0  0
    1.8564    2.0382   -1.0801 H   0  0  0  0  0  0  0  0  0  0  0  0
   -1.4093    0.5478    2.5092 N   0  0  0  0  0  0  0  0  0  0  0  0
   -2.4576   -0.0667    3.2916 C   0  0  2  0  0  0  0  0  0  0  0  0
   -2.3415   -1.5766    3.1300 C   0  0  0  0  0  0  0  0  0  0  0  0
   -1.7813   -2.1077    2.1734 O   0  0  0  0  0  0  0  0  0  0  0  0
   -3.8308    0.4224    2.8579 C   0  0  0  0  0  0  0  0  0  0  0  0
   -0.9331    1.3494    2.9121 H   0  0  0  0  0  0  0  0  0  0  0  0
   -2.2728    0.2047    4.3366 H   0  0  0  0  0  0  0  0  0  0  0  0
   -4.0339    0.1596    1.8133 H   0  0  0  0  0  0  0  0  0  0  0  0
   -4.6220   -0.0223    3.4704 H   0  0  0  0  0  0  0  0  0  0  0  0
   -3.9024    1.5118    2.9465 H   0  0  0  0  0  0  0  0  0  0  0  0
   -2.9745   -2.2616    4.1577 N   0  0  0  0  0  0  0  0  0  0  0  0
   -3.0153   -3.7038    4.2241 C   0  0  0  0  0  0  0  0  0  0  0  0
   -3.3972   -1.7399    4.9199 H   0  0  0  0  0  0  0  0  0  0  0  0
   -3.9318   -4.0680    3.7369 H   0  0  0  0  0  0  0  0  0  0  0  0
   -2.1365   -4.1195    3.7093 H   0  0  0  0  0  0  0  0  0  0  0  0
   -3.0084   -4.0226    5.2769 H   0  0  0  0  0  0  0  0  0  0  0  0
  1  3  1  0  0  0  0
  1  7  1  0  0  0  0
  1  2  2  0  0  0  0
 37 38  1  0  0  0  0
 38 46  1  0  0  0  0
 38 39  2  0  0  0  0
  8  9  1  0  0  0  0
  9 17  1  0  0  0  0
  9 10  2  0  0  0  0
 18 19  1  0  0  0  0
 19 36  1  0  0  0  0
 19 20  2  0  0  0  0
 37 40  1  0  0  0  0
  8 11  1  0  0  0  0
 22 23  1  0  0  0  0
 22 24  1  0  0  0  0
 46 47  1  0  0  0  0
 18 21  1  0  0  0  0
 21 22  1  0  0  0  0
 36 37  1  0  0  0  0
  7  8  1  0  0  0  0
 17 18  1  0  0  0  0
  3  4  1  0  0  0  0
  3  5  1  0  0  0  0
  3  6  1  0  0  0  0
 40 43  1  0  0  0  0
 40 44  1  0  0  0  0
 40 45  1  0  0  0  0
 11 14  1  0  0  0  0
 11 15  1  0  0  0  0
 11 16  1  0  0  0  0
 23 30  1  0  0  0  0
 23 31  1  0  0  0  0
 23 32  1  0  0  0  0
 24 33  1  0  0  0  0
 24 34  1  0  0  0  0
 24 35  1  0  0  0  0
 47 49  1  0  0  0  0
 47 50  1  0  0  0  0
 47 51  1  0  0  0  0
 21 27  1  0  0  0  0
 21 28  1  0  0  0  0
 37 42  1  0  0  0  0
  8 13  1  0  0  0  0
 18 26  1  0  0  0  0
 22 29  1  0  0  0  0
 46 48  1  0  0  0  0
  7 12  1  0  0  0  0
 36 41  1  0  0  0  0
 17 25  1  0  0  0  0
M  END
$$$$

  -OEChem-05262214473D

 51 50  0     1  0  0  0  0  0999 V2000
    3.4018   -1.2440   -3.0186 C   0  0  0  0  0  0  0  0  0  0  0  0
    3.2697   -2.0909   -2.1427 O   0  0  0  0  0  0  0  0  0  0  0  0
    4.6845   -1.1645   -3.7779 C   0  0  0  0  0  0  0  0  0  0  0  0
    5.4123   -0.4862   -3.3041 H   0  0  0  0  0  0  0  0  0  0  0  0
    5.1949   -2.1387   -3.8443 H   0  0  0  0  0  0  0  0  0  0  0  0
    4.5953   -0.8128   -4.8182 H   0  0  0  0  0  0  0  0  0  0  0  0
    2.4540   -0.3103   -3.4040 N   0  0  0  0  0  0  0  0  0  0  0  0
    1.1494   -0.2128   -2.8039 C   0  0  2  0  0  0  0  0  0  0  0  0
    1.3350    0.0367   -1.3130 C   0  0  0  0  0  0  0  0  0  0  0  0
    2.3625   -0.2586   -0.7063 O   0  0  0  0  0  0  0  0  0  0  0  0
    0.3331   -1.4728   -3.0467 C   0  0  0  0  0  0  0  0  0  0  0  0
    2.6924    0.3404   -4.1502 H   0  0  0  0  0  0  0  0  0  0  0  0
    0.6550    0.6514   -3.2607 H   0  0  0  0  0  0  0  0  0  0  0  0
    0.8129   -2.3494   -2.5963 H   0  0  0  0  0  0  0  0  0  0  0  0
   -0.6690   -1.3857   -2.6142 H   0  0  0  0  0  0  0  0  0  0  0  0
    0.2259   -1.6670   -4.1194 H   0  0  0  0  0  0  0  0  0  0  0  0
    0.2019    0.5893   -0.7269 N   0  0  0  0  0  0  0  0  0  0  0  0
    0.1242    0.9059    0.6756 C   0  0  2  0  0  0  0  0  0  0  0  0
   -1.0241    0.0875    1.2577 C   0  0  0  0  0  0  0  0  0  0  0  0
   -1.3310   -1.0269    0.8393 O   0  0  0  0  0  0  0  0  0  0  0  0
   -0.1129    2.4015    0.9209 C   0  0  0  0  0  0  0  0  0  0  0  0
    1.0481    3.3200    0.4881 C   0  0  0  0  0  0  0  0  0  0  0  0
    0.6326    4.7855    0.6446 C   0  0  0  0  0  0  0  0  0  0  0  0
    1.4899    3.0611   -0.9529 C   0  0  0  0  0  0  0  0  0  0  0  0
   -0.5975    0.8179   -1.3140 H   0  0  0  0  0  0  0  0  0  0  0  0
    1.0614    0.5708    1.1312 H   0  0  0  0  0  0  0  0  0  0  0  0
   -0.3053    2.5590    1.9915 H   0  0  0  0  0  0  0  0  0  0  0  0
   -1.0297    2.7143    0.4037 H   0  0  0  0  0  0  0  0  0  0  0  0
    1.9077    3.1484    1.1474 H   0  0  0  0  0  0  0  0  0  0  0  0
   -0.2267    5.0169    0.0062 H   0  0  0  0  0  0  0  0  0  0  0  0
    1.4503    5.4547    0.3565 H   0  0  0  0  0  0  0  0  0  0  0  0
    0.3566    5.0128    1.6800 H   0  0  0  0  0  0  0  0  0  0  0  0
    0.6648    3.2191   -1.6556 H   0  0  0  0  0  0  0  0  0  0  0  0
    2.3070    3.7339   -1.2351 H   0  0  0  0  0  0  0  0  0  0  0  0
    1.8564    2.0382   -1.0801 H   0  0  0  0  0  0  0  0  0  0  0  0
   -1.6288    0.7284    2.3301 N   0  0  0  0  0  0  0  0  0  0  0  0
   -2.7257    0.1578    3.0784 C   0  0  2  0  0  0  0  0  0  0  0  0
   -2.4589   -1.3328    3.2413 C   0  0  0  0  0  0  0  0  0  0  0  0
   -1.7196   -1.9677    2.4919 O   0  0  0  0  0  0  0  0  0  0  0  0
   -4.0556    0.3990    2.3814 C   0  0  0  0  0  0  0  0  0  0  0  0
   -1.2876    1.6397    2.6210 H   0  0  0  0  0  0  0  0  0  0  0  0
   -2.7219    0.6397    4.0622 H   0  0  0  0  0  0  0  0  0  0  0  0
   -4.0782   -0.0765    1.3941 H   0  0  0  0  0  0  0  0  0  0  0  0
   -4.8884   -0.0089    2.9637 H   0  0  0  0  0  0  0  0  0  0  0  0
   -4.2320    1.4705    2.2385 H   0  0  0  0  0  0  0  0  0  0  0  0
   -3.1771   -1.8794    4.2956 N   0  0  0  0  0  0  0  0  0  0  0  0
   -3.1046   -3.2787    4.6458 C   0  0  0  0  0  0  0  0  0  0  0  0
   -3.7511   -1.2748    4.8758 H   0  0  0  0  0  0  0  0  0  0  0  0
   -3.9041   -3.8287    4.1279 H   0  0  0  0  0  0  0  0  0  0  0  0
   -2.1269   -3.6821    4.3433 H   0  0  0  0  0  0  0  0  0  0  0  0
   -3.2271   -3.3912    5.7331 H   0  0  0  0  0  0  0  0  0  0  0  0
  1  3  1  0  0  0  0
  1  7  1  0  0  0  0
  1  2  2  0  0  0  0
 37 38  1  0  0  0  0
 38 46  1  0  0  0  0
 38 39  2  0  0  0  0
  8  9  1  0  0  0  0
  9 17  1  0  0  0  0
  9 10  2  0  0  0  0
 18 19  1  0  0  0  0
 19 36  1  0  0  0  0
 19 20  2  0  0  0  0
 37 40  1  0  0  0  0
  8 11  1  0  0  0  0
 22 23  1  0  0  0  0
 22 24  1  0  0  0  0
 46 47  1  0  0  0  0
 18 21  1  0  0  0  0
 21 22  1  0  0  0  0
 36 37  1  0  0  0  0
  7  8  1  0  0  0  0
 17 18  1  0  0  0  0
  3  4  1  0  0  0  0
  3  5  1  0  0  0  0
  3  6  1  0  0  0  0
 40 43  1  0  0  0  0
 40 44  1  0  0  0  0
 40 45  1  0  0  0  0
 11 14  1  0  0  0  0
 11 15  1  0  0  0  0
 11 16  1  0  0  0  0
 23 30  1  0  0  0  0
 23 31  1  0  0  0  0
 23 32  1  0  0  0  0
 24 33  1  0  0  0  0
 24 34  1  0  0  0  0
 24 35  1  0  0  0  0
 47 49  1  0  0  0  0
 47 50  1  0  0  0  0
 47 51  1  0  0  0  0
 21 27  1  0  0  0  0
 21 28  1  0  0  0  0
 37 42  1  0  0  0  0
  8 13  1  0  0  0  0
 18 26  1  0  0  0  0
 22 29  1  0  0  0  0
 46 48  1  0  0  0  0
  7 12  1  0  0  0  0
 36 41  1  0  0  0  0
 17 25  1  0  0  0  0
M  END
$$$$

  -OEChem-05262214473D

 51 50  0     1  0  0  0  0  0999 V2000
    3.4018   -1.2440   -3.0186 C   0  0  0  0  0  0  0  0  0  0  0  0
    3.2697   -2.0909   -2.1427 O   0  0  0  0  0  0  0  0  0  0  0  0
    4.6845   -1.1645   -3.7779 C   0  0  0  0  0  0  0  0  0  0  0  0
    5.4123   -0.4862   -3.3041 H   0  0  0  0  0  0  0  0  0  0  0  0
    5.1949   -2.1387   -3.8443 H   0  0  0  0  0  0  0  0  0  0  0  0
    4.5953   -0.8128   -4.8182 H   0  0  0  0  0  0  0  0  0  0  0  0
    2.4540   -0.3103   -3.4040 N   0  0  0  0  0  0  0  0  0  0  0  0
    1.1494   -0.2128   -2.8039 C   0  0  2  0  0  0  0  0  0  0  0  0
    1.3350    0.0367   -1.3130 C   0  0  0  0  0  0  0  0  0  0  0  0
    2.3625   -0.2586   -0.7063 O   0  0  0  0  0  0  0  0  0  0  0  0
    0.3331   -1.4728   -3.0467 C   0  0  0  0  0  0  0  0  0  0  0  0
    2.6924    0.3404   -4.1502 H   0  0  0  0  0  0  0  0  0  0  0  0
    0.6550    0.6514   -3.2607 H   0  0  0  0  0  0  0  0  0  0  0  0
    0.8129   -2.3494   -2.5963 H   0  0  0  0  0  0  0  0  0  0  0  0
   -0.6690   -1.3857   -2.6142 H   0  0  0  0  0  0  0  0  0  0  0  0
    0.2259   -1.6670   -4.1194 H   0  0  0  0  0  0  0  0  0  0  0  0
    0.2019    0.5893   -0.7269 N   0  0  0  0  0  0  0  0  0  0  0  0
    0.1242    0.9059    0.6756 C   0  0  2  0  0  0  0  0  0  0  0  0
   -1.0241    0.0875    1.2577 C   0  0  0  0  0  0  0  0  0  0  0  0
   -1.1696   -1.1130    1.0367 O   0  0  0  0  0  0  0  0  0  0  0  0
   -0.1129    2.4015    0.9209 C   0  0  0  0  0  0  0  0  0  0  0  0
    1.0481    3.3200    0.4881 C   0  0  0  0  0  0  0  0  0  0  0  0
    0.6326    4.7855    0.6446 C   0  0  0  0  0  0  0  0  0  0  0  0
    1.4899    3.0611   -0.9529 C   0  0  0  0  0  0  0  0  0  0  0  0
   -0.5975    0.8179   -1.3140 H   0  0  0  0  0  0  0  0  0  0  0  0
    1.0614    0.5708    1.1312 H   0  0  0  0  0  0  0  0  0  0  0  0
   -0.3053    2.5590    1.9915 H   0  0  0  0  0  0  0  0  0  0  0  0
   -1.0297    2.7143    0.4037 H   0  0  0  0  0  0  0  0  0  0  0  0
    1.9077    3.1484    1.1474 H   0  0  0  0  0  0  0  0  0  0  0  0
   -0.2267    5.0169    0.0062 H   0  0  0  0  0  0  0  0  0  0  0  0
    1.4503    5.4547    0.3565 H   0  0  0  0  0  0  0  0  0  0  0  0
    0.3566    5.0128    1.6800 H   0  0  0  0  0  0  0  0  0  0  0  0
    0.6648    3.2191   -1.6556 H   0  0  0  0  0  0  0  0  0  0  0  0
    2.3070    3.7339   -1.2351 H   0  0  0  0  0  0  0  0  0  0  0  0
    1.8564    2.0382   -1.0801 H   0  0  0  0  0  0  0  0  0  0  0  0
   -1.8337    0.8462    2.0916 N   0  0  0  0  0  0  0  0  0  0  0  0
   -2.9772    0.3066    2.7916 C   0  0  2  0  0  0  0  0  0  0  0  0
   -2.6118   -1.0872    3.2849 C   0  0  0  0  0  0  0  0  0  0  0  0
   -1.7181   -1.7643    2.7809 O   0  0  0  0  0  0  0  0  0  0  0  0
   -4.2044    0.2613    1.8946 C   0  0  0  0  0  0  0  0  0  0  0  0
   -1.6183    1.8285    2.2341 H   0  0  0  0  0  0  0  0  0  0  0  0
   -3.1607    0.9620    3.6500 H   0  0  0  0  0  0  0  0  0  0  0  0
   -4.0394   -0.3905    1.0290 H   0  0  0  0  0  0  0  0  0  0  0  0
   -5.0768   -0.1210    2.4348 H   0  0  0  0  0  0  0  0  0  0  0  0
   -4.4480    1.2602    1.5168 H   0  0  0  0  0  0  0  0  0  0  0  0
   -3.4296   -1.5033    4.3261 N   0  0  0  0  0  0  0  0  0  0  0  0
   -3.2913   -2.7947    4.9579 C   0  0  0  0  0  0  0  0  0  0  0  0
   -4.1329   -0.8690    4.6933 H   0  0  0  0  0  0  0  0  0  0  0  0
   -3.9553   -3.5187    4.4629 H   0  0  0  0  0  0  0  0  0  0  0  0
   -2.2488   -3.1351    4.8718 H   0  0  0  0  0  0  0  0  0  0  0  0
   -3.5641   -2.7141    6.0205 H   0  0  0  0  0  0  0  0  0  0  0  0
  1  3  1  0  0  0  0
  1  7  1  0  0  0  0
  1  2  2  0  0  0  0
 37 38  1  0  0  0  0
 38 46  1  0  0  0  0
 38 39  2  0  0  0  0
  8  9  1  0  0  0  0
  9 17  1  0  0  0  0
  9 10  2  0  0  0  0
 18 19  1  0  0  0  0
 19 36  1  0  0  0  0
 19 20  2  0  0  0  0
 37 40  1  0  0  0  0
  8 11  1  0  0  0  0
 22 23  1  0  0  0  0
 22 24  1  0  0  0  0
 46 47  1  0  0  0  0
 18 21  1  0  0  0  0
 21 22  1  0  0  0  0
 36 37  1  0  0  0  0
  7  8  1  0  0  0  0
 17 18  1  0  0  0  0
  3  4  1  0  0  0  0
  3  5  1  0  0  0  0
  3  6  1  0  0  0  0
 40 43  1  0  0  0  0
 40 44  1  0  0  0  0
 40 45  1  0  0  0  0
 11 14  1  0  0  0  0
 11 15  1  0  0  0  0
 11 16  1  0  0  0  0
 23 30  1  0  0  0  0
 23 31  1  0  0  0  0
 23 32  1  0  0  0  0
 24 33  1  0  0  0  0
 24 34  1  0  0  0  0
 24 35  1  0  0  0  0
 47 49  1  0  0  0  0
 47 50  1  0  0  0  0
 47 51  1  0  0  0  0
 21 27  1  0  0  0  0
 21 28  1  0  0  0  0
 37 42  1  0  0  0  0
  8 13  1  0  0  0  0
 18 26  1  0  0  0  0
 22 29  1  0  0  0  0
 46 48  1  0  0  0  0
  7 12  1  0  0  0  0
 36 41  1  0  0  0  0
 17 25  1  0  0  0  0
M  END
$$$$

  -OEChem-05262214473D

 51 50  0     1  0  0  0  0  0999 V2000
    3.4018   -1.2440   -3.0186 C   0  0  0  0  0  0  0  0  0  0  0  0
    3.2697   -2.0909   -2.1427 O   0  0  0  0  0  0  0  0  0  0  0  0
    4.6845   -1.1645   -3.7779 C   0  0  0  0  0  0  0  0  0  0  0  0
    5.4123   -0.4862   -3.3041 H   0  0  0  0  0  0  0  0  0  0  0  0
    5.1949   -2.1387   -3.8443 H   0  0  0  0  0  0  0  0  0  0  0  0
    4.5953   -0.8128   -4.8182 H   0  0  0  0  0  0  0  0  0  0  0  0
    2.4540   -0.3103   -3.4040 N   0  0  0  0  0  0  0  0  0  0  0  0
    1.1494   -0.2128   -2.8039 C   0  0  2  0  0  0  0  0  0  0  0  0
    1.3350    0.0367   -1.3130 C   0  0  0  0  0  0  0  0  0  0  0  0
    2.3625   -0.2586   -0.7063 O   0  0  0  0  0  0  0  0  0  0  0  0
    0.3331   -1.4728   -3.0467 C   0  0  0  0  0  0  0  0  0  0  0  0
    2.6924    0.3404   -4.1502 H   0  0  0  0  0  0  0  0  0  0  0  0
    0.6550    0.6514   -3.2607 H   0  0  0  0  0  0  0  0  0  0  0  0
    0.8129   -2.3494   -2.5963 H   0  0  0  0  0  0  0  0  0  0  0  0
   -0.6690   -1.3857   -2.6142 H   0  0  0  0  0  0  0  0  0  0  0  0
    0.2259   -1.6670   -4.1194 H   0  0  0  0  0  0  0  0  0  0  0  0
    0.2019    0.5893   -0.7269 N   0  0  0  0  0  0  0  0  0  0  0  0
    0.1242    0.9059    0.6756 C   0  0  2  0  0  0  0  0  0  0  0  0
   -1.0241    0.0875    1.2577 C   0  0  0  0  0  0  0  0  0  0  0  0
   -1.0325   -1.1418    1.2666 O   0  0  0  0  0  0  0  0  0  0  0  0
   -0.1129    2.4015    0.9209 C   0  0  0  0  0  0  0  0  0  0  0  0
    1.0481    3.3200    0.4881 C   0  0  0  0  0  0  0  0  0  0  0  0
    0.6326    4.7855    0.6446 C   0  0  0  0  0  0  0  0  0  0  0  0
    1.4899    3.0611   -0.9529 C   0  0  0  0  0  0  0  0  0  0  0  0
   -0.5975    0.8179   -1.3140 H   0  0  0  0  0  0  0  0  0  0  0  0
    1.0614    0.5708    1.1312 H   0  0  0  0  0  0  0  0  0  0  0  0
   -0.3053    2.5590    1.9915 H   0  0  0  0  0  0  0  0  0  0  0  0
   -1.0297    2.7143    0.4037 H   0  0  0  0  0  0  0  0  0  0  0  0
    1.9077    3.1484    1.1474 H   0  0  0  0  0  0  0  0  0  0  0  0
   -0.2267    5.0169    0.0062 H   0  0  0  0  0  0  0  0  0  0  0  0
    1.4503    5.4547    0.3565 H   0  0  0  0  0  0  0  0  0  0  0  0
    0.3566    5.0128    1.6800 H   0  0  0  0  0  0  0  0  0  0  0  0
    0.6648    3.2191   -1.6556 H   0  0  0  0  0  0  0  0  0  0  0  0
    2.3070    3.7339   -1.2351 H   0  0  0  0  0  0  0  0  0  0  0  0
    1.8564    2.0382   -1.0801 H   0  0  0  0  0  0  0  0  0  0  0  0
   -2.0102    0.8933    1.8097 N   0  0  0  0  0  0  0  0  0  0  0  0
   -3.1949    0.3696    2.4507 C   0  0  2  0  0  0  0  0  0  0  0  0
   -2.7898   -0.8566    3.2580 C   0  0  0  0  0  0  0  0  0  0  0  0
   -1.7769   -1.5113    3.0207 O   0  0  0  0  0  0  0  0  0  0  0  0
   -4.2668    0.0189    1.4305 C   0  0  0  0  0  0  0  0  0  0  0  0
   -1.9027    1.9028    1.7776 H   0  0  0  0  0  0  0  0  0  0  0  0
   -3.5590    1.1497    3.1281 H   0  0  0  0  0  0  0  0  0  0  0  0
   -3.9202   -0.7612    0.7429 H   0  0  0  0  0  0  0  0  0  0  0  0
   -5.1741   -0.3509    1.9195 H   0  0  0  0  0  0  0  0  0  0  0  0
   -4.5356    0.8951    0.8307 H   0  0  0  0  0  0  0  0  0  0  0  0
   -3.7150   -1.1591    4.2473 N   0  0  0  0  0  0  0  0  0  0  0  0
   -3.5628   -2.2849    5.1391 C   0  0  0  0  0  0  0  0  0  0  0  0
   -4.5163   -0.5503    4.3851 H   0  0  0  0  0  0  0  0  0  0  0  0
   -4.0819   -3.1590    4.7189 H   0  0  0  0  0  0  0  0  0  0  0  0
   -2.4940   -2.5159    5.2588 H   0  0  0  0  0  0  0  0  0  0  0  0
   -3.9964   -2.0373    6.1193 H   0  0  0  0  0  0  0  0  0  0  0  0
  1  3  1  0  0  0  0
  1  7  1  0  0  0  0
  1  2  2  0  0  0  0
 37 38  1  0  0  0  0
 38 46  1  0  0  0  0
 38 39  2  0  0  0  0
  8  9  1  0  0  0  0
  9 17  1  0  0  0  0
  9 10  2  0  0  0  0
 18 19  1  0  0  0  0
 19 36  1  0  0  0  0
 19 20  2  0  0  0  0
 37 40  1  0  0  0  0
  8 11  1  0  0  0  0
 22 23  1  0  0  0  0
 22 24  1  0  0  0  0
 46 47  1  0  0  0  0
 18 21  1  0  0  0  0
 21 22  1  0  0  0  0
 36 37  1  0  0  0  0
  7  8  1  0  0  0  0
 17 18  1  0  0  0  0
  3  4  1  0  0  0  0
  3  5  1  0  0  0  0
  3  6  1  0  0  0  0
 40 43  1  0  0  0  0
 40 44  1  0  0  0  0
 40 45  1  0  0  0  0
 11 14  1  0  0  0  0
 11 15  1  0  0  0  0
 11 16  1  0  0  0  0
 23 30  1  0  0  0  0
 23 31  1  0  0  0  0
 23 32  1  0  0  0  0
 24 33  1  0  0  0  0
 24 34  1  0  0  0  0
 24 35  1  0  0  0  0
 47 49  1  0  0  0  0
 47 50  1  0  0  0  0
 47 51  1  0  0  0  0
 21 27  1  0  0  0  0
 21 28  1  0  0  0  0
 37 42  1  0  0  0  0
  8 13  1  0  0  0  0
 18 26  1  0  0  0  0
 22 29  1  0  0  0  0
 46 48  1  0  0  0  0
  7 12  1  0  0  0  0
 36 41  1  0  0  0  0
 17 25  1  0  0  0  0
M  END
$$$$

  -OEChem-05262214473D

 51 50  0     1  0  0  0  0  0999 V2000
    3.4018   -1.2440   -3.0186 C   0  0  0  0  0  0  0  0  0  0  0  0
    3.2697   -2.0909   -2.1427 O   0  0  0  0  0  0  0  0  0  0  0  0
    4.6845   -1.1645   -3.7779 C   0  0  0  0  0  0  0  0  0  0  0  0
    5.4123   -0.4862   -3.3041 H   0  0  0  0  0  0  0  0  0  0  0  0
    5.1949   -2.1387   -3.8443 H   0  0  0  0  0  0  0  0  0  0  0  0
    4.5953   -0.8128   -4.8182 H   0  0  0  0  0  0  0  0  0  0  0  0
    2.4540   -0.3103   -3.4040 N   0  0  0  0  0  0  0  0  0  0  0  0
    1.1494   -0.2128   -2.8039 C   0  0  2  0  0  0  0  0  0  0  0  0
    1.3350    0.0367   -1.3130 C   0  0  0  0  0  0  0  0  0  0  0  0
    2.3625   -0.2586   -0.7063 O   0  0  0  0  0  0  0  0  0  0  0  0
    0.3331   -1.4728   -3.0467 C   0  0  0  0  0  0  0  0  0  0  0  0
    2.6924    0.3404   -4.1502 H   0  0  0  0  0  0  0  0  0  0  0  0
    0.6550    0.6514   -3.2607 H   0  0  0  0  0  0  0  0  0  0  0  0
    0.8129   -2.3494   -2.5963 H   0  0  0  0  0  0  0  0  0  0  0  0
   -0.6690   -1.3857   -2.6142 H   0  0  0  0  0  0  0  0  0  0  0  0
    0.2259   -1.6670   -4.1194 H   0  0  0  0  0  0  0  0  0  0  0  0
    0.2019    0.5893   -0.7269 N   0  0  0  0  0  0  0  0  0  0  0  0
    0.1242    0.9059    0.6756 C   0  0  2  0  0  0  0  0  0  0  0  0
   -1.0241    0.0875    1.2577 C   0  0  0  0  0  0  0  0  0  0  0  0
   -0.9292   -1.1112    1.5133 O   0  0  0  0  0  0  0  0  0  0  0  0
   -0.1129    2.4015    0.9209 C   0  0  0  0  0  0  0  0  0  0  0  0
    1.0481    3.3200    0.4881 C   0  0  0  0  0  0  0  0  0  0  0  0
    0.6326    4.7855    0.6446 C   0  0  0  0  0  0  0  0  0  0  0  0
    1.4899    3.0611   -0.9529 C   0  0  0  0  0  0  0  0  0  0  0  0
   -0.5975    0.8179   -1.3140 H   0  0  0  0  0  0  0  0  0  0  0  0
    1.0614    0.5708    1.1312 H   0  0  0  0  0  0  0  0  0  0  0  0
   -0.3053    2.5590    1.9915 H   0  0  0  0  0  0  0  0  0  0  0  0
   -1.0297    2.7143    0.4037 H   0  0  0  0  0  0  0  0  0  0  0  0
    1.9077    3.1484    1.1474 H   0  0  0  0  0  0  0  0  0  0  0  0
   -0.2267    5.0169    0.0062 H   0  0  0  0  0  0  0  0  0  0  0  0
    1.4503    5.4547    0.3565 H   0  0  0  0  0  0  0  0  0  0  0  0
    0.3566    5.0128    1.6800 H   0  0  0  0  0  0  0  0  0  0  0  0
    0.6648    3.2191   -1.6556 H   0  0  0  0  0  0  0  0  0  0  0  0
    2.3070    3.7339   -1.2351 H   0  0  0  0  0  0  0  0  0  0  0  0
    1.8564    2.0382   -1.0801 H   0  0  0  0  0  0  0  0  0  0  0  0
   -2.1462    0.8665    1.5037 N   0  0  0  0  0  0  0  0  0  0  0  0
   -3.3642    0.3426    2.0788 C   0  0  2  0  0  0  0  0  0  0  0  0
   -2.9808   -0.6566    3.1624 C   0  0  0  0  0  0  0  0  0  0  0  0
   -1.8919   -1.2261    3.1948 O   0  0  0  0  0  0  0  0  0  0  0  0
   -4.2388   -0.3119    1.0208 C   0  0  0  0  0  0  0  0  0  0  0  0
   -2.1213    1.8575    1.2828 H   0  0  0  0  0  0  0  0  0  0  0  0
   -3.8899    1.1900    2.5321 H   0  0  0  0  0  0  0  0  0  0  0  0
   -3.7288   -1.1632    0.5554 H   0  0  0  0  0  0  0  0  0  0  0  0
   -5.1739   -0.6829    1.4530 H   0  0  0  0  0  0  0  0  0  0  0  0
   -4.4889    0.4002    0.2269 H   0  0  0  0  0  0  0  0  0  0  0  0
   -4.0136   -0.8701    4.0645 N   0  0  0  0  0  0  0  0  0  0  0  0
   -3.9006   -1.7839    5.1772 C   0  0  0  0  0  0  0  0  0  0  0  0
   -4.8754   -0.3403    3.9720 H   0  0  0  0  0  0  0  0  0  0  0  0
   -4.2752   -2.7741    4.8786 H   0  0  0  0  0  0  0  0  0  0  0  0
   -2.8457   -1.8666    5.4779 H   0  0  0  0  0  0  0  0  0  0  0  0
   -4.4945   -1.4071    6.0229 H   0  0  0  0  0  0  0  0  0  0  0  0
  1  3  1  0  0  0  0
  1  7  1  0  0  0  0
  1  2  2  0  0  0  0
 37 38  1  0  0  0  0
 38 46  1  0  0  0  0
 38 39  2  0  0  0  0
  8  9  1  0  0  0  0
  9 17  1  0  0  0  0
  9 10  2  0  0  0  0
 18 19  1  0  0  0  0
 19 36  1  0  0  0  0
 19 20  2  0  0  0  0
 37 40  1  0  0  0  0
  8 11  1  0  0  0  0
 22 23  1  0  0  0  0
 22 24  1  0  0  0  0
 46 47  1  0  0  0  0
 18 21  1  0  0  0  0
 21 22  1  0  0  0  0
 36 37  1  0  0  0  0
  7  8  1  0  0  0  0
 17 18  1  0  0  0  0
  3  4  1  0  0  0  0
  3  5  1  0  0  0  0
  3  6  1  0  0  0  0
 40 43  1  0  0  0  0
 40 44  1  0  0  0  0
 40 45  1  0  0  0  0
 11 14  1  0  0  0  0
 11 15  1  0  0  0  0
 11 16  1  0  0  0  0
 23 30  1  0  0  0  0
 23 31  1  0  0  0  0
 23 32  1  0  0  0  0
 24 33  1  0  0  0  0
 24 34  1  0  0  0  0
 24 35  1  0  0  0  0
 47 49  1  0  0  0  0
 47 50  1  0  0  0  0
 47 51  1  0  0  0  0
 21 27  1  0  0  0  0
 21 28  1  0  0  0  0
 37 42  1  0  0  0  0
  8 13  1  0  0  0  0
 18 26  1  0  0  0  0
 22 29  1  0  0  0  0
 46 48  1  0  0  0  0
  7 12  1  0  0  0  0
 36 41  1  0  0  0  0
 17 25  1  0  0  0  0
M  END
$$$$

  -OEChem-05262214473D

 51 50  0     1  0  0  0  0  0999 V2000
    3.4018   -1.2440   -3.0186 C   0  0  0  0  0  0  0  0  0  0  0  0
    3.2697   -2.0909   -2.1427 O   0  0  0  0  0  0  0  0  0  0  0  0
    4.6845   -1.1645   -3.7779 C   0  0  0  0  0  0  0  0  0  0  0  0
    5.4123   -0.4862   -3.3041 H   0  0  0  0  0  0  0  0  0  0  0  0
    5.1949   -2.1387   -3.8443 H   0  0  0  0  0  0  0  0  0  0  0  0
    4.5953   -0.8128   -4.8182 H   0  0  0  0  0  0  0  0  0  0  0  0
    2.4540   -0.3103   -3.4040 N   0  0  0  0  0  0  0  0  0  0  0  0
    1.1494   -0.2128   -2.8039 C   0  0  2  0  0  0  0  0  0  0  0  0
    1.3350    0.0367   -1.3130 C   0  0  0  0  0  0  0  0  0  0  0  0
    2.3625   -0.2586   -0.7063 O   0  0  0  0  0  0  0  0  0  0  0  0
    0.3331   -1.4728   -3.0467 C   0  0  0  0  0  0  0  0  0  0  0  0
    2.6924    0.3404   -4.1502 H   0  0  0  0  0  0  0  0  0  0  0  0
    0.6550    0.6514   -3.2607 H   0  0  0  0  0  0  0  0  0  0  0  0
    0.8129   -2.3494   -2.5963 H   0  0  0  0  0  0  0  0  0  0  0  0
   -0.6690   -1.3857   -2.6142 H   0  0  0  0  0  0  0  0  0  0  0  0
    0.2259   -1.6670   -4.1194 H   0  0  0  0  0  0  0  0  0  0  0  0
    0.2019    0.5893   -0.7269 N   0  0  0  0  0  0  0  0  0  0  0  0
    0.1242    0.9059    0.6756 C   0  0  2  0  0  0  0  0  0  0  0  0
   -1.0241    0.0875    1.2577 C   0  0  0  0  0  0  0  0  0  0  0  0
   -0.8667   -1.0235    1.7600 O   0  0  0  0  0  0  0  0  0  0  0  0
   -0.1129    2.4015    0.9209 C   0  0  0  0  0  0  0  0  0  0  0  0
    1.0481    3.3200    0.4881 C   0  0  0  0  0  0  0  0  0  0  0  0
    0.6326    4.7855    0.6446 C   0  0  0  0  0  0  0  0  0  0  0  0
    1.4899    3.0611   -0.9529 C   0  0  0  0  0  0  0  0  0  0  0  0
   -0.5975    0.8179   -1.3140 H   0  0  0  0  0  0  0  0  0  0  0  0
    1.0614    0.5708    1.1312 H   0  0  0  0  0  0  0  0  0  0  0  0
   -0.3053    2.5590    1.9915 H   0  0  0  0  0  0  0  0  0  0  0  0
   -1.0297    2.7143    0.4037 H   0  0  0  0  0  0  0  0  0  0  0  0
    1.9077    3.1484    1.1474 H   0  0  0  0  0  0  0  0  0  0  0  0
   -0.2267    5.0169    0.0062 H   0  0  0  0  0  0  0  0  0  0  0  0
    1.4503    5.4547    0.3565 H   0  0  0  0  0  0  0  0  0  0  0  0
    0.3566    5.0128    1.6800 H   0  0  0  0  0  0  0  0  0  0  0  0
    0.6648    3.2191   -1.6556 H   0  0  0  0  0  0  0  0  0  0  0  0
    2.3070    3.7339   -1.2351 H   0  0  0  0  0  0  0  0  0  0  0  0
    1.8564    2.0382   -1.0801 H   0  0  0  0  0  0  0  0  0  0  0  0
   -2.2324    0.7675    1.1945 N   0  0  0  0  0  0  0  0  0  0  0  0
   -3.4733    0.2273    1.7014 C   0  0  2  0  0  0  0  0  0  0  0  0
   -3.1718   -0.5010    3.0045 C   0  0  0  0  0  0  0  0  0  0  0  0
   -2.0553   -0.9280    3.2915 O   0  0  0  0  0  0  0  0  0  0  0  0
   -4.1221   -0.7085    0.6934 C   0  0  0  0  0  0  0  0  0  0  0  0
   -2.2593    1.6958    0.7833 H   0  0  0  0  0  0  0  0  0  0  0  0
   -4.1307    1.0801    1.9027 H   0  0  0  0  0  0  0  0  0  0  0  0
   -3.4781   -1.5692    0.4791 H   0  0  0  0  0  0  0  0  0  0  0  0
   -5.0762   -1.0945    1.0672 H   0  0  0  0  0  0  0  0  0  0  0  0
   -4.3111   -0.1910   -0.2534 H   0  0  0  0  0  0  0  0  0  0  0  0
   -4.3053   -0.6560    3.7902 N   0  0  0  0  0  0  0  0  0  0  0  0
   -4.2816   -1.3260    5.0694 C   0  0  0  0  0  0  0  0  0  0  0  0
   -5.1856   -0.2535    3.4822 H   0  0  0  0  0  0  0  0  0  0  0  0
   -4.5221   -2.3904    4.9310 H   0  0  0  0  0  0  0  0  0  0  0  0
   -3.2800   -1.2314    5.5142 H   0  0  0  0  0  0  0  0  0  0  0  0
   -5.0245   -0.8662    5.7378 H   0  0  0  0  0  0  0  0  0  0  0  0
  1  3  1  0  0  0  0
  1  7  1  0  0  0  0
  1  2  2  0  0  0  0
 37 38  1  0  0  0  0
 38 46  1  0  0  0  0
 38 39  2  0  0  0  0
  8  9  1  0  0  0  0
  9 17  1  0  0  0  0
  9 10  2  0  0  0  0
 18 19  1  0  0  0  0
 19 36  1  0  0  0  0
 19 20  2  0  0  0  0
 37 40  1  0  0  0  0
  8 11  1  0  0  0  0
 22 23  1  0  0  0  0
 22 24  1  0  0  0  0
 46 47  1  0  0  0  0
 18 21  1  0  0  0  0
 21 22  1  0  0  0  0
 36 37  1  0  0  0  0
  7  8  1  0  0  0  0
 17 18  1  0  0  0  0
  3  4  1  0  0  0  0
  3  5  1  0  0  0  0
  3  6  1  0  0  0  0
 40 43  1  0  0  0  0
 40 44  1  0  0  0  0
 40 45  1  0  0  0  0
 11 14  1  0  0  0  0
 11 15  1  0  0  0  0
 11 16  1  0  0  0  0
 23 30  1  0  0  0  0
 23 31  1  0  0  0  0
 23 32  1  0  0  0  0
 24 33  1  0  0  0  0
 24 34  1  0  0  0  0
 24 35  1  0  0  0  0
 47 49  1  0  0  0  0
 47 50  1  0  0  0  0
 47 51  1  0  0  0  0
 21 27  1  0  0  0  0
 21 28  1  0  0  0  0
 37 42  1  0  0  0  0
  8 13  1  0  0  0  0
 18 26  1  0  0  0  0
 22 29  1  0  0  0  0
 46 48  1  0  0  0  0
  7 12  1  0  0  0  0
 36 41  1  0  0  0  0
 17 25  1  0  0  0  0
M  END
$$$$

  -OEChem-05262214473D

 51 50  0     1  0  0  0  0  0999 V2000
    3.4018   -1.2440   -3.0186 C   0  0  0  0  0  0  0  0  0  0  0  0
    3.2697   -2.0909   -2.1427 O   0  0  0  0  0  0  0  0  0  0  0  0
    4.6845   -1.1645   -3.7779 C   0  0  0  0  0  0  0  0  0  0  0  0
    5.4123   -0.4862   -3.3041 H   0  0  0  0  0  0  0  0  0  0  0  0
    5.1949   -2.1387   -3.8443 H   0  0  0  0  0  0  0  0  0  0  0  0
    4.5953   -0.8128   -4.8182 H   0  0  0  0  0  0  0  0  0  0  0  0
    2.4540   -0.3103   -3.4040 N   0  0  0  0  0  0  0  0  0  0  0  0
    1.1494   -0.2128   -2.8039 C   0  0  2  0  0  0  0  0  0  0  0  0
    1.3350    0.0367   -1.3130 C   0  0  0  0  0  0  0  0  0  0  0  0
    2.3625   -0.2586   -0.7063 O   0  0  0  0  0  0  0  0  0  0  0  0
    0.3331   -1.4728   -3.0467 C   0  0  0  0  0  0  0  0  0  0  0  0
    2.6924    0.3404   -4.1502 H   0  0  0  0  0  0  0  0  0  0  0  0
    0.6550    0.6514   -3.2607 H   0  0  0  0  0  0  0  0  0  0  0  0
    0.8129   -2.3494   -2.5963 H   0  0  0  0  0  0  0  0  0  0  0  0
   -0.6690   -1.3857   -2.6142 H   0  0  0  0  0  0  0  0  0  0  0  0
    0.2259   -1.6670   -4.1194 H   0  0  0  0  0  0  0  0  0  0  0  0
    0.2019    0.5893   -0.7269 N   0  0  0  0  0  0  0  0  0  0  0  0
    0.1242    0.9059    0.6756 C   0  0  2  0  0  0  0  0  0  0  0  0
   -1.0241    0.0875    1.2577 C   0  0  0  0  0  0  0  0  0  0  0  0
   -0.8492   -0.8844    1.9898 O   0  0  0  0  0  0  0  0  0  0  0  0
   -0.1129    2.4015    0.9209 C   0  0  0  0  0  0  0  0  0  0  0  0
    1.0481    3.3200    0.4881 C   0  0  0  0  0  0  0  0  0  0  0  0
    0.6326    4.7855    0.6446 C   0  0  0  0  0  0  0  0  0  0  0  0
    1.4899    3.0611   -0.9529 C   0  0  0  0  0  0  0  0  0  0  0  0
   -0.5975    0.8179   -1.3140 H   0  0  0  0  0  0  0  0  0  0  0  0
    1.0614    0.5708    1.1312 H   0  0  0  0  0  0  0  0  0  0  0  0
   -0.3053    2.5590    1.9915 H   0  0  0  0  0  0  0  0  0  0  0  0
   -1.0297    2.7143    0.4037 H   0  0  0  0  0  0  0  0  0  0  0  0
    1.9077    3.1484    1.1474 H   0  0  0  0  0  0  0  0  0  0  0  0
   -0.2267    5.0169    0.0062 H   0  0  0  0  0  0  0  0  0  0  0  0
    1.4503    5.4547    0.3565 H   0  0  0  0  0  0  0  0  0  0  0  0
    0.3566    5.0128    1.6800 H   0  0  0  0  0  0  0  0  0  0  0  0
    0.6648    3.2191   -1.6556 H   0  0  0  0  0  0  0  0  0  0  0  0
    2.3070    3.7339   -1.2351 H   0  0  0  0  0  0  0  0  0  0  0  0
    1.8564    2.0382   -1.0801 H   0  0  0  0  0  0  0  0  0  0  0  0
   -2.2630    0.6032    0.9032 N   0  0  0  0  0  0  0  0  0  0  0  0
   -3.5150    0.0316    1.3441 C   0  0  2  0  0  0  0  0  0  0  0  0
   -3.3497   -0.4003    2.7952 C   0  0  0  0  0  0  0  0  0  0  0  0
   -2.2561   -0.6374    3.3041 O   0  0  0  0  0  0  0  0  0  0  0  0
   -3.9248   -1.1438    0.4705 C   0  0  0  0  0  0  0  0  0  0  0  0
   -2.3072    1.4287    0.3131 H   0  0  0  0  0  0  0  0  0  0  0  0
   -4.2651    0.8276    1.2826 H   0  0  0  0  0  0  0  0  0  0  0  0
   -3.1853   -1.9514    0.5193 H   0  0  0  0  0  0  0  0  0  0  0  0
   -4.8876   -1.5576    0.7883 H   0  0  0  0  0  0  0  0  0  0  0  0
   -4.0143   -0.8379   -0.5774 H   0  0  0  0  0  0  0  0  0  0  0  0
   -4.5701   -0.5315    3.4430 N   0  0  0  0  0  0  0  0  0  0  0  0
   -4.6799   -0.9423    4.8233 C   0  0  0  0  0  0  0  0  0  0  0  0
   -5.4258   -0.2957    2.9491 H   0  0  0  0  0  0  0  0  0  0  0  0
   -4.8058   -2.0339    4.8726 H   0  0  0  0  0  0  0  0  0  0  0  0
   -3.7672   -0.6538    5.3653 H   0  0  0  0  0  0  0  0  0  0  0  0
   -5.5502   -0.4517    5.2835 H   0  0  0  0  0  0  0  0  0  0  0  0
  1  3  1  0  0  0  0
  1  7  1  0  0  0  0
  1  2  2  0  0  0  0
 37 38  1  0  0  0  0
 38 46  1  0  0  0  0
 38 39  2  0  0  0  0
  8  9  1  0  0  0  0
  9 17  1  0  0  0  0
  9 10  2  0  0  0  0
 18 19  1  0  0  0  0
 19 36  1  0  0  0  0
 19 20  2  0  0  0  0
 37 40  1  0  0  0  0
  8 11  1  0  0  0  0
 22 23  1  0  0  0  0
 22 24  1  0  0  0  0
 46 47  1  0  0  0  0
 18 21  1  0  0  0  0
 21 22  1  0  0  0  0
 36 37  1  0  0  0  0
  7  8  1  0  0  0  0
 17 18  1  0  0  0  0
  3  4  1  0  0  0  0
  3  5  1  0  0  0  0
  3  6  1  0  0  0  0
 40 43  1  0  0  0  0
 40 44  1  0  0  0  0
 40 45  1  0  0  0  0
 11 14  1  0  0  0  0
 11 15  1  0  0  0  0
 11 16  1  0  0  0  0
 23 30  1  0  0  0  0
 23 31  1  0  0  0  0
 23 32  1  0  0  0  0
 24 33  1  0  0  0  0
 24 34  1  0  0  0  0
 24 35  1  0  0  0  0
 47 49  1  0  0  0  0
 47 50  1  0  0  0  0
 47 51  1  0  0  0  0
 21 27  1  0  0  0  0
 21 28  1  0  0  0  0
 37 42  1  0  0  0  0
  8 13  1  0  0  0  0
 18 26  1  0  0  0  0
 22 29  1  0  0  0  0
 46 48  1  0  0  0  0
  7 12  1  0  0  0  0
 36 41  1  0  0  0  0
 17 25  1  0  0  0  0
M  END
$$$$

  -OEChem-05262214473D

 51 50  0     1  0  0  0  0  0999 V2000
    3.4018   -1.2440   -3.0186 C   0  0  0  0  0  0  0  0  0  0  0  0
    3.2697   -2.0909   -2.1427 O   0  0  0  0  0  0  0  0  0  0  0  0
    4.6845   -1.1645   -3.7779 C   0  0  0  0  0  0  0  0  0  0  0  0
    5.4123   -0.4862   -3.3041 H   0  0  0  0  0  0  0  0  0  0  0  0
    5.1949   -2.1387   -3.8443 H   0  0  0  0  0  0  0  0  0  0  0  0
    4.5953   -0.8128   -4.8182 H   0  0  0  0  0  0  0  0  0  0  0  0
    2.4540   -0.3103   -3.4040 N   0  0  0  0  0  0  0  0  0  0  0  0
    1.1494   -0.2128   -2.8039 C   0  0  2  0  0  0  0  0  0  0  0  0
    1.3350    0.0367   -1.3130 C   0  0  0  0  0  0  0  0  0  0  0  0
    2.3625   -0.2586   -0.7063 O   0  0  0  0  0  0  0  0  0  0  0  0
    0.3331   -1.4728   -3.0467 C   0  0  0  0  0  0  0  0  0  0  0  0
    2.6924    0.3404   -4.1502 H   0  0  0  0  0  0  0  0  0  0  0  0
    0.6550    0.6514   -3.2607 H   0  0  0  0  0  0  0  0  0  0  0  0
    0.8129   -2.3494   -2.5963 H   0  0  0  0  0  0  0  0  0  0  0  0
   -0.6690   -1.3857   -2.6142 H   0  0  0  0  0  0  0  0  0  0  0  0
    0.2259   -1.6670   -4.1194 H   0  0  0  0  0  0  0  0  0  0  0  0
    0.2019    0.5893   -0.7269 N   0  0  0  0  0  0  0  0  0  0  0  0
    0.1242    0.9059    0.6756 C   0  0  2  0  0  0  0  0  0  0  0  0
   -1.0241    0.0875    1.2577 C   0  0  0  0  0  0  0  0  0  0  0  0
   -0.8780   -0.7037    2.1872 O   0  0  0  0  0  0  0  0  0  0  0  0
   -0.1129    2.4015    0.9209 C   0  0  0  0  0  0  0  0  0  0  0  0
    1.0481    3.3200    0.4881 C   0  0  0  0  0  0  0  0  0  0  0  0
    0.6326    4.7855    0.6446 C   0  0  0  0  0  0  0  0  0  0  0  0
    1.4899    3.0611   -0.9529 C   0  0  0  0  0  0  0  0  0  0  0  0
   -0.5975    0.8179   -1.3140 H   0  0  0  0  0  0  0  0  0  0  0  0
    1.0614    0.5708    1.1312 H   0  0  0  0  0  0  0  0  0  0  0  0
   -0.3053    2.5590    1.9915 H   0  0  0  0  0  0  0  0  0  0  0  0
   -1.0297    2.7143    0.4037 H   0  0  0  0  0  0  0  0  0  0  0  0
    1.9077    3.1484    1.1474 H   0  0  0  0  0  0  0  0  0  0  0  0
   -0.2267    5.0169    0.0062 H   0  0  0  0  0  0  0  0  0  0  0  0
    1.4503    5.4547    0.3565 H   0  0  0  0  0  0  0  0  0  0  0  0
    0.3566    5.0128    1.6800 H   0  0  0  0  0  0  0  0  0  0  0  0
    0.6648    3.2191   -1.6556 H   0  0  0  0  0  0  0  0  0  0  0  0
    2.3070    3.7339   -1.2351 H   0  0  0  0  0  0  0  0  0  0  0  0
    1.8564    2.0382   -1.0801 H   0  0  0  0  0  0  0  0  0  0  0  0
   -2.2358    0.3846    0.6496 N   0  0  0  0  0  0  0  0  0  0  0  0
   -3.4863   -0.2311    1.0314 C   0  0  2  0  0  0  0  0  0  0  0  0
   -3.5024   -0.3613    2.5487 C   0  0  0  0  0  0  0  0  0  0  0  0
   -2.4804   -0.3741    3.2317 O   0  0  0  0  0  0  0  0  0  0  0  0
   -3.6603   -1.5882    0.3675 C   0  0  0  0  0  0  0  0  0  0  0  0
   -2.2619    1.0743   -0.0956 H   0  0  0  0  0  0  0  0  0  0  0  0
   -4.2839    0.4496    0.7142 H   0  0  0  0  0  0  0  0  0  0  0  0
   -2.8703   -2.2838    0.6733 H   0  0  0  0  0  0  0  0  0  0  0  0
   -4.6209   -2.0406    0.6352 H   0  0  0  0  0  0  0  0  0  0  0  0
   -3.6187   -1.4967   -0.7232 H   0  0  0  0  0  0  0  0  0  0  0  0
   -4.7899   -0.5050    3.0466 N   0  0  0  0  0  0  0  0  0  0  0  0
   -5.0683   -0.6589    4.4554 C   0  0  0  0  0  0  0  0  0  0  0  0
   -5.5796   -0.4640    2.4091 H   0  0  0  0  0  0  0  0  0  0  0  0
   -5.1070   -1.7290    4.7073 H   0  0  0  0  0  0  0  0  0  0  0  0
   -4.2742   -0.1729    5.0412 H   0  0  0  0  0  0  0  0  0  0  0  0
   -6.0360   -0.1918    4.6910 H   0  0  0  0  0  0  0  0  0  0  0  0
  1  3  1  0  0  0  0
  1  7  1  0  0  0  0
  1  2  2  0  0  0  0
 37 38  1  0  0  0  0
 38 46  1  0  0  0  0
 38 39  2  0  0  0  0
  8  9  1  0  0  0  0
  9 17  1  0  0  0  0
  9 10  2  0  0  0  0
 18 19  1  0  0  0  0
 19 36  1  0  0  0  0
 19 20  2  0  0  0  0
 37 40  1  0  0  0  0
  8 11  1  0  0  0  0
 22 23  1  0  0  0  0
 22 24  1  0  0  0  0
 46 47  1  0  0  0  0
 18 21  1  0  0  0  0
 21 22  1  0  0  0  0
 36 37  1  0  0  0  0
  7  8  1  0  0  0  0
 17 18  1  0  0  0  0
  3  4  1  0  0  0  0
  3  5  1  0  0  0  0
  3  6  1  0  0  0  0
 40 43  1  0  0  0  0
 40 44  1  0  0  0  0
 40 45  1  0  0  0  0
 11 14  1  0  0  0  0
 11 15  1  0  0  0  0
 11 16  1  0  0  0  0
 23 30  1  0  0  0  0
 23 31  1  0  0  0  0
 23 32  1  0  0  0  0
 24 33  1  0  0  0  0
 24 34  1  0  0  0  0
 24 35  1  0  0  0  0
 47 49  1  0  0  0  0
 47 50  1  0  0  0  0
 47 51  1  0  0  0  0
 21 27  1  0  0  0  0
 21 28  1  0  0  0  0
 37 42  1  0  0  0  0
  8 13  1  0  0  0  0
 18 26  1  0  0  0  0
 22 29  1  0  0  0  0
 46 48  1  0  0  0  0
  7 12  1  0  0  0  0
 36 41  1  0  0  0  0
 17 25  1  0  0  0  0
M  END
$$$$

  -OEChem-05262214473D

 51 50  0     1  0  0  0  0  0999 V2000
    3.4018   -1.2440   -3.0186 C   0  0  0  0  0  0  0  0  0  0  0  0
    3.2697   -2.0909   -2.1427 O   0  0  0  0  0  0  0  0  0  0  0  0
    4.6845   -1.1645   -3.7779 C   0  0  0  0  0  0  0  0  0  0  0  0
    5.4123   -0.4862   -3.3041 H   0  0  0  0  0  0  0  0  0  0  0  0
    5.1949   -2.1387   -3.8443 H   0  0  0  0  0  0  0  0  0  0  0  0
    4.5953   -0.8128   -4.8182 H   0  0  0  0  0  0  0  0  0  0  0  0
    2.4540   -0.3103   -3.4040 N   0  0  0  0  0  0  0  0  0  0  0  0
    1.1494   -0.2128   -2.8039 C   0  0  2  0  0  0  0  0  0  0  0  0
    1.3350    0.0367   -1.3130 C   0  0  0  0  0  0  0  0  0  0  0  0
    2.3625   -0.2586   -0.7063 O   0  0  0  0  0  0  0  0  0  0  0  0
    0.3331   -1.4728   -3.0467 C   0  0  0  0  0  0  0  0  0  0  0  0
    2.6924    0.3404   -4.1502 H   0  0  0  0  0  0  0  0  0  0  0  0
    0.6550    0.6514   -3.2607 H   0  0  0  0  0  0  0  0  0  0  0  0
    0.8129   -2.3494   -2.5963 H   0  0  0  0  0  0  0  0  0  0  0  0
   -0.6690   -1.3857   -2.6142 H   0  0  0  0  0  0  0  0  0  0  0  0
    0.2259   -1.6670   -4.1194 H   0  0  0  0  0  0  0  0  0  0  0  0
    0.2019    0.5893   -0.7269 N   0  0  0  0  0  0  0  0  0  0  0  0
    0.1242    0.9059    0.6756 C   0  0  2  0  0  0  0  0  0  0  0  0
   -1.0241    0.0875    1.2577 C   0  0  0  0  0  0  0  0  0  0  0  0
   -0.9511   -0.4934    2.3386 O   0  0  0  0  0  0  0  0  0  0  0  0
   -0.1129    2.4015    0.9209 C   0  0  0  0  0  0  0  0  0  0  0  0
    1.0481    3.3200    0.4881 C   0  0  0  0  0  0  0  0  0  0  0  0
    0.6326    4.7855    0.6446 C   0  0  0  0  0  0  0  0  0  0  0  0
    1.4899    3.0611   -0.9529 C   0  0  0  0  0  0  0  0  0  0  0  0
   -0.5975    0.8179   -1.3140 H   0  0  0  0  0  0  0  0  0  0  0  0
    1.0614    0.5708    1.1312 H   0  0  0  0  0  0  0  0  0  0  0  0
   -0.3053    2.5590    1.9915 H   0  0  0  0  0  0  0  0  0  0  0  0
   -1.0297    2.7143    0.4037 H   0  0  0  0  0  0  0  0  0  0  0  0
    1.9077    3.1484    1.1474 H   0  0  0  0  0  0  0  0  0  0  0  0
   -0.2267    5.0169    0.0062 H   0  0  0  0  0  0  0  0  0  0  0  0
    1.4503    5.4547    0.3565 H   0  0  0  0  0  0  0  0  0  0  0  0
    0.3566    5.0128    1.6800 H   0  0  0  0  0  0  0  0  0  0  0  0
    0.6648    3.2191   -1.6556 H   0  0  0  0  0  0  0  0  0  0  0  0
    2.3070    3.7339   -1.2351 H   0  0  0  0  0  0  0  0  0  0  0  0
    1.8564    2.0382   -1.0801 H   0  0  0  0  0  0  0  0  0  0  0  0
   -2.1528    0.1268    0.4509 N   0  0  0  0  0  0  0  0  0  0  0  0
   -3.3892   -0.5430    0.7845 C   0  0  2  0  0  0  0  0  0  0  0  0
   -3.6195   -0.3868    2.2818 C   0  0  0  0  0  0  0  0  0  0  0  0
   -2.7131   -0.1560    3.0794 O   0  0  0  0  0  0  0  0  0  0  0  0
   -3.3466   -2.0114    0.3913 C   0  0  0  0  0  0  0  0  0  0  0  0
   -2.1263    0.6569   -0.4151 H   0  0  0  0  0  0  0  0  0  0  0  0
   -4.1857   -0.0281    0.2362 H   0  0  0  0  0  0  0  0  0  0  0  0
   -2.5546   -2.5438    0.9305 H   0  0  0  0  0  0  0  0  0  0  0  0
   -4.2943   -2.5107    0.6186 H   0  0  0  0  0  0  0  0  0  0  0  0
   -3.1513   -2.1223   -0.6808 H   0  0  0  0  0  0  0  0  0  0  0  0
   -4.9498   -0.5784    2.6280 N   0  0  0  0  0  0  0  0  0  0  0  0
   -5.4205   -0.4953    3.9909 C   0  0  0  0  0  0  0  0  0  0  0  0
   -5.6366   -0.7470    1.8989 H   0  0  0  0  0  0  0  0  0  0  0  0
   -5.4050   -1.4964    4.4465 H   0  0  0  0  0  0  0  0  0  0  0  0
   -4.7665    0.1783    4.5641 H   0  0  0  0  0  0  0  0  0  0  0  0
   -6.4485   -0.1041    4.0005 H   0  0  0  0  0  0  0  0  0  0  0  0
  1  3  1  0  0  0  0
  1  7  1  0  0  0  0
  1  2  2  0  0  0  0
 37 38  1  0  0  0  0
 38 46  1  0  0  0  0
 38 39  2  0  0  0  0
  8  9  1  0  0  0  0
  9 17  1  0  0  0  0
  9 10  2  0  0  0  0
 18 19  1  0  0  0  0
 19 36  1  0  0  0  0
 19 20  2  0  0  0  0
 37 40  1  0  0  0  0
  8 11  1  0  0  0  0
 22 23  1  0  0  0  0
 22 24  1  0  0  0  0
 46 47  1  0  0  0  0
 18 21  1  0  0  0  0
 21 22  1  0  0  0  0
 36 37  1  0  0  0  0
  7  8  1  0  0  0  0
 17 18  1  0  0  0  0
  3  4  1  0  0  0  0
  3  5  1  0  0  0  0
  3  6  1  0  0  0  0
 40 43  1  0  0  0  0
 40 44  1  0  0  0  0
 40 45  1  0  0  0  0
 11 14  1  0  0  0  0
 11 15  1  0  0  0  0
 11 16  1  0  0  0  0
 23 30  1  0  0  0  0
 23 31  1  0  0  0  0
 23 32  1  0  0  0  0
 24 33  1  0  0  0  0
 24 34  1  0  0  0  0
 24 35  1  0  0  0  0
 47 49  1  0  0  0  0
 47 50  1  0  0  0  0
 47 51  1  0  0  0  0
 21 27  1  0  0  0  0
 21 28  1  0  0  0  0
 37 42  1  0  0  0  0
  8 13  1  0  0  0  0
 18 26  1  0  0  0  0
 22 29  1  0  0  0  0
 46 48  1  0  0  0  0
  7 12  1  0  0  0  0
 36 41  1  0  0  0  0
 17 25  1  0  0  0  0
M  END
$$$$

  -OEChem-05262214473D

 51 50  0     1  0  0  0  0  0999 V2000
    3.4018   -1.2440   -3.0186 C   0  0  0  0  0  0  0  0  0  0  0  0
    3.2697   -2.0909   -2.1427 O   0  0  0  0  0  0  0  0  0  0  0  0
    4.6845   -1.1645   -3.7779 C   0  0  0  0  0  0  0  0  0  0  0  0
    5.4123   -0.4862   -3.3041 H   0  0  0  0  0  0  0  0  0  0  0  0
    5.1949   -2.1387   -3.8443 H   0  0  0  0  0  0  0  0  0  0  0  0
    4.5953   -0.8128   -4.8182 H   0  0  0  0  0  0  0  0  0  0  0  0
    2.4540   -0.3103   -3.4040 N   0  0  0  0  0  0  0  0  0  0  0  0
    1.1494   -0.2128   -2.8039 C   0  0  2  0  0  0  0  0  0  0  0  0
    1.3350    0.0367   -1.3130 C   0  0  0  0  0  0  0  0  0  0  0  0
    2.3625   -0.2586   -0.7063 O   0  0  0  0  0  0  0  0  0  0  0  0
    0.3331   -1.4728   -3.0467 C   0  0  0  0  0  0  0  0  0  0  0  0
    2.6924    0.3404   -4.1502 H   0  0  0  0  0  0  0  0  0  0  0  0
    0.6550    0.6514   -3.2607 H   0  0  0  0  0  0  0  0  0  0  0  0
    0.8129   -2.3494   -2.5963 H   0  0  0  0  0  0  0  0  0  0  0  0
   -0.6690   -1.3857   -2.6142 H   0  0  0  0  0  0  0  0  0  0  0  0
    0.2259   -1.6670   -4.1194 H   0  0  0  0  0  0  0  0  0  0  0  0
    0.2019    0.5893   -0.7269 N   0  0  0  0  0  0  0  0  0  0  0  0
    0.1242    0.9059    0.6756 C   0  0  2  0  0  0  0  0  0  0  0  0
   -1.0241    0.0875    1.2577 C   0  0  0  0  0  0  0  0  0  0  0  0
   -1.0635   -0.2681    2.4338 O   0  0  0  0  0  0  0  0  0  0  0  0
   -0.1129    2.4015    0.9209 C   0  0  0  0  0  0  0  0  0  0  0  0
    1.0481    3.3200    0.4881 C   0  0  0  0  0  0  0  0  0  0  0  0
    0.6326    4.7855    0.6446 C   0  0  0  0  0  0  0  0  0  0  0  0
    1.4899    3.0611   -0.9529 C   0  0  0  0  0  0  0  0  0  0  0  0
   -0.5975    0.8179   -1.3140 H   0  0  0  0  0  0  0  0  0  0  0  0
    1.0614    0.5708    1.1312 H   0  0  0  0  0  0  0  0  0  0  0  0
   -0.3053    2.5590    1.9915 H   0  0  0  0  0  0  0  0  0  0  0  0
   -1.0297    2.7143    0.4037 H   0  0  0  0  0  0  0  0  0  0  0  0
    1.9077    3.1484    1.1474 H   0  0  0  0  0  0  0  0  0  0  0  0
   -0.2267    5.0169    0.0062 H   0  0  0  0  0  0  0  0  0  0  0  0
    1.4503    5.4547    0.3565 H   0  0  0  0  0  0  0  0  0  0  0  0
    0.3566    5.0128    1.6800 H   0  0  0  0  0  0  0  0  0  0  0  0
    0.6648    3.2191   -1.6556 H   0  0  0  0  0  0  0  0  0  0  0  0
    2.3070    3.7339   -1.2351 H   0  0  0  0  0  0  0  0  0  0  0  0
    1.8564    2.0382   -1.0801 H   0  0  0  0  0  0  0  0  0  0  0  0
   -2.0195   -0.1527    0.3208 N   0  0  0  0  0  0  0  0  0  0  0  0
   -3.2304   -0.8827    0.6202 C   0  0  2  0  0  0  0  0  0  0  0  0
   -3.6931   -0.4750    2.0127 C   0  0  0  0  0  0  0  0  0  0  0  0
   -2.9383    0.0021    2.8575 O   0  0  0  0  0  0  0  0  0  0  0  0
   -3.0051   -2.3845    0.5403 C   0  0  0  0  0  0  0  0  0  0  0  0
   -1.9098    0.2048   -0.6236 H   0  0  0  0  0  0  0  0  0  0  0  0
   -3.9774   -0.5729   -0.1188 H   0  0  0  0  0  0  0  0  0  0  0  0
   -2.2597   -2.7136    1.2734 H   0  0  0  0  0  0  0  0  0  0  0  0
   -3.9301   -2.9357    0.7394 H   0  0  0  0  0  0  0  0  0  0  0  0
   -2.6439   -2.6721   -0.4530 H   0  0  0  0  0  0  0  0  0  0  0  0
   -5.0389   -0.7466    2.2158 N   0  0  0  0  0  0  0  0  0  0  0  0
   -5.7123   -0.4625    3.4615 C   0  0  0  0  0  0  0  0  0  0  0  0
   -5.5928   -1.1253    1.4533 H   0  0  0  0  0  0  0  0  0  0  0  0
   -5.6796   -1.3520    4.1078 H   0  0  0  0  0  0  0  0  0  0  0  0
   -5.2104    0.3761    3.9665 H   0  0  0  0  0  0  0  0  0  0  0  0
   -6.7598   -0.1947    3.2592 H   0  0  0  0  0  0  0  0  0  0  0  0
  1  3  1  0  0  0  0
  1  7  1  0  0  0  0
  1  2  2  0  0  0  0
 37 38  1  0  0  0  0
 38 46  1  0  0  0  0
 38 39  2  0  0  0  0
  8  9  1  0  0  0  0
  9 17  1  0  0  0  0
  9 10  2  0  0  0  0
 18 19  1  0  0  0  0
 19 36  1  0  0  0  0
 19 20  2  0  0  0  0
 37 40  1  0  0  0  0
  8 11  1  0  0  0  0
 22 23  1  0  0  0  0
 22 24  1  0  0  0  0
 46 47  1  0  0  0  0
 18 21  1  0  0  0  0
 21 22  1  0  0  0  0
 36 37  1  0  0  0  0
  7  8  1  0  0  0  0
 17 18  1  0  0  0  0
  3  4  1  0  0  0  0
  3  5  1  0  0  0  0
  3  6  1  0  0  0  0
 40 43  1  0  0  0  0
 40 44  1  0  0  0  0
 40 45  1  0  0  0  0
 11 14  1  0  0  0  0
 11 15  1  0  0  0  0
 11 16  1  0  0  0  0
 23 30  1  0  0  0  0
 23 31  1  0  0  0  0
 23 32  1  0  0  0  0
 24 33  1  0  0  0  0
 24 34  1  0  0  0  0
 24 35  1  0  0  0  0
 47 49  1  0  0  0  0
 47 50  1  0  0  0  0
 47 51  1  0  0  0  0
 21 27  1  0  0  0  0
 21 28  1  0  0  0  0
 37 42  1  0  0  0  0
  8 13  1  0  0  0  0
 18 26  1  0  0  0  0
 22 29  1  0  0  0  0
 46 48  1  0  0  0  0
  7 12  1  0  0  0  0
 36 41  1  0  0  0  0
 17 25  1  0  0  0  0
M  END
$$$$

  -OEChem-05262214473D

 51 50  0     1  0  0  0  0  0999 V2000
    3.4018   -1.2440   -3.0186 C   0  0  0  0  0  0  0  0  0  0  0  0
    3.2697   -2.0909   -2.1427 O   0  0  0  0  0  0  0  0  0  0  0  0
    4.6845   -1.1645   -3.7779 C   0  0  0  0  0  0  0  0  0  0  0  0
    5.4123   -0.4862   -3.3041 H   0  0  0  0  0  0  0  0  0  0  0  0
    5.1949   -2.1387   -3.8443 H   0  0  0  0  0  0  0  0  0  0  0  0
    4.5953   -0.8128   -4.8182 H   0  0  0  0  0  0  0  0  0  0  0  0
    2.4540   -0.3103   -3.4040 N   0  0  0  0  0  0  0  0  0  0  0  0
    1.1494   -0.2128   -2.8039 C   0  0  2  0  0  0  0  0  0  0  0  0
    1.3350    0.0367   -1.3130 C   0  0  0  0  0  0  0  0  0  0  0  0
    2.3625   -0.2586   -0.7063 O   0  0  0  0  0  0  0  0  0  0  0  0
    0.3331   -1.4728   -3.0467 C   0  0  0  0  0  0  0  0  0  0  0  0
    2.6924    0.3404   -4.1502 H   0  0  0  0  0  0  0  0  0  0  0  0
    0.6550    0.6514   -3.2607 H   0  0  0  0  0  0  0  0  0  0  0  0
    0.8129   -2.3494   -2.5963 H   0  0  0  0  0  0  0  0  0  0  0  0
   -0.6690   -1.3857   -2.6142 H   0  0  0  0  0  0  0  0  0  0  0  0
    0.2259   -1.6670   -4.1194 H   0  0  0  0  0  0  0  0  0  0  0  0
    0.2019    0.5893   -0.7269 N   0  0  0  0  0  0  0  0  0  0  0  0
    0.1242    0.9059    0.6756 C   0  0  2  0  0  0  0  0  0  0  0  0
   -1.0241    0.0875    1.2577 C   0  0  0  0  0  0  0  0  0  0  0  0
   -1.2075   -0.0430    2.4662 O   0  0  0  0  0  0  0  0  0  0  0  0
   -0.1129    2.4015    0.9209 C   0  0  0  0  0  0  0  0  0  0  0  0
    1.0481    3.3200    0.4881 C   0  0  0  0  0  0  0  0  0  0  0  0
    0.6326    4.7855    0.6446 C   0  0  0  0  0  0  0  0  0  0  0  0
    1.4899    3.0611   -0.9529 C   0  0  0  0  0  0  0  0  0  0  0  0
   -0.5975    0.8179   -1.3140 H   0  0  0  0  0  0  0  0  0  0  0  0
    1.0614    0.5708    1.1312 H   0  0  0  0  0  0  0  0  0  0  0  0
   -0.3053    2.5590    1.9915 H   0  0  0  0  0  0  0  0  0  0  0  0
   -1.0297    2.7143    0.4037 H   0  0  0  0  0  0  0  0  0  0  0  0
    1.9077    3.1484    1.1474 H   0  0  0  0  0  0  0  0  0  0  0  0
   -0.2267    5.0169    0.0062 H   0  0  0  0  0  0  0  0  0  0  0  0
    1.4503    5.4547    0.3565 H   0  0  0  0  0  0  0  0  0  0  0  0
    0.3566    5.0128    1.6800 H   0  0  0  0  0  0  0  0  0  0  0  0
    0.6648    3.2191   -1.6556 H   0  0  0  0  0  0  0  0  0  0  0  0
    2.3070    3.7339   -1.2351 H   0  0  0  0  0  0  0  0  0  0  0  0
    1.8564    2.0382   -1.0801 H   0  0  0  0  0  0  0  0  0  0  0  0
   -1.8452   -0.4349    0.2680 N   0  0  0  0  0  0  0  0  0  0  0  0
   -3.0205   -1.2272    0.5498 C   0  0  2  0  0  0  0  0  0  0  0  0
   -3.7181   -0.6199    1.7598 C   0  0  0  0  0  0  0  0  0  0  0  0
   -3.1405    0.0892    2.5811 O   0  0  0  0  0  0  0  0  0  0  0  0
   -2.6591   -2.6822    0.8043 C   0  0  0  0  0  0  0  0  0  0  0  0
   -1.6271   -0.2511   -0.7068 H   0  0  0  0  0  0  0  0  0  0  0  0
   -3.6730   -1.1478   -0.3266 H   0  0  0  0  0  0  0  0  0  0  0  0
   -2.0056   -2.7817    1.6787 H   0  0  0  0  0  0  0  0  0  0  0  0
   -3.5532   -3.2867    0.9894 H   0  0  0  0  0  0  0  0  0  0  0  0
   -2.1311   -3.1088   -0.0554 H   0  0  0  0  0  0  0  0  0  0  0  0
   -5.0511   -0.9982    1.8381 N   0  0  0  0  0  0  0  0  0  0  0  0
   -5.9239   -0.5627    2.9033 C   0  0  0  0  0  0  0  0  0  0  0  0
   -5.4513   -1.5733    1.1026 H   0  0  0  0  0  0  0  0  0  0  0  0
   -5.9121   -1.3056    3.7144 H   0  0  0  0  0  0  0  0  0  0  0  0
   -5.5758    0.4068    3.2891 H   0  0  0  0  0  0  0  0  0  0  0  0
   -6.9486   -0.4573    2.5175 H   0  0  0  0  0  0  0  0  0  0  0  0
  1  3  1  0  0  0  0
  1  7  1  0  0  0  0
  1  2  2  0  0  0  0
 37 38  1  0  0  0  0
 38 46  1  0  0  0  0
 38 39  2  0  0  0  0
  8  9  1  0  0  0  0
  9 17  1  0  0  0  0
  9 10  2  0  0  0  0
 18 19  1  0  0  0  0
 19 36  1  0  0  0  0
 19 20  2  0  0  0  0
 37 40  1  0  0  0  0
  8 11  1  0  0  0  0
 22 23  1  0  0  0  0
 22 24  1  0  0  0  0
 46 47  1  0  0  0  0
 18 21  1  0  0  0  0
 21 22  1  0  0  0  0
 36 37  1  0  0  0  0
  7  8  1  0  0  0  0
 17 18  1  0  0  0  0
  3  4  1  0  0  0  0
  3  5  1  0  0  0  0
  3  6  1  0  0  0  0
 40 43  1  0  0  0  0
 40 44  1  0  0  0  0
 40 45  1  0  0  0  0
 11 14  1  0  0  0  0
 11 15  1  0  0  0  0
 11 16  1  0  0  0  0
 23 30  1  0  0  0  0
 23 31  1  0  0  0  0
 23 32  1  0  0  0  0
 24 33  1  0  0  0  0
 24 34  1  0  0  0  0
 24 35  1  0  0  0  0
 47 49  1  0  0  0  0
 47 50  1  0  0  0  0
 47 51  1  0  0  0  0
 21 27  1  0  0  0  0
 21 28  1  0  0  0  0
 37 42  1  0  0  0  0
  8 13  1  0  0  0  0
 18 26  1  0  0  0  0
 22 29  1  0  0  0  0
 46 48  1  0  0  0  0
  7 12  1  0  0  0  0
 36 41  1  0  0  0  0
 17 25  1  0  0  0  0
M  END
$$$$

  -OEChem-05262214473D

 51 50  0     1  0  0  0  0  0999 V2000
    3.4018   -1.2440   -3.0186 C   0  0  0  0  0  0  0  0  0  0  0  0
    3.2697   -2.0909   -2.1427 O   0  0  0  0  0  0  0  0  0  0  0  0
    4.6845   -1.1645   -3.7779 C   0  0  0  0  0  0  0  0  0  0  0  0
    5.4123   -0.4862   -3.3041 H   0  0  0  0  0  0  0  0  0  0  0  0
    5.1949   -2.1387   -3.8443 H   0  0  0  0  0  0  0  0  0  0  0  0
    4.5953   -0.8128   -4.8182 H   0  0  0  0  0  0  0  0  0  0  0  0
    2.4540   -0.3103   -3.4040 N   0  0  0  0  0  0  0  0  0  0  0  0
    1.1494   -0.2128   -2.8039 C   0  0  2  0  0  0  0  0  0  0  0  0
    1.3350    0.0367   -1.3130 C   0  0  0  0  0  0  0  0  0  0  0  0
    2.3625   -0.2586   -0.7063 O   0  0  0  0  0  0  0  0  0  0  0  0
    0.3331   -1.4728   -3.0467 C   0  0  0  0  0  0  0  0  0  0  0  0
    2.6924    0.3404   -4.1502 H   0  0  0  0  0  0  0  0  0  0  0  0
    0.6550    0.6514   -3.2607 H   0  0  0  0  0  0  0  0  0  0  0  0
    0.8129   -2.3494   -2.5963 H   0  0  0  0  0  0  0  0  0  0  0  0
   -0.6690   -1.3857   -2.6142 H   0  0  0  0  0  0  0  0  0  0  0  0
    0.2259   -1.6670   -4.1194 H   0  0  0  0  0  0  0  0  0  0  0  0
    0.2019    0.5893   -0.7269 N   0  0  0  0  0  0  0  0  0  0  0  0
    0.1242    0.9059    0.6756 C   0  0  2  0  0  0  0  0  0  0  0  0
   -1.0241    0.0875    1.2577 C   0  0  0  0  0  0  0  0  0  0  0  0
   -1.3733    0.1665    2.4337 O   0  0  0  0  0  0  0  0  0  0  0  0
   -0.1129    2.4015    0.9209 C   0  0  0  0  0  0  0  0  0  0  0  0
    1.0481    3.3200    0.4881 C   0  0  0  0  0  0  0  0  0  0  0  0
    0.6326    4.7855    0.6446 C   0  0  0  0  0  0  0  0  0  0  0  0
    1.4899    3.0611   -0.9529 C   0  0  0  0  0  0  0  0  0  0  0  0
   -0.5975    0.8179   -1.3140 H   0  0  0  0  0  0  0  0  0  0  0  0
    1.0614    0.5708    1.1312 H   0  0  0  0  0  0  0  0  0  0  0  0
   -0.3053    2.5590    1.9915 H   0  0  0  0  0  0  0  0  0  0  0  0
   -1.0297    2.7143    0.4037 H   0  0  0  0  0  0  0  0  0  0  0  0
    1.9077    3.1484    1.1474 H   0  0  0  0  0  0  0  0  0  0  0  0
   -0.2267    5.0169    0.0062 H   0  0  0  0  0  0  0  0  0  0  0  0
    1.4503    5.4547    0.3565 H   0  0  0  0  0  0  0  0  0  0  0  0
    0.3566    5.0128    1.6800 H   0  0  0  0  0  0  0  0  0  0  0  0
    0.6648    3.2191   -1.6556 H   0  0  0  0  0  0  0  0  0  0  0  0
    2.3070    3.7339   -1.2351 H   0  0  0  0  0  0  0  0  0  0  0  0
    1.8564    2.0382   -1.0801 H   0  0  0  0  0  0  0  0  0  0  0  0
   -1.6415   -0.7005    0.2963 N   0  0  0  0  0  0  0  0  0  0  0  0
   -2.7741   -1.5529    0.5780 C   0  0  2  0  0  0  0  0  0  0  0  0
   -3.6928   -0.8116    1.5402 C   0  0  0  0  0  0  0  0  0  0  0  0
   -3.3061    0.0996    2.2691 O   0  0  0  0  0  0  0  0  0  0  0  0
   -2.3321   -2.8842    1.1654 C   0  0  0  0  0  0  0  0  0  0  0  0
   -1.2974   -0.6798   -0.6591 H   0  0  0  0  0  0  0  0  0  0  0  0
   -3.2934   -1.7135   -0.3731 H   0  0  0  0  0  0  0  0  0  0  0  0
   -1.8098   -2.7435    2.1187 H   0  0  0  0  0  0  0  0  0  0  0  0
   -3.1891   -3.5398    1.3516 H   0  0  0  0  0  0  0  0  0  0  0  0
   -1.6478   -3.4024    0.4849 H   0  0  0  0  0  0  0  0  0  0  0  0
   -4.9856   -1.3160    1.5205 N   0  0  0  0  0  0  0  0  0  0  0  0
   -6.0408   -0.7892    2.3542 C   0  0  0  0  0  0  0  0  0  0  0  0
   -5.2217   -2.0603    0.8708 H   0  0  0  0  0  0  0  0  0  0  0  0
   -6.0867   -1.3604    3.2931 H   0  0  0  0  0  0  0  0  0  0  0  0
   -5.8376    0.2684    2.5780 H   0  0  0  0  0  0  0  0  0  0  0  0
   -7.0021   -0.8741    1.8261 H   0  0  0  0  0  0  0  0  0  0  0  0
  1  3  1  0  0  0  0
  1  7  1  0  0  0  0
  1  2  2  0  0  0  0
 37 38  1  0  0  0  0
 38 46  1  0  0  0  0
 38 39  2  0  0  0  0
  8  9  1  0  0  0  0
  9 17  1  0  0  0  0
  9 10  2  0  0  0  0
 18 19  1  0  0  0  0
 19 36  1  0  0  0  0
 19 20  2  0  0  0  0
 37 40  1  0  0  0  0
  8 11  1  0  0  0  0
 22 23  1  0  0  0  0
 22 24  1  0  0  0  0
 46 47  1  0  0  0  0
 18 21  1  0  0  0  0
 21 22  1  0  0  0  0
 36 37  1  0  0  0  0
  7  8  1  0  0  0  0
 17 18  1  0  0  0  0
  3  4  1  0  0  0  0
  3  5  1  0  0  0  0
  3  6  1  0  0  0  0
 40 43  1  0  0  0  0
 40 44  1  0  0  0  0
 40 45  1  0  0  0  0
 11 14  1  0  0  0  0
 11 15  1  0  0  0  0
 11 16  1  0  0  0  0
 23 30  1  0  0  0  0
 23 31  1  0  0  0  0
 23 32  1  0  0  0  0
 24 33  1  0  0  0  0
 24 34  1  0  0  0  0
 24 35  1  0  0  0  0
 47 49  1  0  0  0  0
 47 50  1  0  0  0  0
 47 51  1  0  0  0  0
 21 27  1  0  0  0  0
 21 28  1  0  0  0  0
 37 42  1  0  0  0  0
  8 13  1  0  0  0  0
 18 26  1  0  0  0  0
 22 29  1  0  0  0  0
 46 48  1  0  0  0  0
  7 12  1  0  0  0  0
 36 41  1  0  0  0  0
 17 25  1  0  0  0  0
M  END
$$$$

  -OEChem-05262214473D

 51 50  0     1  0  0  0  0  0999 V2000
    3.4018   -1.2440   -3.0186 C   0  0  0  0  0  0  0  0  0  0  0  0
    3.2697   -2.0909   -2.1427 O   0  0  0  0  0  0  0  0  0  0  0  0
    4.6845   -1.1645   -3.7779 C   0  0  0  0  0  0  0  0  0  0  0  0
    5.4123   -0.4862   -3.3041 H   0  0  0  0  0  0  0  0  0  0  0  0
    5.1949   -2.1387   -3.8443 H   0  0  0  0  0  0  0  0  0  0  0  0
    4.5953   -0.8128   -4.8182 H   0  0  0  0  0  0  0  0  0  0  0  0
    2.4540   -0.3103   -3.4040 N   0  0  0  0  0  0  0  0  0  0  0  0
    1.1494   -0.2128   -2.8039 C   0  0  2  0  0  0  0  0  0  0  0  0
    1.3350    0.0367   -1.3130 C   0  0  0  0  0  0  0  0  0  0  0  0
    2.3625   -0.2586   -0.7063 O   0  0  0  0  0  0  0  0  0  0  0  0
    0.3331   -1.4728   -3.0467 C   0  0  0  0  0  0  0  0  0  0  0  0
    2.6924    0.3404   -4.1502 H   0  0  0  0  0  0  0  0  0  0  0  0
    0.6550    0.6514   -3.2607 H   0  0  0  0  0  0  0  0  0  0  0  0
    0.8129   -2.3494   -2.5963 H   0  0  0  0  0  0  0  0  0  0  0  0
   -0.6690   -1.3857   -2.6142 H   0  0  0  0  0  0  0  0  0  0  0  0
    0.2259   -1.6670   -4.1194 H   0  0  0  0  0  0  0  0  0  0  0  0
    0.2019    0.5893   -0.7269 N   0  0  0  0  0  0  0  0  0  0  0  0
    0.1242    0.9059    0.6756 C   0  0  2  0  0  0  0  0  0  0  0  0
   -1.0241    0.0875    1.2577 C   0  0  0  0  0  0  0  0  0  0  0  0
   -1.5497    0.3462    2.3384 O   0  0  0  0  0  0  0  0  0  0  0  0
   -0.1129    2.4015    0.9209 C   0  0  0  0  0  0  0  0  0  0  0  0
    1.0481    3.3200    0.4881 C   0  0  0  0  0  0  0  0  0  0  0  0
    0.6326    4.7855    0.6446 C   0  0  0  0  0  0  0  0  0  0  0  0
    1.4899    3.0611   -0.9529 C   0  0  0  0  0  0  0  0  0  0  0  0
   -0.5975    0.8179   -1.3140 H   0  0  0  0  0  0  0  0  0  0  0  0
    1.0614    0.5708    1.1312 H   0  0  0  0  0  0  0  0  0  0  0  0
   -0.3053    2.5590    1.9915 H   0  0  0  0  0  0  0  0  0  0  0  0
   -1.0297    2.7143    0.4037 H   0  0  0  0  0  0  0  0  0  0  0  0
    1.9077    3.1484    1.1474 H   0  0  0  0  0  0  0  0  0  0  0  0
   -0.2267    5.0169    0.0062 H   0  0  0  0  0  0  0  0  0  0  0  0
    1.4503    5.4547    0.3565 H   0  0  0  0  0  0  0  0  0  0  0  0
    0.3566    5.0128    1.6800 H   0  0  0  0  0  0  0  0  0  0  0  0
    0.6648    3.2191   -1.6556 H   0  0  0  0  0  0  0  0  0  0  0  0
    2.3070    3.7339   -1.2351 H   0  0  0  0  0  0  0  0  0  0  0  0
    1.8564    2.0382   -1.0801 H   0  0  0  0  0  0  0  0  0  0  0  0
   -1.4225   -0.9314    0.4036 N   0  0  0  0  0  0  0  0  0  0  0  0
   -2.5077   -1.8377    0.7029 C   0  0  2  0  0  0  0  0  0  0  0  0
   -3.6189   -1.0370    1.3689 C   0  0  0  0  0  0  0  0  0  0  0  0
   -3.4238    0.0325    1.9426 O   0  0  0  0  0  0  0  0  0  0  0  0
   -2.0464   -2.9766    1.5989 C   0  0  0  0  0  0  0  0  0  0  0  0
   -0.9432   -1.0519   -0.4838 H   0  0  0  0  0  0  0  0  0  0  0  0
   -2.8643   -2.2315   -0.2551 H   0  0  0  0  0  0  0  0  0  0  0  0
   -1.6855   -2.6015    2.5635 H   0  0  0  0  0  0  0  0  0  0  0  0
   -2.8627   -3.6778    1.8014 H   0  0  0  0  0  0  0  0  0  0  0  0
   -1.2270   -3.5331    1.1311 H   0  0  0  0  0  0  0  0  0  0  0  0
   -4.8468   -1.6784    1.2847 N   0  0  0  0  0  0  0  0  0  0  0  0
   -6.0552   -1.1265    1.8516 C   0  0  0  0  0  0  0  0  0  0  0  0
   -4.9196   -2.5532    0.7737 H   0  0  0  0  0  0  0  0  0  0  0  0
   -6.1914   -1.5126    2.8726 H   0  0  0  0  0  0  0  0  0  0  0  0
   -5.9782   -0.0296    1.8818 H   0  0  0  0  0  0  0  0  0  0  0  0
   -6.9165   -1.4167    1.2321 H   0  0  0  0  0  0  0  0  0  0  0  0
  1  3  1  0  0  0  0
  1  7  1  0  0  0  0
  1  2  2  0  0  0  0
 37 38  1  0  0  0  0
 38 46  1  0  0  0  0
 38 39  2  0  0  0  0
  8  9  1  0  0  0  0
  9 17  1  0  0  0  0
  9 10  2  0  0  0  0
 18 19  1  0  0  0  0
 19 36  1  0  0  0  0
 19 20  2  0  0  0  0
 37 40  1  0  0  0  0
  8 11  1  0  0  0  0
 22 23  1  0  0  0  0
 22 24  1  0  0  0  0
 46 47  1  0  0  0  0
 18 21  1  0  0  0  0
 21 22  1  0  0  0  0
 36 37  1  0  0  0  0
  7  8  1  0  0  0  0
 17 18  1  0  0  0  0
  3  4  1  0  0  0  0
  3  5  1  0  0  0  0
  3  6  1  0  0  0  0
 40 43  1  0  0  0  0
 40 44  1  0  0  0  0
 40 45  1  0  0  0  0
 11 14  1  0  0  0  0
 11 15  1  0  0  0  0
 11 16  1  0  0  0  0
 23 30  1  0  0  0  0
 23 31  1  0  0  0  0
 23 32  1  0  0  0  0
 24 33  1  0  0  0  0
 24 34  1  0  0  0  0
 24 35  1  0  0  0  0
 47 49  1  0  0  0  0
 47 50  1  0  0  0  0
 47 51  1  0  0  0  0
 21 27  1  0  0  0  0
 21 28  1  0  0  0  0
 37 42  1  0  0  0  0
  8 13  1  0  0  0  0
 18 26  1  0  0  0  0
 22 29  1  0  0  0  0
 46 48  1  0  0  0  0
  7 12  1  0  0  0  0
 36 41  1  0  0  0  0
 17 25  1  0  0  0  0
M  END
$$$$

  -OEChem-05262214473D

 51 50  0     1  0  0  0  0  0999 V2000
    3.4018   -1.2440   -3.0186 C   0  0  0  0  0  0  0  0  0  0  0  0
    3.2697   -2.0909   -2.1427 O   0  0  0  0  0  0  0  0  0  0  0  0
    4.6845   -1.1645   -3.7779 C   0  0  0  0  0  0  0  0  0  0  0  0
    5.4123   -0.4862   -3.3041 H   0  0  0  0  0  0  0  0  0  0  0  0
    5.1949   -2.1387   -3.8443 H   0  0  0  0  0  0  0  0  0  0  0  0
    4.5953   -0.8128   -4.8182 H   0  0  0  0  0  0  0  0  0  0  0  0
    2.4540   -0.3103   -3.4040 N   0  0  0  0  0  0  0  0  0  0  0  0
    1.1494   -0.2128   -2.8039 C   0  0  2  0  0  0  0  0  0  0  0  0
    1.3350    0.0367   -1.3130 C   0  0  0  0  0  0  0  0  0  0  0  0
    2.3625   -0.2586   -0.7063 O   0  0  0  0  0  0  0  0  0  0  0  0
    0.3331   -1.4728   -3.0467 C   0  0  0  0  0  0  0  0  0  0  0  0
    2.6924    0.3404   -4.1502 H   0  0  0  0  0  0  0  0  0  0  0  0
    0.6550    0.6514   -3.2607 H   0  0  0  0  0  0  0  0  0  0  0  0
    0.8129   -2.3494   -2.5963 H   0  0  0  0  0  0  0  0  0  0  0  0
   -0.6690   -1.3857   -2.6142 H   0  0  0  0  0  0  0  0  0  0  0  0
    0.2259   -1.6670   -4.1194 H   0  0  0  0  0  0  0  0  0  0  0  0
    0.2019    0.5893   -0.7269 N   0  0  0  0  0  0  0  0  0  0  0  0
    0.1242    0.9059    0.6756 C   0  0  2  0  0  0  0  0  0  0  0  0
   -1.0241    0.0875    1.2577 C   0  0  0  0  0  0  0  0  0  0  0  0
   -1.7246    0.4838    2.1869 O   0  0  0  0  0  0  0  0  0  0  0  0
   -0.1129    2.4015    0.9209 C   0  0  0  0  0  0  0  0  0  0  0  0
    1.0481    3.3200    0.4881 C   0  0  0  0  0  0  0  0  0  0  0  0
    0.6326    4.7855    0.6446 C   0  0  0  0  0  0  0  0  0  0  0  0
    1.4899    3.0611   -0.9529 C   0  0  0  0  0  0  0  0  0  0  0  0
   -0.5975    0.8179   -1.3140 H   0  0  0  0  0  0  0  0  0  0  0  0
    1.0614    0.5708    1.1312 H   0  0  0  0  0  0  0  0  0  0  0  0
   -0.3053    2.5590    1.9915 H   0  0  0  0  0  0  0  0  0  0  0  0
   -1.0297    2.7143    0.4037 H   0  0  0  0  0  0  0  0  0  0  0  0
    1.9077    3.1484    1.1474 H   0  0  0  0  0  0  0  0  0  0  0  0
   -0.2267    5.0169    0.0062 H   0  0  0  0  0  0  0  0  0  0  0  0
    1.4503    5.4547    0.3565 H   0  0  0  0  0  0  0  0  0  0  0  0
    0.3566    5.0128    1.6800 H   0  0  0  0  0  0  0  0  0  0  0  0
    0.6648    3.2191   -1.6556 H   0  0  0  0  0  0  0  0  0  0  0  0
    2.3070    3.7339   -1.2351 H   0  0  0  0  0  0  0  0  0  0  0  0
    1.8564    2.0382   -1.0801 H   0  0  0  0  0  0  0  0  0  0  0  0
   -1.2030   -1.1120    0.5826 N   0  0  0  0  0  0  0  0  0  0  0  0
   -2.2397   -2.0622    0.9160 C   0  0  2  0  0  0  0  0  0  0  0  0
   -3.5016   -1.2808    1.2577 C   0  0  0  0  0  0  0  0  0  0  0  0
   -3.4855   -0.1075    1.6241 O   0  0  0  0  0  0  0  0  0  0  0  0
   -1.8215   -2.9532    2.0753 C   0  0  0  0  0  0  0  0  0  0  0  0
   -0.5887   -1.3423   -0.1927 H   0  0  0  0  0  0  0  0  0  0  0  0
   -2.4152   -2.6664    0.0193 H   0  0  0  0  0  0  0  0  0  0  0  0
   -1.6413   -2.3654    2.9827 H   0  0  0  0  0  0  0  0  0  0  0  0
   -2.5963   -3.6912    2.3080 H   0  0  0  0  0  0  0  0  0  0  0  0
   -0.8975   -3.4919    1.8392 H   0  0  0  0  0  0  0  0  0  0  0  0
   -4.6443   -2.0606    1.1469 N   0  0  0  0  0  0  0  0  0  0  0  0
   -5.9659   -1.5516    1.4300 C   0  0  0  0  0  0  0  0  0  0  0  0
   -4.5657   -3.0184    0.8179 H   0  0  0  0  0  0  0  0  0  0  0  0
   -6.2191   -1.7519    2.4815 H   0  0  0  0  0  0  0  0  0  0  0  0
   -5.9878   -0.4670    1.2479 H   0  0  0  0  0  0  0  0  0  0  0  0
   -6.6978   -2.0481    0.7758 H   0  0  0  0  0  0  0  0  0  0  0  0
  1  3  1  0  0  0  0
  1  7  1  0  0  0  0
  1  2  2  0  0  0  0
 37 38  1  0  0  0  0
 38 46  1  0  0  0  0
 38 39  2  0  0  0  0
  8  9  1  0  0  0  0
  9 17  1  0  0  0  0
  9 10  2  0  0  0  0
 18 19  1  0  0  0  0
 19 36  1  0  0  0  0
 19 20  2  0  0  0  0
 37 40  1  0  0  0  0
  8 11  1  0  0  0  0
 22 23  1  0  0  0  0
 22 24  1  0  0  0  0
 46 47  1  0  0  0  0
 18 21  1  0  0  0  0
 21 22  1  0  0  0  0
 36 37  1  0  0  0  0
  7  8  1  0  0  0  0
 17 18  1  0  0  0  0
  3  4  1  0  0  0  0
  3  5  1  0  0  0  0
  3  6  1  0  0  0  0
 40 43  1  0  0  0  0
 40 44  1  0  0  0  0
 40 45  1  0  0  0  0
 11 14  1  0  0  0  0
 11 15  1  0  0  0  0
 11 16  1  0  0  0  0
 23 30  1  0  0  0  0
 23 31  1  0  0  0  0
 23 32  1  0  0  0  0
 24 33  1  0  0  0  0
 24 34  1  0  0  0  0
 24 35  1  0  0  0  0
 47 49  1  0  0  0  0
 47 50  1  0  0  0  0
 47 51  1  0  0  0  0
 21 27  1  0  0  0  0
 21 28  1  0  0  0  0
 37 42  1  0  0  0  0
  8 13  1  0  0  0  0
 18 26  1  0  0  0  0
 22 29  1  0  0  0  0
 46 48  1  0  0  0  0
  7 12  1  0  0  0  0
 36 41  1  0  0  0  0
 17 25  1  0  0  0  0
M  END
$$$$

  -OEChem-05262214473D

 51 50  0     1  0  0  0  0  0999 V2000
    3.4018   -1.2440   -3.0186 C   0  0  0  0  0  0  0  0  0  0  0  0
    3.2697   -2.0909   -2.1427 O   0  0  0  0  0  0  0  0  0  0  0  0
    4.6845   -1.1645   -3.7779 C   0  0  0  0  0  0  0  0  0  0  0  0
    5.4123   -0.4862   -3.3041 H   0  0  0  0  0  0  0  0  0  0  0  0
    5.1949   -2.1387   -3.8443 H   0  0  0  0  0  0  0  0  0  0  0  0
    4.5953   -0.8128   -4.8182 H   0  0  0  0  0  0  0  0  0  0  0  0
    2.4540   -0.3103   -3.4040 N   0  0  0  0  0  0  0  0  0  0  0  0
    1.1494   -0.2128   -2.8039 C   0  0  2  0  0  0  0  0  0  0  0  0
    1.3350    0.0367   -1.3130 C   0  0  0  0  0  0  0  0  0  0  0  0
    2.3625   -0.2586   -0.7063 O   0  0  0  0  0  0  0  0  0  0  0  0
    0.3331   -1.4728   -3.0467 C   0  0  0  0  0  0  0  0  0  0  0  0
    2.6924    0.3404   -4.1502 H   0  0  0  0  0  0  0  0  0  0  0  0
    0.6550    0.6514   -3.2607 H   0  0  0  0  0  0  0  0  0  0  0  0
    0.8129   -2.3494   -2.5963 H   0  0  0  0  0  0  0  0  0  0  0  0
   -0.6690   -1.3857   -2.6142 H   0  0  0  0  0  0  0  0  0  0  0  0
    0.2259   -1.6670   -4.1194 H   0  0  0  0  0  0  0  0  0  0  0  0
    0.2019    0.5893   -0.7269 N   0  0  0  0  0  0  0  0  0  0  0  0
    0.1242    0.9059    0.6756 C   0  0  2  0  0  0  0  0  0  0  0  0
   -1.0241    0.0875    1.2577 C   0  0  0  0  0  0  0  0  0  0  0  0
   -1.8860    0.5699    1.9895 O   0  0  0  0  0  0  0  0  0  0  0  0
   -0.1129    2.4015    0.9209 C   0  0  0  0  0  0  0  0  0  0  0  0
    1.0481    3.3200    0.4881 C   0  0  0  0  0  0  0  0  0  0  0  0
    0.6326    4.7855    0.6446 C   0  0  0  0  0  0  0  0  0  0  0  0
    1.4899    3.0611   -0.9529 C   0  0  0  0  0  0  0  0  0  0  0  0
   -0.5975    0.8179   -1.3140 H   0  0  0  0  0  0  0  0  0  0  0  0
    1.0614    0.5708    1.1312 H   0  0  0  0  0  0  0  0  0  0  0  0
   -0.3053    2.5590    1.9915 H   0  0  0  0  0  0  0  0  0  0  0  0
   -1.0297    2.7143    0.4037 H   0  0  0  0  0  0  0  0  0  0  0  0
    1.9077    3.1484    1.1474 H   0  0  0  0  0  0  0  0  0  0  0  0
   -0.2267    5.0169    0.0062 H   0  0  0  0  0  0  0  0  0  0  0  0
    1.4503    5.4547    0.3565 H   0  0  0  0  0  0  0  0  0  0  0  0
    0.3566    5.0128    1.6800 H   0  0  0  0  0  0  0  0  0  0  0  0
    0.6648    3.2191   -1.6556 H   0  0  0  0  0  0  0  0  0  0  0  0
    2.3070    3.7339   -1.2351 H   0  0  0  0  0  0  0  0  0  0  0  0
    1.8564    2.0382   -1.0801 H   0  0  0  0  0  0  0  0  0  0  0  0
   -0.9981   -1.2298    0.8212 N   0  0  0  0  0  0  0  0  0  0  0  0
   -1.9882   -2.2110    1.2029 C   0  0  2  0  0  0  0  0  0  0  0  0
   -3.3487   -1.5264    1.2140 C   0  0  0  0  0  0  0  0  0  0  0  0
   -3.4870   -0.3110    1.3351 O   0  0  0  0  0  0  0  0  0  0  0  0
   -1.6728   -2.8156    2.5621 C   0  0  0  0  0  0  0  0  0  0  0  0
   -0.2580   -1.5310    0.1942 H   0  0  0  0  0  0  0  0  0  0  0  0
   -1.9764   -2.9888    0.4315 H   0  0  0  0  0  0  0  0  0  0  0  0
   -1.6800   -2.0513    3.3478 H   0  0  0  0  0  0  0  0  0  0  0  0
   -2.4080   -3.5791    2.8370 H   0  0  0  0  0  0  0  0  0  0  0  0
   -0.6815   -3.2815    2.5609 H   0  0  0  0  0  0  0  0  0  0  0  0
   -4.3917   -2.4367    1.1163 N   0  0  0  0  0  0  0  0  0  0  0  0
   -5.7792   -2.0356    1.1179 C   0  0  0  0  0  0  0  0  0  0  0  0
   -4.1840   -3.4242    1.0003 H   0  0  0  0  0  0  0  0  0  0  0  0
   -6.1679   -2.0620    2.1466 H   0  0  0  0  0  0  0  0  0  0  0  0
   -5.8659   -1.0140    0.7194 H   0  0  0  0  0  0  0  0  0  0  0  0
   -6.3608   -2.7253    0.4885 H   0  0  0  0  0  0  0  0  0  0  0  0
  1  3  1  0  0  0  0
  1  7  1  0  0  0  0
  1  2  2  0  0  0  0
 37 38  1  0  0  0  0
 38 46  1  0  0  0  0
 38 39  2  0  0  0  0
  8  9  1  0  0  0  0
  9 17  1  0  0  0  0
  9 10  2  0  0  0  0
 18 19  1  0  0  0  0
 19 36  1  0  0  0  0
 19 20  2  0  0  0  0
 37 40  1  0  0  0  0
  8 11  1  0  0  0  0
 22 23  1  0  0  0  0
 22 24  1  0  0  0  0
 46 47  1  0  0  0  0
 18 21  1  0  0  0  0
 21 22  1  0  0  0  0
 36 37  1  0  0  0  0
  7  8  1  0  0  0  0
 17 18  1  0  0  0  0
  3  4  1  0  0  0  0
  3  5  1  0  0  0  0
  3  6  1  0  0  0  0
 40 43  1  0  0  0  0
 40 44  1  0  0  0  0
 40 45  1  0  0  0  0
 11 14  1  0  0  0  0
 11 15  1  0  0  0  0
 11 16  1  0  0  0  0
 23 30  1  0  0  0  0
 23 31  1  0  0  0  0
 23 32  1  0  0  0  0
 24 33  1  0  0  0  0
 24 34  1  0  0  0  0
 24 35  1  0  0  0  0
 47 49  1  0  0  0  0
 47 50  1  0  0  0  0
 47 51  1  0  0  0  0
 21 27  1  0  0  0  0
 21 28  1  0  0  0  0
 37 42  1  0  0  0  0
  8 13  1  0  0  0  0
 18 26  1  0  0  0  0
 22 29  1  0  0  0  0
 46 48  1  0  0  0  0
  7 12  1  0  0  0  0
 36 41  1  0  0  0  0
 17 25  1  0  0  0  0
M  END
$$$$

  -OEChem-05262214473D

 51 50  0     1  0  0  0  0  0999 V2000
    3.4018   -1.2440   -3.0186 C   0  0  0  0  0  0  0  0  0  0  0  0
    3.2697   -2.0909   -2.1427 O   0  0  0  0  0  0  0  0  0  0  0  0
    4.6845   -1.1645   -3.7779 C   0  0  0  0  0  0  0  0  0  0  0  0
    5.4123   -0.4862   -3.3041 H   0  0  0  0  0  0  0  0  0  0  0  0
    5.1949   -2.1387   -3.8443 H   0  0  0  0  0  0  0  0  0  0  0  0
    4.5953   -0.8128   -4.8182 H   0  0  0  0  0  0  0  0  0  0  0  0
    2.4540   -0.3103   -3.4040 N   0  0  0  0  0  0  0  0  0  0  0  0
    1.1494   -0.2128   -2.8039 C   0  0  2  0  0  0  0  0  0  0  0  0
    1.3350    0.0367   -1.3130 C   0  0  0  0  0  0  0  0  0  0  0  0
    2.3625   -0.2586   -0.7063 O   0  0  0  0  0  0  0  0  0  0  0  0
    0.3331   -1.4728   -3.0467 C   0  0  0  0  0  0  0  0  0  0  0  0
    2.6924    0.3404   -4.1502 H   0  0  0  0  0  0  0  0  0  0  0  0
    0.6550    0.6514   -3.2607 H   0  0  0  0  0  0  0  0  0  0  0  0
    0.8129   -2.3494   -2.5963 H   0  0  0  0  0  0  0  0  0  0  0  0
   -0.6690   -1.3857   -2.6142 H   0  0  0  0  0  0  0  0  0  0  0  0
    0.2259   -1.6670   -4.1194 H   0  0  0  0  0  0  0  0  0  0  0  0
    0.2019    0.5893   -0.7269 N   0  0  0  0  0  0  0  0  0  0  0  0
    0.1242    0.9059    0.6756 C   0  0  2  0  0  0  0  0  0  0  0  0
   -1.0241    0.0875    1.2577 C   0  0  0  0  0  0  0  0  0  0  0  0
   -2.0231    0.5986    1.7596 O   0  0  0  0  0  0  0  0  0  0  0  0
   -0.1129    2.4015    0.9209 C   0  0  0  0  0  0  0  0  0  0  0  0
    1.0481    3.3200    0.4881 C   0  0  0  0  0  0  0  0  0  0  0  0
    0.6326    4.7855    0.6446 C   0  0  0  0  0  0  0  0  0  0  0  0
    1.4899    3.0611   -0.9529 C   0  0  0  0  0  0  0  0  0  0  0  0
   -0.5975    0.8179   -1.3140 H   0  0  0  0  0  0  0  0  0  0  0  0
    1.0614    0.5708    1.1312 H   0  0  0  0  0  0  0  0  0  0  0  0
   -0.3053    2.5590    1.9915 H   0  0  0  0  0  0  0  0  0  0  0  0
   -1.0297    2.7143    0.4037 H   0  0  0  0  0  0  0  0  0  0  0  0
    1.9077    3.1484    1.1474 H   0  0  0  0  0  0  0  0  0  0  0  0
   -0.2267    5.0169    0.0062 H   0  0  0  0  0  0  0  0  0  0  0  0
    1.4503    5.4547    0.3565 H   0  0  0  0  0  0  0  0  0  0  0  0
    0.3566    5.0128    1.6800 H   0  0  0  0  0  0  0  0  0  0  0  0
    0.6648    3.2191   -1.6556 H   0  0  0  0  0  0  0  0  0  0  0  0
    2.3070    3.7339   -1.2351 H   0  0  0  0  0  0  0  0  0  0  0  0
    1.8564    2.0382   -1.0801 H   0  0  0  0  0  0  0  0  0  0  0  0
   -0.8216   -1.2769    1.1031 N   0  0  0  0  0  0  0  0  0  0  0  0
   -1.7704   -2.2740    1.5438 C   0  0  2  0  0  0  0  0  0  0  0  0
   -3.1706   -1.7570    1.2409 C   0  0  0  0  0  0  0  0  0  0  0  0
   -3.4283   -0.5639    1.0953 O   0  0  0  0  0  0  0  0  0  0  0  0
   -1.6103   -2.5731    3.0262 C   0  0  0  0  0  0  0  0  0  0  0  0
    0.0264   -1.6053    0.6506 H   0  0  0  0  0  0  0  0  0  0  0  0
   -1.5781   -3.1765    0.9534 H   0  0  0  0  0  0  0  0  0  0  0  0
   -1.7992   -1.6806    3.6339 H   0  0  0  0  0  0  0  0  0  0  0  0
   -2.3106   -3.3492    3.3523 H   0  0  0  0  0  0  0  0  0  0  0  0
   -0.5938   -2.9164    3.2470 H   0  0  0  0  0  0  0  0  0  0  0  0
   -4.1064   -2.7810    1.1951 N   0  0  0  0  0  0  0  0  0  0  0  0
   -5.5077   -2.5455    0.9366 C   0  0  0  0  0  0  0  0  0  0  0  0
   -3.8005   -3.7429    1.3086 H   0  0  0  0  0  0  0  0  0  0  0  0
   -6.0413   -2.4217    1.8905 H   0  0  0  0  0  0  0  0  0  0  0  0
   -5.6207   -1.6332    0.3324 H   0  0  0  0  0  0  0  0  0  0  0  0
   -5.9286   -3.4020    0.3897 H   0  0  0  0  0  0  0  0  0  0  0  0
  1  3  1  0  0  0  0
  1  7  1  0  0  0  0
  1  2  2  0  0  0  0
 37 38  1  0  0  0  0
 38 46  1  0  0  0  0
 38 39  2  0  0  0  0
  8  9  1  0  0  0  0
  9 17  1  0  0  0  0
  9 10  2  0  0  0  0
 18 19  1  0  0  0  0
 19 36  1  0  0  0  0
 19 20  2  0  0  0  0
 37 40  1  0  0  0  0
  8 11  1  0  0  0  0
 22 23  1  0  0  0  0
 22 24  1  0  0  0  0
 46 47  1  0  0  0  0
 18 21  1  0  0  0  0
 21 22  1  0  0  0  0
 36 37  1  0  0  0  0
  7  8  1  0  0  0  0
 17 18  1  0  0  0  0
  3  4  1  0  0  0  0
  3  5  1  0  0  0  0
  3  6  1  0  0  0  0
 40 43  1  0  0  0  0
 40 44  1  0  0  0  0
 40 45  1  0  0  0  0
 11 14  1  0  0  0  0
 11 15  1  0  0  0  0
 11 16  1  0  0  0  0
 23 30  1  0  0  0  0
 23 31  1  0  0  0  0
 23 32  1  0  0  0  0
 24 33  1  0  0  0  0
 24 34  1  0  0  0  0
 24 35  1  0  0  0  0
 47 49  1  0  0  0  0
 47 50  1  0  0  0  0
 47 51  1  0  0  0  0
 21 27  1  0  0  0  0
 21 28  1  0  0  0  0
 37 42  1  0  0  0  0
  8 13  1  0  0  0  0
 18 26  1  0  0  0  0
 22 29  1  0  0  0  0
 46 48  1  0  0  0  0
  7 12  1  0  0  0  0
 36 41  1  0  0  0  0
 17 25  1  0  0  0  0
M  END
$$$$

  -OEChem-05262214473D

 51 50  0     1  0  0  0  0  0999 V2000
    3.4018   -1.2440   -3.0186 C   0  0  0  0  0  0  0  0  0  0  0  0
    3.2697   -2.0909   -2.1427 O   0  0  0  0  0  0  0  0  0  0  0  0
    4.6845   -1.1645   -3.7779 C   0  0  0  0  0  0  0  0  0  0  0  0
    5.4123   -0.4862   -3.3041 H   0  0  0  0  0  0  0  0  0  0  0  0
    5.1949   -2.1387   -3.8443 H   0  0  0  0  0  0  0  0  0  0  0  0
    4.5953   -0.8128   -4.8182 H   0  0  0  0  0  0  0  0  0  0  0  0
    2.4540   -0.3103   -3.4040 N   0  0  0  0  0  0  0  0  0  0  0  0
    1.1494   -0.2128   -2.8039 C   0  0  2  0  0  0  0  0  0  0  0  0
    1.3350    0.0367   -1.3130 C   0  0  0  0  0  0  0  0  0  0  0  0
    2.3625   -0.2586   -0.7063 O   0  0  0  0  0  0  0  0  0  0  0  0
    0.3331   -1.4728   -3.0467 C   0  0  0  0  0  0  0  0  0  0  0  0
    2.6924    0.3404   -4.1502 H   0  0  0  0  0  0  0  0  0  0  0  0
    0.6550    0.6514   -3.2607 H   0  0  0  0  0  0  0  0  0  0  0  0
    0.8129   -2.3494   -2.5963 H   0  0  0  0  0  0  0  0  0  0  0  0
   -0.6690   -1.3857   -2.6142 H   0  0  0  0  0  0  0  0  0  0  0  0
    0.2259   -1.6670   -4.1194 H   0  0  0  0  0  0  0  0  0  0  0  0
    0.2019    0.5893   -0.7269 N   0  0  0  0  0  0  0  0  0  0  0  0
    0.1242    0.9059    0.6756 C   0  0  2  0  0  0  0  0  0  0  0  0
   -1.0241    0.0875    1.2577 C   0  0  0  0  0  0  0  0  0  0  0  0
   -2.1264    0.5681    1.5129 O   0  0  0  0  0  0  0  0  0  0  0  0
   -0.1129    2.4015    0.9209 C   0  0  0  0  0  0  0  0  0  0  0  0
    1.0481    3.3200    0.4881 C   0  0  0  0  0  0  0  0  0  0  0  0
    0.6326    4.7855    0.6446 C   0  0  0  0  0  0  0  0  0  0  0  0
    1.4899    3.0611   -0.9529 C   0  0  0  0  0  0  0  0  0  0  0  0
   -0.5975    0.8179   -1.3140 H   0  0  0  0  0  0  0  0  0  0  0  0
    1.0614    0.5708    1.1312 H   0  0  0  0  0  0  0  0  0  0  0  0
   -0.3053    2.5590    1.9915 H   0  0  0  0  0  0  0  0  0  0  0  0
   -1.0297    2.7143    0.4037 H   0  0  0  0  0  0  0  0  0  0  0  0
    1.9077    3.1484    1.1474 H   0  0  0  0  0  0  0  0  0  0  0  0
   -0.2267    5.0169    0.0062 H   0  0  0  0  0  0  0  0  0  0  0  0
    1.4503    5.4547    0.3565 H   0  0  0  0  0  0  0  0  0  0  0  0
    0.3566    5.0128    1.6800 H   0  0  0  0  0  0  0  0  0  0  0  0
    0.6648    3.2191   -1.6556 H   0  0  0  0  0  0  0  0  0  0  0  0
    2.3070    3.7339   -1.2351 H   0  0  0  0  0  0  0  0  0  0  0  0
    1.8564    2.0382   -1.0801 H   0  0  0  0  0  0  0  0  0  0  0  0
   -0.6856   -1.2501    1.4090 N   0  0  0  0  0  0  0  0  0  0  0  0
   -1.6012   -2.2469    1.9157 C   0  0  2  0  0  0  0  0  0  0  0  0
   -2.9796   -1.9570    1.3366 C   0  0  0  0  0  0  0  0  0  0  0  0
   -3.3132   -0.8492    0.9212 O   0  0  0  0  0  0  0  0  0  0  0  0
   -1.6384   -2.2423    3.4360 C   0  0  0  0  0  0  0  0  0  0  0  0
    0.2450   -1.5601    1.1455 H   0  0  0  0  0  0  0  0  0  0  0  0
   -1.2472   -3.2168    1.5494 H   0  0  0  0  0  0  0  0  0  0  0  0
   -1.9907   -1.2786    3.8214 H   0  0  0  0  0  0  0  0  0  0  0  0
   -2.3108   -3.0171    3.8187 H   0  0  0  0  0  0  0  0  0  0  0  0
   -0.6405   -2.4215    3.8507 H   0  0  0  0  0  0  0  0  0  0  0  0
   -3.8077   -3.0700    1.3779 N   0  0  0  0  0  0  0  0  0  0  0  0
   -5.1700   -3.0464    0.8986 C   0  0  0  0  0  0  0  0  0  0  0  0
   -3.4414   -3.9528    1.7217 H   0  0  0  0  0  0  0  0  0  0  0  0
   -5.8480   -2.8065    1.7309 H   0  0  0  0  0  0  0  0  0  0  0  0
   -5.2690   -2.2825    0.1133 H   0  0  0  0  0  0  0  0  0  0  0  0
   -5.4305   -4.0323    0.4861 H   0  0  0  0  0  0  0  0  0  0  0  0
  1  3  1  0  0  0  0
  1  7  1  0  0  0  0
  1  2  2  0  0  0  0
 37 38  1  0  0  0  0
 38 46  1  0  0  0  0
 38 39  2  0  0  0  0
  8  9  1  0  0  0  0
  9 17  1  0  0  0  0
  9 10  2  0  0  0  0
 18 19  1  0  0  0  0
 19 36  1  0  0  0  0
 19 20  2  0  0  0  0
 37 40  1  0  0  0  0
  8 11  1  0  0  0  0
 22 23  1  0  0  0  0
 22 24  1  0  0  0  0
 46 47  1  0  0  0  0
 18 21  1  0  0  0  0
 21 22  1  0  0  0  0
 36 37  1  0  0  0  0
  7  8  1  0  0  0  0
 17 18  1  0  0  0  0
  3  4  1  0  0  0  0
  3  5  1  0  0  0  0
  3  6  1  0  0  0  0
 40 43  1  0  0  0  0
 40 44  1  0  0  0  0
 40 45  1  0  0  0  0
 11 14  1  0  0  0  0
 11 15  1  0  0  0  0
 11 16  1  0  0  0  0
 23 30  1  0  0  0  0
 23 31  1  0  0  0  0
 23 32  1  0  0  0  0
 24 33  1  0  0  0  0
 24 34  1  0  0  0  0
 24 35  1  0  0  0  0
 47 49  1  0  0  0  0
 47 50  1  0  0  0  0
 47 51  1  0  0  0  0
 21 27  1  0  0  0  0
 21 28  1  0  0  0  0
 37 42  1  0  0  0  0
  8 13  1  0  0  0  0
 18 26  1  0  0  0  0
 22 29  1  0  0  0  0
 46 48  1  0  0  0  0
  7 12  1  0  0  0  0
 36 41  1  0  0  0  0
 17 25  1  0  0  0  0
M  END
$$$$

  -OEChem-05262214473D

 51 50  0     1  0  0  0  0  0999 V2000
    3.4018   -1.2440   -3.0186 C   0  0  0  0  0  0  0  0  0  0  0  0
    3.2697   -2.0909   -2.1427 O   0  0  0  0  0  0  0  0  0  0  0  0
    4.6845   -1.1645   -3.7779 C   0  0  0  0  0  0  0  0  0  0  0  0
    5.4123   -0.4862   -3.3041 H   0  0  0  0  0  0  0  0  0  0  0  0
    5.1949   -2.1387   -3.8443 H   0  0  0  0  0  0  0  0  0  0  0  0
    4.5953   -0.8128   -4.8182 H   0  0  0  0  0  0  0  0  0  0  0  0
    2.4540   -0.3103   -3.4040 N   0  0  0  0  0  0  0  0  0  0  0  0
    1.1494   -0.2128   -2.8039 C   0  0  2  0  0  0  0  0  0  0  0  0
    1.3350    0.0367   -1.3130 C   0  0  0  0  0  0  0  0  0  0  0  0
    2.3625   -0.2586   -0.7063 O   0  0  0  0  0  0  0  0  0  0  0  0
    0.3331   -1.4728   -3.0467 C   0  0  0  0  0  0  0  0  0  0  0  0
    2.6924    0.3404   -4.1502 H   0  0  0  0  0  0  0  0  0  0  0  0
    0.6550    0.6514   -3.2607 H   0  0  0  0  0  0  0  0  0  0  0  0
    0.8129   -2.3494   -2.5963 H   0  0  0  0  0  0  0  0  0  0  0  0
   -0.6690   -1.3857   -2.6142 H   0  0  0  0  0  0  0  0  0  0  0  0
    0.2259   -1.6670   -4.1194 H   0  0  0  0  0  0  0  0  0  0  0  0
    0.2019    0.5893   -0.7269 N   0  0  0  0  0  0  0  0  0  0  0  0
    0.1242    0.9059    0.6756 C   0  0  2  0  0  0  0  0  0  0  0  0
   -1.0241    0.0875    1.2577 C   0  0  0  0  0  0  0  0  0  0  0  0
   -2.1889    0.4803    1.2662 O   0  0  0  0  0  0  0  0  0  0  0  0
   -0.1129    2.4015    0.9209 C   0  0  0  0  0  0  0  0  0  0  0  0
    1.0481    3.3200    0.4881 C   0  0  0  0  0  0  0  0  0  0  0  0
    0.6326    4.7855    0.6446 C   0  0  0  0  0  0  0  0  0  0  0  0
    1.4899    3.0611   -0.9529 C   0  0  0  0  0  0  0  0  0  0  0  0
   -0.5975    0.8179   -1.3140 H   0  0  0  0  0  0  0  0  0  0  0  0
    1.0614    0.5708    1.1312 H   0  0  0  0  0  0  0  0  0  0  0  0
   -0.3053    2.5590    1.9915 H   0  0  0  0  0  0  0  0  0  0  0  0
   -1.0297    2.7143    0.4037 H   0  0  0  0  0  0  0  0  0  0  0  0
    1.9077    3.1484    1.1474 H   0  0  0  0  0  0  0  0  0  0  0  0
   -0.2267    5.0169    0.0062 H   0  0  0  0  0  0  0  0  0  0  0  0
    1.4503    5.4547    0.3565 H   0  0  0  0  0  0  0  0  0  0  0  0
    0.3566    5.0128    1.6800 H   0  0  0  0  0  0  0  0  0  0  0  0
    0.6648    3.2191   -1.6556 H   0  0  0  0  0  0  0  0  0  0  0  0
    2.3070    3.7339   -1.2351 H   0  0  0  0  0  0  0  0  0  0  0  0
    1.8564    2.0382   -1.0801 H   0  0  0  0  0  0  0  0  0  0  0  0
   -0.5994   -1.1511    1.7182 N   0  0  0  0  0  0  0  0  0  0  0  0
   -1.4920   -2.1316    2.2931 C   0  0  2  0  0  0  0  0  0  0  0  0
   -2.7887   -2.1126    1.4944 C   0  0  0  0  0  0  0  0  0  0  0  0
   -3.1498   -1.1472    0.8245 O   0  0  0  0  0  0  0  0  0  0  0  0
   -1.7550   -1.8458    3.7634 C   0  0  0  0  0  0  0  0  0  0  0  0
    0.3830   -1.3984    1.6450 H   0  0  0  0  0  0  0  0  0  0  0  0
   -1.0064   -3.1069    2.1789 H   0  0  0  0  0  0  0  0  0  0  0  0
   -2.2413   -0.8727    3.8977 H   0  0  0  0  0  0  0  0  0  0  0  0
   -2.4086   -2.6056    4.2046 H   0  0  0  0  0  0  0  0  0  0  0  0
   -0.8183   -1.8304    4.3310 H   0  0  0  0  0  0  0  0  0  0  0  0
   -3.5161   -3.2840    1.6523 N   0  0  0  0  0  0  0  0  0  0  0  0
   -4.7889   -3.5044    1.0063 C   0  0  0  0  0  0  0  0  0  0  0  0
   -3.1312   -4.0396    2.2114 H   0  0  0  0  0  0  0  0  0  0  0  0
   -5.6011   -3.1903    1.6785 H   0  0  0  0  0  0  0  0  0  0  0  0
   -4.8348   -2.9177    0.0770 H   0  0  0  0  0  0  0  0  0  0  0  0
   -4.9005   -4.5731    0.7711 H   0  0  0  0  0  0  0  0  0  0  0  0
  1  3  1  0  0  0  0
  1  7  1  0  0  0  0
  1  2  2  0  0  0  0
 37 38  1  0  0  0  0
 38 46  1  0  0  0  0
 38 39  2  0  0  0  0
  8  9  1  0  0  0  0
  9 17  1  0  0  0  0
  9 10  2  0  0  0  0
 18 19  1  0  0  0  0
 19 36  1  0  0  0  0
 19 20  2  0  0  0  0
 37 40  1  0  0  0  0
  8 11  1  0  0  0  0
 22 23  1  0  0  0  0
 22 24  1  0  0  0  0
 46 47  1  0  0  0  0
 18 21  1  0  0  0  0
 21 22  1  0  0  0  0
 36 37  1  0  0  0  0
  7  8  1  0  0  0  0
 17 18  1  0  0  0  0
  3  4  1  0  0  0  0
  3  5  1  0  0  0  0
  3  6  1  0  0  0  0
 40 43  1  0  0  0  0
 40 44  1  0  0  0  0
 40 45  1  0  0  0  0
 11 14  1  0  0  0  0
 11 15  1  0  0  0  0
 11 16  1  0  0  0  0
 23 30  1  0  0  0  0
 23 31  1  0  0  0  0
 23 32  1  0  0  0  0
 24 33  1  0  0  0  0
 24 34  1  0  0  0  0
 24 35  1  0  0  0  0
 47 49  1  0  0  0  0
 47 50  1  0  0  0  0
 47 51  1  0  0  0  0
 21 27  1  0  0  0  0
 21 28  1  0  0  0  0
 37 42  1  0  0  0  0
  8 13  1  0  0  0  0
 18 26  1  0  0  0  0
 22 29  1  0  0  0  0
 46 48  1  0  0  0  0
  7 12  1  0  0  0  0
 36 41  1  0  0  0  0
 17 25  1  0  0  0  0
M  END
$$$$

  -OEChem-05262214473D

 51 50  0     1  0  0  0  0  0999 V2000
    3.4018   -1.2440   -3.0186 C   0  0  0  0  0  0  0  0  0  0  0  0
    3.2697   -2.0909   -2.1427 O   0  0  0  0  0  0  0  0  0  0  0  0
    4.6845   -1.1645   -3.7779 C   0  0  0  0  0  0  0  0  0  0  0  0
    5.4123   -0.4862   -3.3041 H   0  0  0  0  0  0  0  0  0  0  0  0
    5.1949   -2.1387   -3.8443 H   0  0  0  0  0  0  0  0  0  0  0  0
    4.5953   -0.8128   -4.8182 H   0  0  0  0  0  0  0  0  0  0  0  0
    2.4540   -0.3103   -3.4040 N   0  0  0  0  0  0  0  0  0  0  0  0
    1.1494   -0.2128   -2.8039 C   0  0  2  0  0  0  0  0  0  0  0  0
    1.3350    0.0367   -1.3130 C   0  0  0  0  0  0  0  0  0  0  0  0
    2.3625   -0.2586   -0.7063 O   0  0  0  0  0  0  0  0  0  0  0  0
    0.3331   -1.4728   -3.0467 C   0  0  0  0  0  0  0  0  0  0  0  0
    2.6924    0.3404   -4.1502 H   0  0  0  0  0  0  0  0  0  0  0  0
    0.6550    0.6514   -3.2607 H   0  0  0  0  0  0  0  0  0  0  0  0
    0.8129   -2.3494   -2.5963 H   0  0  0  0  0  0  0  0  0  0  0  0
   -0.6690   -1.3857   -2.6142 H   0  0  0  0  0  0  0  0  0  0  0  0
    0.2259   -1.6670   -4.1194 H   0  0  0  0  0  0  0  0  0  0  0  0
    0.2019    0.5893   -0.7269 N   0  0  0  0  0  0  0  0  0  0  0  0
    0.1242    0.9059    0.6756 C   0  0  2  0  0  0  0  0  0  0  0  0
   -1.0241    0.0875    1.2577 C   0  0  0  0  0  0  0  0  0  0  0  0
   -2.2063    0.3413    1.0364 O   0  0  0  0  0  0  0  0  0  0  0  0
   -0.1129    2.4015    0.9209 C   0  0  0  0  0  0  0  0  0  0  0  0
    1.0481    3.3200    0.4881 C   0  0  0  0  0  0  0  0  0  0  0  0
    0.6326    4.7855    0.6446 C   0  0  0  0  0  0  0  0  0  0  0  0
    1.4899    3.0611   -0.9529 C   0  0  0  0  0  0  0  0  0  0  0  0
   -0.5975    0.8179   -1.3140 H   0  0  0  0  0  0  0  0  0  0  0  0
    1.0614    0.5708    1.1312 H   0  0  0  0  0  0  0  0  0  0  0  0
   -0.3053    2.5590    1.9915 H   0  0  0  0  0  0  0  0  0  0  0  0
   -1.0297    2.7143    0.4037 H   0  0  0  0  0  0  0  0  0  0  0  0
    1.9077    3.1484    1.1474 H   0  0  0  0  0  0  0  0  0  0  0  0
   -0.2267    5.0169    0.0062 H   0  0  0  0  0  0  0  0  0  0  0  0
    1.4503    5.4547    0.3565 H   0  0  0  0  0  0  0  0  0  0  0  0
    0.3566    5.0128    1.6800 H   0  0  0  0  0  0  0  0  0  0  0  0
    0.6648    3.2191   -1.6556 H   0  0  0  0  0  0  0  0  0  0  0  0
    2.3070    3.7339   -1.2351 H   0  0  0  0  0  0  0  0  0  0  0  0
    1.8564    2.0382   -1.0801 H   0  0  0  0  0  0  0  0  0  0  0  0
   -0.5688   -0.9868    2.0096 N   0  0  0  0  0  0  0  0  0  0  0  0
   -1.4504   -1.9360    2.6503 C   0  0  2  0  0  0  0  0  0  0  0  0
   -2.6108   -2.2133    1.7037 C   0  0  0  0  0  0  0  0  0  0  0  0
   -2.9490   -1.4378    0.8119 O   0  0  0  0  0  0  0  0  0  0  0  0
   -1.9523   -1.4105    3.9862 C   0  0  0  0  0  0  0  0  0  0  0  0
    0.4310   -1.1312    2.1152 H   0  0  0  0  0  0  0  0  0  0  0  0
   -0.8720   -2.8544    2.7989 H   0  0  0  0  0  0  0  0  0  0  0  0
   -2.5341   -0.4905    3.8575 H   0  0  0  0  0  0  0  0  0  0  0  0
   -2.5972   -2.1425    4.4835 H   0  0  0  0  0  0  0  0  0  0  0  0
   -1.1152   -1.1834    4.6551 H   0  0  0  0  0  0  0  0  0  0  0  0
   -3.2513   -3.4085    1.9995 N   0  0  0  0  0  0  0  0  0  0  0  0
   -4.3906   -3.8881    1.2525 C   0  0  0  0  0  0  0  0  0  0  0  0
   -2.8910   -3.9975    2.7445 H   0  0  0  0  0  0  0  0  0  0  0  0
   -5.3174   -3.5467    1.7369 H   0  0  0  0  0  0  0  0  0  0  0  0
   -4.3475   -3.4953    0.2259 H   0  0  0  0  0  0  0  0  0  0  0  0
   -4.3747   -4.9876    1.2254 H   0  0  0  0  0  0  0  0  0  0  0  0
  1  3  1  0  0  0  0
  1  7  1  0  0  0  0
  1  2  2  0  0  0  0
 37 38  1  0  0  0  0
 38 46  1  0  0  0  0
 38 39  2  0  0  0  0
  8  9  1  0  0  0  0
  9 17  1  0  0  0  0
  9 10  2  0  0  0  0
 18 19  1  0  0  0  0
 19 36  1  0  0  0  0
 19 20  2  0  0  0  0
 37 40  1  0  0  0  0
  8 11  1  0  0  0  0
 22 23  1  0  0  0  0
 22 24  1  0  0  0  0
 46 47  1  0  0  0  0
 18 21  1  0  0  0  0
 21 22  1  0  0  0  0
 36 37  1  0  0  0  0
  7  8  1  0  0  0  0
 17 18  1  0  0  0  0
  3  4  1  0  0  0  0
  3  5  1  0  0  0  0
  3  6  1  0  0  0  0
 40 43  1  0  0  0  0
 40 44  1  0  0  0  0
 40 45  1  0  0  0  0
 11 14  1  0  0  0  0
 11 15  1  0  0  0  0
 11 16  1  0  0  0  0
 23 30  1  0  0  0  0
 23 31  1  0  0  0  0
 23 32  1  0  0  0  0
 24 33  1  0  0  0  0
 24 34  1  0  0  0  0
 24 35  1  0  0  0  0
 47 49  1  0  0  0  0
 47 50  1  0  0  0  0
 47 51  1  0  0  0  0
 21 27  1  0  0  0  0
 21 28  1  0  0  0  0
 37 42  1  0  0  0  0
  8 13  1  0  0  0  0
 18 26  1  0  0  0  0
 22 29  1  0  0  0  0
 46 48  1  0  0  0  0
  7 12  1  0  0  0  0
 36 41  1  0  0  0  0
 17 25  1  0  0  0  0
M  END
$$$$

  -OEChem-05262214473D

 51 50  0     1  0  0  0  0  0999 V2000
    3.4018   -1.2440   -3.0186 C   0  0  0  0  0  0  0  0  0  0  0  0
    3.2697   -2.0909   -2.1427 O   0  0  0  0  0  0  0  0  0  0  0  0
    4.6845   -1.1645   -3.7779 C   0  0  0  0  0  0  0  0  0  0  0  0
    5.4123   -0.4862   -3.3041 H   0  0  0  0  0  0  0  0  0  0  0  0
    5.1949   -2.1387   -3.8443 H   0  0  0  0  0  0  0  0  0  0  0  0
    4.5953   -0.8128   -4.8182 H   0  0  0  0  0  0  0  0  0  0  0  0
    2.4540   -0.3103   -3.4040 N   0  0  0  0  0  0  0  0  0  0  0  0
    1.1494   -0.2128   -2.8039 C   0  0  2  0  0  0  0  0  0  0  0  0
    1.3350    0.0367   -1.3130 C   0  0  0  0  0  0  0  0  0  0  0  0
    2.3625   -0.2586   -0.7063 O   0  0  0  0  0  0  0  0  0  0  0  0
    0.3331   -1.4728   -3.0467 C   0  0  0  0  0  0  0  0  0  0  0  0
    2.6924    0.3404   -4.1502 H   0  0  0  0  0  0  0  0  0  0  0  0
    0.6550    0.6514   -3.2607 H   0  0  0  0  0  0  0  0  0  0  0  0
    0.8129   -2.3494   -2.5963 H   0  0  0  0  0  0  0  0  0  0  0  0
   -0.6690   -1.3857   -2.6142 H   0  0  0  0  0  0  0  0  0  0  0  0
    0.2259   -1.6670   -4.1194 H   0  0  0  0  0  0  0  0  0  0  0  0
    0.2019    0.5893   -0.7269 N   0  0  0  0  0  0  0  0  0  0  0  0
    0.1242    0.9059    0.6756 C   0  0  2  0  0  0  0  0  0  0  0  0
   -1.0241    0.0875    1.2577 C   0  0  0  0  0  0  0  0  0  0  0  0
   -2.1775    0.1605    0.8390 O   0  0  0  0  0  0  0  0  0  0  0  0
   -0.1129    2.4015    0.9209 C   0  0  0  0  0  0  0  0  0  0  0  0
    1.0481    3.3200    0.4881 C   0  0  0  0  0  0  0  0  0  0  0  0
    0.6326    4.7855    0.6446 C   0  0  0  0  0  0  0  0  0  0  0  0
    1.4899    3.0611   -0.9529 C   0  0  0  0  0  0  0  0  0  0  0  0
   -0.5975    0.8179   -1.3140 H   0  0  0  0  0  0  0  0  0  0  0  0
    1.0614    0.5708    1.1312 H   0  0  0  0  0  0  0  0  0  0  0  0
   -0.3053    2.5590    1.9915 H   0  0  0  0  0  0  0  0  0  0  0  0
   -1.0297    2.7143    0.4037 H   0  0  0  0  0  0  0  0  0  0  0  0
    1.9077    3.1484    1.1474 H   0  0  0  0  0  0  0  0  0  0  0  0
   -0.2267    5.0169    0.0062 H   0  0  0  0  0  0  0  0  0  0  0  0
    1.4503    5.4547    0.3565 H   0  0  0  0  0  0  0  0  0  0  0  0
    0.3566    5.0128    1.6800 H   0  0  0  0  0  0  0  0  0  0  0  0
    0.6648    3.2191   -1.6556 H   0  0  0  0  0  0  0  0  0  0  0  0
    2.3070    3.7339   -1.2351 H   0  0  0  0  0  0  0  0  0  0  0  0
    1.8564    2.0382   -1.0801 H   0  0  0  0  0  0  0  0  0  0  0  0
   -0.5960   -0.7683    2.2632 N   0  0  0  0  0  0  0  0  0  0  0  0
   -1.4791   -1.6733    2.9631 C   0  0  2  0  0  0  0  0  0  0  0  0
   -2.4580   -2.2523    1.9502 C   0  0  0  0  0  0  0  0  0  0  0  0
   -2.7247   -1.7012    0.8843 O   0  0  0  0  0  0  0  0  0  0  0  0
   -2.2168   -0.9661    4.0892 C   0  0  0  0  0  0  0  0  0  0  0  0
    0.3856   -0.7769    2.5239 H   0  0  0  0  0  0  0  0  0  0  0  0
   -0.8532   -2.4764    3.3673 H   0  0  0  0  0  0  0  0  0  0  0  0
   -2.8491   -0.1580    3.7035 H   0  0  0  0  0  0  0  0  0  0  0  0
   -2.8639   -1.6595    4.6365 H   0  0  0  0  0  0  0  0  0  0  0  0
   -1.5108   -0.5247    4.8009 H   0  0  0  0  0  0  0  0  0  0  0  0
   -3.0315   -3.4350    2.3959 N   0  0  0  0  0  0  0  0  0  0  0  0
   -4.0022   -4.1714    1.6203 C   0  0  0  0  0  0  0  0  0  0  0  0
   -2.7372   -3.8292    3.2845 H   0  0  0  0  0  0  0  0  0  0  0  0
   -5.0162   -3.8517    1.9021 H   0  0  0  0  0  0  0  0  0  0  0  0
   -3.8405   -3.9762    0.5499 H   0  0  0  0  0  0  0  0  0  0  0  0
   -3.8890   -5.2476    1.8180 H   0  0  0  0  0  0  0  0  0  0  0  0
  1  3  1  0  0  0  0
  1  7  1  0  0  0  0
  1  2  2  0  0  0  0
 37 38  1  0  0  0  0
 38 46  1  0  0  0  0
 38 39  2  0  0  0  0
  8  9  1  0  0  0  0
  9 17  1  0  0  0  0
  9 10  2  0  0  0  0
 18 19  1  0  0  0  0
 19 36  1  0  0  0  0
 19 20  2  0  0  0  0
 37 40  1  0  0  0  0
  8 11  1  0  0  0  0
 22 23  1  0  0  0  0
 22 24  1  0  0  0  0
 46 47  1  0  0  0  0
 18 21  1  0  0  0  0
 21 22  1  0  0  0  0
 36 37  1  0  0  0  0
  7  8  1  0  0  0  0
 17 18  1  0  0  0  0
  3  4  1  0  0  0  0
  3  5  1  0  0  0  0
  3  6  1  0  0  0  0
 40 43  1  0  0  0  0
 40 44  1  0  0  0  0
 40 45  1  0  0  0  0
 11 14  1  0  0  0  0
 11 15  1  0  0  0  0
 11 16  1  0  0  0  0
 23 30  1  0  0  0  0
 23 31  1  0  0  0  0
 23 32  1  0  0  0  0
 24 33  1  0  0  0  0
 24 34  1  0  0  0  0
 24 35  1  0  0  0  0
 47 49  1  0  0  0  0
 47 50  1  0  0  0  0
 47 51  1  0  0  0  0
 21 27  1  0  0  0  0
 21 28  1  0  0  0  0
 37 42  1  0  0  0  0
  8 13  1  0  0  0  0
 18 26  1  0  0  0  0
 22 29  1  0  0  0  0
 46 48  1  0  0  0  0
  7 12  1  0  0  0  0
 36 41  1  0  0  0  0
 17 25  1  0  0  0  0
M  END
$$$$

  -OEChem-05262214473D

 51 50  0     1  0  0  0  0  0999 V2000
    3.4018   -1.2440   -3.0186 C   0  0  0  0  0  0  0  0  0  0  0  0
    3.2697   -2.0909   -2.1427 O   0  0  0  0  0  0  0  0  0  0  0  0
    4.6845   -1.1645   -3.7779 C   0  0  0  0  0  0  0  0  0  0  0  0
    5.4123   -0.4862   -3.3041 H   0  0  0  0  0  0  0  0  0  0  0  0
    5.1949   -2.1387   -3.8443 H   0  0  0  0  0  0  0  0  0  0  0  0
    4.5953   -0.8128   -4.8182 H   0  0  0  0  0  0  0  0  0  0  0  0
    2.4540   -0.3103   -3.4040 N   0  0  0  0  0  0  0  0  0  0  0  0
    1.1494   -0.2128   -2.8039 C   0  0  2  0  0  0  0  0  0  0  0  0
    1.3350    0.0367   -1.3130 C   0  0  0  0  0  0  0  0  0  0  0  0
    2.3625   -0.2586   -0.7063 O   0  0  0  0  0  0  0  0  0  0  0  0
    0.3331   -1.4728   -3.0467 C   0  0  0  0  0  0  0  0  0  0  0  0
    2.6924    0.3404   -4.1502 H   0  0  0  0  0  0  0  0  0  0  0  0
    0.6550    0.6514   -3.2607 H   0  0  0  0  0  0  0  0  0  0  0  0
    0.8129   -2.3494   -2.5963 H   0  0  0  0  0  0  0  0  0  0  0  0
   -0.6690   -1.3857   -2.6142 H   0  0  0  0  0  0  0  0  0  0  0  0
    0.2259   -1.6670   -4.1194 H   0  0  0  0  0  0  0  0  0  0  0  0
    0.2019    0.5893   -0.7269 N   0  0  0  0  0  0  0  0  0  0  0  0
    0.1242    0.9059    0.6756 C   0  0  2  0  0  0  0  0  0  0  0  0
   -1.0241    0.0875    1.2577 C   0  0  0  0  0  0  0  0  0  0  0  0
   -2.1045   -0.0497    0.6876 O   0  0  0  0  0  0  0  0  0  0  0  0
   -0.1129    2.4015    0.9209 C   0  0  0  0  0  0  0  0  0  0  0  0
    1.0481    3.3200    0.4881 C   0  0  0  0  0  0  0  0  0  0  0  0
    0.6326    4.7855    0.6446 C   0  0  0  0  0  0  0  0  0  0  0  0
    1.4899    3.0611   -0.9529 C   0  0  0  0  0  0  0  0  0  0  0  0
   -0.5975    0.8179   -1.3140 H   0  0  0  0  0  0  0  0  0  0  0  0
    1.0614    0.5708    1.1312 H   0  0  0  0  0  0  0  0  0  0  0  0
   -0.3053    2.5590    1.9915 H   0  0  0  0  0  0  0  0  0  0  0  0
   -1.0297    2.7143    0.4037 H   0  0  0  0  0  0  0  0  0  0  0  0
    1.9077    3.1484    1.1474 H   0  0  0  0  0  0  0  0  0  0  0  0
   -0.2267    5.0169    0.0062 H   0  0  0  0  0  0  0  0  0  0  0  0
    1.4503    5.4547    0.3565 H   0  0  0  0  0  0  0  0  0  0  0  0
    0.3566    5.0128    1.6800 H   0  0  0  0  0  0  0  0  0  0  0  0
    0.6648    3.2191   -1.6556 H   0  0  0  0  0  0  0  0  0  0  0  0
    2.3070    3.7339   -1.2351 H   0  0  0  0  0  0  0  0  0  0  0  0
    1.8564    2.0382   -1.0801 H   0  0  0  0  0  0  0  0  0  0  0  0
   -0.6790   -0.5105    2.4618 N   0  0  0  0  0  0  0  0  0  0  0  0
   -1.5761   -1.3614    3.2100 C   0  0  2  0  0  0  0  0  0  0  0  0
   -2.3409   -2.2268    2.2171 C   0  0  0  0  0  0  0  0  0  0  0  0
   -2.4920   -1.9193    1.0366 O   0  0  0  0  0  0  0  0  0  0  0  0
   -2.5305   -0.5429    4.0654 C   0  0  0  0  0  0  0  0  0  0  0  0
    0.2501   -0.3594    2.8434 H   0  0  0  0  0  0  0  0  0  0  0  0
   -0.9514   -1.9987    3.8453 H   0  0  0  0  0  0  0  0  0  0  0  0
   -3.1648    0.1019    3.4463 H   0  0  0  0  0  0  0  0  0  0  0  0
   -3.1905   -1.1894    4.6532 H   0  0  0  0  0  0  0  0  0  0  0  0
   -1.9782    0.1009    4.7584 H   0  0  0  0  0  0  0  0  0  0  0  0
   -2.8716   -3.3616    2.8144 N   0  0  0  0  0  0  0  0  0  0  0  0
   -3.6500   -4.3351    2.0848 C   0  0  0  0  0  0  0  0  0  0  0  0
   -2.6802   -3.5462    3.7947 H   0  0  0  0  0  0  0  0  0  0  0  0
   -4.7182   -4.0843    2.1630 H   0  0  0  0  0  0  0  0  0  0  0  0
   -3.3482   -4.3274    1.0270 H   0  0  0  0  0  0  0  0  0  0  0  0
   -3.4764   -5.3352    2.5085 H   0  0  0  0  0  0  0  0  0  0  0  0
  1  3  1  0  0  0  0
  1  7  1  0  0  0  0
  1  2  2  0  0  0  0
 37 38  1  0  0  0  0
 38 46  1  0  0  0  0
 38 39  2  0  0  0  0
  8  9  1  0  0  0  0
  9 17  1  0  0  0  0
  9 10  2  0  0  0  0
 18 19  1  0  0  0  0
 19 36  1  0  0  0  0
 19 20  2  0  0  0  0
 37 40  1  0  0  0  0
  8 11  1  0  0  0  0
 22 23  1  0  0  0  0
 22 24  1  0  0  0  0
 46 47  1  0  0  0  0
 18 21  1  0  0  0  0
 21 22  1  0  0  0  0
 36 37  1  0  0  0  0
  7  8  1  0  0  0  0
 17 18  1  0  0  0  0
  3  4  1  0  0  0  0
  3  5  1  0  0  0  0
  3  6  1  0  0  0  0
 40 43  1  0  0  0  0
 40 44  1  0  0  0  0
 40 45  1  0  0  0  0
 11 14  1  0  0  0  0
 11 15  1  0  0  0  0
 11 16  1  0  0  0  0
 23 30  1  0  0  0  0
 23 31  1  0  0  0  0
 23 32  1  0  0  0  0
 24 33  1  0  0  0  0
 24 34  1  0  0  0  0
 24 35  1  0  0  0  0
 47 49  1  0  0  0  0
 47 50  1  0  0  0  0
 47 51  1  0  0  0  0
 21 27  1  0  0  0  0
 21 28  1  0  0  0  0
 37 42  1  0  0  0  0
  8 13  1  0  0  0  0
 18 26  1  0  0  0  0
 22 29  1  0  0  0  0
 46 48  1  0  0  0  0
  7 12  1  0  0  0  0
 36 41  1  0  0  0  0
 17 25  1  0  0  0  0
M  END
$$$$

  -OEChem-05262214473D

 51 50  0     1  0  0  0  0  0999 V2000
    3.4018   -1.2440   -3.0186 C   0  0  0  0  0  0  0  0  0  0  0  0
    3.2697   -2.0909   -2.1427 O   0  0  0  0  0  0  0  0  0  0  0  0
    4.6845   -1.1645   -3.7779 C   0  0  0  0  0  0  0  0  0  0  0  0
    5.4123   -0.4862   -3.3041 H   0  0  0  0  0  0  0  0  0  0  0  0
    5.1949   -2.1387   -3.8443 H   0  0  0  0  0  0  0  0  0  0  0  0
    4.5953   -0.8128   -4.8182 H   0  0  0  0  0  0  0  0  0  0  0  0
    2.4540   -0.3103   -3.4040 N   0  0  0  0  0  0  0  0  0  0  0  0
    1.1494   -0.2128   -2.8039 C   0  0  2  0  0  0  0  0  0  0  0  0
    1.3350    0.0367   -1.3130 C   0  0  0  0  0  0  0  0  0  0  0  0
    2.3625   -0.2586   -0.7063 O   0  0  0  0  0  0  0  0  0  0  0  0
    0.3331   -1.4728   -3.0467 C   0  0  0  0  0  0  0  0  0  0  0  0
    2.6924    0.3404   -4.1502 H   0  0  0  0  0  0  0  0  0  0  0  0
    0.6550    0.6514   -3.2607 H   0  0  0  0  0  0  0  0  0  0  0  0
    0.8129   -2.3494   -2.5963 H   0  0  0  0  0  0  0  0  0  0  0  0
   -0.6690   -1.3857   -2.6142 H   0  0  0  0  0  0  0  0  0  0  0  0
    0.2259   -1.6670   -4.1194 H   0  0  0  0  0  0  0  0  0  0  0  0
    0.2019    0.5893   -0.7269 N   0  0  0  0  0  0  0  0  0  0  0  0
    0.1242    0.9059    0.6756 C   0  0  2  0  0  0  0  0  0  0  0  0
   -1.0241    0.0875    1.2577 C   0  0  0  0  0  0  0  0  0  0  0  0
   -1.9921   -0.2750    0.5924 O   0  0  0  0  0  0  0  0  0  0  0  0
   -0.1129    2.4015    0.9209 C   0  0  0  0  0  0  0  0  0  0  0  0
    1.0481    3.3200    0.4881 C   0  0  0  0  0  0  0  0  0  0  0  0
    0.6326    4.7855    0.6446 C   0  0  0  0  0  0  0  0  0  0  0  0
    1.4899    3.0611   -0.9529 C   0  0  0  0  0  0  0  0  0  0  0  0
   -0.5975    0.8179   -1.3140 H   0  0  0  0  0  0  0  0  0  0  0  0
    1.0614    0.5708    1.1312 H   0  0  0  0  0  0  0  0  0  0  0  0
   -0.3053    2.5590    1.9915 H   0  0  0  0  0  0  0  0  0  0  0  0
   -1.0297    2.7143    0.4037 H   0  0  0  0  0  0  0  0  0  0  0  0
    1.9077    3.1484    1.1474 H   0  0  0  0  0  0  0  0  0  0  0  0
   -0.2267    5.0169    0.0062 H   0  0  0  0  0  0  0  0  0  0  0  0
    1.4503    5.4547    0.3565 H   0  0  0  0  0  0  0  0  0  0  0  0
    0.3566    5.0128    1.6800 H   0  0  0  0  0  0  0  0  0  0  0  0
    0.6648    3.2191   -1.6556 H   0  0  0  0  0  0  0  0  0  0  0  0
    2.3070    3.7339   -1.2351 H   0  0  0  0  0  0  0  0  0  0  0  0
    1.8564    2.0382   -1.0801 H   0  0  0  0  0  0  0  0  0  0  0  0
   -0.8123   -0.2309    2.5920 N   0  0  0  0  0  0  0  0  0  0  0  0
   -1.7350   -1.0217    3.3743 C   0  0  2  0  0  0  0  0  0  0  0  0
   -2.2673   -2.1386    2.4862 C   0  0  0  0  0  0  0  0  0  0  0  0
   -2.2669   -2.0773    1.2585 O   0  0  0  0  0  0  0  0  0  0  0  0
   -2.8721   -0.1697    3.9165 C   0  0  0  0  0  0  0  0  0  0  0  0
    0.0336    0.0927    3.0519 H   0  0  0  0  0  0  0  0  0  0  0  0
   -1.1597   -1.4538    4.2003 H   0  0  0  0  0  0  0  0  0  0  0  0
   -3.4598    0.2718    3.1034 H   0  0  0  0  0  0  0  0  0  0  0  0
   -3.5546   -0.7644    4.5324 H   0  0  0  0  0  0  0  0  0  0  0  0
   -2.4856    0.6508    4.5307 H   0  0  0  0  0  0  0  0  0  0  0  0
   -2.7825   -3.1934    3.2266 N   0  0  0  0  0  0  0  0  0  0  0  0
   -3.3582   -4.3679    2.6142 C   0  0  0  0  0  0  0  0  0  0  0  0
   -2.7240   -3.1678    4.2404 H   0  0  0  0  0  0  0  0  0  0  0  0
   -4.4436   -4.2287    2.5017 H   0  0  0  0  0  0  0  0  0  0  0  0
   -2.9043   -4.5252    1.6247 H   0  0  0  0  0  0  0  0  0  0  0  0
   -3.1651   -5.2447    3.2498 H   0  0  0  0  0  0  0  0  0  0  0  0
  1  3  1  0  0  0  0
  1  7  1  0  0  0  0
  1  2  2  0  0  0  0
 37 38  1  0  0  0  0
 38 46  1  0  0  0  0
 38 39  2  0  0  0  0
  8  9  1  0  0  0  0
  9 17  1  0  0  0  0
  9 10  2  0  0  0  0
 18 19  1  0  0  0  0
 19 36  1  0  0  0  0
 19 20  2  0  0  0  0
 37 40  1  0  0  0  0
  8 11  1  0  0  0  0
 22 23  1  0  0  0  0
 22 24  1  0  0  0  0
 46 47  1  0  0  0  0
 18 21  1  0  0  0  0
 21 22  1  0  0  0  0
 36 37  1  0  0  0  0
  7  8  1  0  0  0  0
 17 18  1  0  0  0  0
  3  4  1  0  0  0  0
  3  5  1  0  0  0  0
  3  6  1  0  0  0  0
 40 43  1  0  0  0  0
 40 44  1  0  0  0  0
 40 45  1  0  0  0  0
 11 14  1  0  0  0  0
 11 15  1  0  0  0  0
 11 16  1  0  0  0  0
 23 30  1  0  0  0  0
 23 31  1  0  0  0  0
 23 32  1  0  0  0  0
 24 33  1  0  0  0  0
 24 34  1  0  0  0  0
 24 35  1  0  0  0  0
 47 49  1  0  0  0  0
 47 50  1  0  0  0  0
 47 51  1  0  0  0  0
 21 27  1  0  0  0  0
 21 28  1  0  0  0  0
 37 42  1  0  0  0  0
  8 13  1  0  0  0  0
 18 26  1  0  0  0  0
 22 29  1  0  0  0  0
 46 48  1  0  0  0  0
  7 12  1  0  0  0  0
 36 41  1  0  0  0  0
 17 25  1  0  0  0  0
M  END
$$$$

  -OEChem-05262214473D

 51 50  0     1  0  0  0  0  0999 V2000
    3.4018   -1.2440   -3.0186 C   0  0  0  0  0  0  0  0  0  0  0  0
    3.2697   -2.0909   -2.1427 O   0  0  0  0  0  0  0  0  0  0  0  0
    4.6845   -1.1645   -3.7779 C   0  0  0  0  0  0  0  0  0  0  0  0
    5.4123   -0.4862   -3.3041 H   0  0  0  0  0  0  0  0  0  0  0  0
    5.1949   -2.1387   -3.8443 H   0  0  0  0  0  0  0  0  0  0  0  0
    4.5953   -0.8128   -4.8182 H   0  0  0  0  0  0  0  0  0  0  0  0
    2.4540   -0.3103   -3.4040 N   0  0  0  0  0  0  0  0  0  0  0  0
    1.1494   -0.2128   -2.8039 C   0  0  2  0  0  0  0  0  0  0  0  0
    1.3350    0.0367   -1.3130 C   0  0  0  0  0  0  0  0  0  0  0  0
    2.3625   -0.2586   -0.7063 O   0  0  0  0  0  0  0  0  0  0  0  0
    0.3331   -1.4728   -3.0467 C   0  0  0  0  0  0  0  0  0  0  0  0
    2.6924    0.3404   -4.1502 H   0  0  0  0  0  0  0  0  0  0  0  0
    0.6550    0.6514   -3.2607 H   0  0  0  0  0  0  0  0  0  0  0  0
    0.8129   -2.3494   -2.5963 H   0  0  0  0  0  0  0  0  0  0  0  0
   -0.6690   -1.3857   -2.6142 H   0  0  0  0  0  0  0  0  0  0  0  0
    0.2259   -1.6670   -4.1194 H   0  0  0  0  0  0  0  0  0  0  0  0
    0.2019    0.5893   -0.7269 N   0  0  0  0  0  0  0  0  0  0  0  0
    0.1242    0.9059    0.6756 C   0  0  2  0  0  0  0  0  0  0  0  0
   -1.0241    0.0875    1.2577 C   0  0  0  0  0  0  0  0  0  0  0  0
   -1.8481   -0.5001    0.5600 O   0  0  0  0  0  0  0  0  0  0  0  0
   -0.1129    2.4015    0.9209 C   0  0  0  0  0  0  0  0  0  0  0  0
    1.0481    3.3200    0.4881 C   0  0  0  0  0  0  0  0  0  0  0  0
    0.6326    4.7855    0.6446 C   0  0  0  0  0  0  0  0  0  0  0  0
    1.4899    3.0611   -0.9529 C   0  0  0  0  0  0  0  0  0  0  0  0
   -0.5975    0.8179   -1.3140 H   0  0  0  0  0  0  0  0  0  0  0  0
    1.0614    0.5708    1.1312 H   0  0  0  0  0  0  0  0  0  0  0  0
   -0.3053    2.5590    1.9915 H   0  0  0  0  0  0  0  0  0  0  0  0
   -1.0297    2.7143    0.4037 H   0  0  0  0  0  0  0  0  0  0  0  0
    1.9077    3.1484    1.1474 H   0  0  0  0  0  0  0  0  0  0  0  0
   -0.2267    5.0169    0.0062 H   0  0  0  0  0  0  0  0  0  0  0  0
    1.4503    5.4547    0.3565 H   0  0  0  0  0  0  0  0  0  0  0  0
    0.3566    5.0128    1.6800 H   0  0  0  0  0  0  0  0  0  0  0  0
    0.6648    3.2191   -1.6556 H   0  0  0  0  0  0  0  0  0  0  0  0
    2.3070    3.7339   -1.2351 H   0  0  0  0  0  0  0  0  0  0  0  0
    1.8564    2.0382   -1.0801 H   0  0  0  0  0  0  0  0  0  0  0  0
   -0.9866    0.0512    2.6447 N   0  0  0  0  0  0  0  0  0  0  0  0
   -1.9448   -0.6772    3.4447 C   0  0  2  0  0  0  0  0  0  0  0  0
   -2.2423   -1.9937    2.7392 C   0  0  0  0  0  0  0  0  0  0  0  0
   -2.0646   -2.1645    1.5349 O   0  0  0  0  0  0  0  0  0  0  0  0
   -3.2181    0.1280    3.6524 C   0  0  0  0  0  0  0  0  0  0  0  0
   -0.2492    0.5486    3.1351 H   0  0  0  0  0  0  0  0  0  0  0  0
   -1.4641   -0.8790    4.4081 H   0  0  0  0  0  0  0  0  0  0  0  0
   -3.7138    0.3399    2.6981 H   0  0  0  0  0  0  0  0  0  0  0  0
   -3.9316   -0.4134    4.2824 H   0  0  0  0  0  0  0  0  0  0  0  0
   -2.9984    1.0874    4.1331 H   0  0  0  0  0  0  0  0  0  0  0  0
   -2.7703   -2.9418    3.6044 N   0  0  0  0  0  0  0  0  0  0  0  0
   -3.1466   -4.2676    3.1725 C   0  0  0  0  0  0  0  0  0  0  0  0
   -2.8655   -2.7199    4.5910 H   0  0  0  0  0  0  0  0  0  0  0  0
   -4.2111   -4.2751    2.8950 H   0  0  0  0  0  0  0  0  0  0  0  0
   -2.5390   -4.5559    2.3021 H   0  0  0  0  0  0  0  0  0  0  0  0
   -2.9763   -4.9820    3.9914 H   0  0  0  0  0  0  0  0  0  0  0  0
  1  3  1  0  0  0  0
  1  7  1  0  0  0  0
  1  2  2  0  0  0  0
 37 38  1  0  0  0  0
 38 46  1  0  0  0  0
 38 39  2  0  0  0  0
  8  9  1  0  0  0  0
  9 17  1  0  0  0  0
  9 10  2  0  0  0  0
 18 19  1  0  0  0  0
 19 36  1  0  0  0  0
 19 20  2  0  0  0  0
 37 40  1  0  0  0  0
  8 11  1  0  0  0  0
 22 23  1  0  0  0  0
 22 24  1  0  0  0  0
 46 47  1  0  0  0  0
 18 21  1  0  0  0  0
 21 22  1  0  0  0  0
 36 37  1  0  0  0  0
  7  8  1  0  0  0  0
 17 18  1  0  0  0  0
  3  4  1  0  0  0  0
  3  5  1  0  0  0  0
  3  6  1  0  0  0  0
 40 43  1  0  0  0  0
 40 44  1  0  0  0  0
 40 45  1  0  0  0  0
 11 14  1  0  0  0  0
 11 15  1  0  0  0  0
 11 16  1  0  0  0  0
 23 30  1  0  0  0  0
 23 31  1  0  0  0  0
 23 32  1  0  0  0  0
 24 33  1  0  0  0  0
 24 34  1  0  0  0  0
 24 35  1  0  0  0  0
 47 49  1  0  0  0  0
 47 50  1  0  0  0  0
 47 51  1  0  0  0  0
 21 27  1  0  0  0  0
 21 28  1  0  0  0  0
 37 42  1  0  0  0  0
  8 13  1  0  0  0  0
 18 26  1  0  0  0  0
 22 29  1  0  0  0  0
 46 48  1  0  0  0  0
  7 12  1  0  0  0  0
 36 41  1  0  0  0  0
 17 25  1  0  0  0  0
M  END
$$$$

  -OEChem-05262214473D

 51 50  0     1  0  0  0  0  0999 V2000
    3.4018   -1.2440   -3.0186 C   0  0  0  0  0  0  0  0  0  0  0  0
    3.2697   -2.0909   -2.1427 O   0  0  0  0  0  0  0  0  0  0  0  0
    4.6845   -1.1645   -3.7779 C   0  0  0  0  0  0  0  0  0  0  0  0
    5.4123   -0.4862   -3.3041 H   0  0  0  0  0  0  0  0  0  0  0  0
    5.1949   -2.1387   -3.8443 H   0  0  0  0  0  0  0  0  0  0  0  0
    4.5953   -0.8128   -4.8182 H   0  0  0  0  0  0  0  0  0  0  0  0
    2.4540   -0.3103   -3.4040 N   0  0  0  0  0  0  0  0  0  0  0  0
    1.1494   -0.2128   -2.8039 C   0  0  2  0  0  0  0  0  0  0  0  0
    1.3350    0.0367   -1.3130 C   0  0  0  0  0  0  0  0  0  0  0  0
    2.3625   -0.2586   -0.7063 O   0  0  0  0  0  0  0  0  0  0  0  0
    0.3331   -1.4728   -3.0467 C   0  0  0  0  0  0  0  0  0  0  0  0
    2.6924    0.3404   -4.1502 H   0  0  0  0  0  0  0  0  0  0  0  0
    0.6550    0.6514   -3.2607 H   0  0  0  0  0  0  0  0  0  0  0  0
    0.8129   -2.3494   -2.5963 H   0  0  0  0  0  0  0  0  0  0  0  0
   -0.6690   -1.3857   -2.6142 H   0  0  0  0  0  0  0  0  0  0  0  0
    0.2259   -1.6670   -4.1194 H   0  0  0  0  0  0  0  0  0  0  0  0
    0.2019    0.5893   -0.7269 N   0  0  0  0  0  0  0  0  0  0  0  0
    0.1242    0.9059    0.6756 C   0  0  2  0  0  0  0  0  0  0  0  0
   -0.7463   -0.1626    1.3296 C   0  0  0  0  0  0  0  0  0  0  0  0
   -1.2175   -1.1137    0.7095 O   0  0  0  0  0  0  0  0  0  0  0  0
   -0.4689    2.2986    0.9244 C   0  0  0  0  0  0  0  0  0  0  0  0
    0.3968    3.4703    0.4181 C   0  0  0  0  0  0  0  0  0  0  0  0
   -0.3660    4.7870    0.5889 C   0  0  0  0  0  0  0  0  0  0  0  0
    0.8096    3.3003   -1.0446 C   0  0  0  0  0  0  0  0  0  0  0  0
   -0.5975    0.8179   -1.3140 H   0  0  0  0  0  0  0  0  0  0  0  0
    1.1393    0.8273    1.0776 H   0  0  0  0  0  0  0  0  0  0  0  0
   -0.6356    2.4253    2.0033 H   0  0  0  0  0  0  0  0  0  0  0  0
   -1.4621    2.3594    0.4598 H   0  0  0  0  0  0  0  0  0  0  0  0
    1.3069    3.5346    1.0269 H   0  0  0  0  0  0  0  0  0  0  0  0
   -1.2897    4.7810    0.0005 H   0  0  0  0  0  0  0  0  0  0  0  0
    0.2391    5.6342    0.2489 H   0  0  0  0  0  0  0  0  0  0  0  0
   -0.6329    4.9595    1.6372 H   0  0  0  0  0  0  0  0  0  0  0  0
   -0.0661    3.2306   -1.6988 H   0  0  0  0  0  0  0  0  0  0  0  0
    1.4135    4.1510   -1.3787 H   0  0  0  0  0  0  0  0  0  0  0  0
    1.4149    2.4002   -1.1863 H   0  0  0  0  0  0  0  0  0  0  0  0
   -0.8899    0.0464    2.6942 N   0  0  0  0  0  0  0  0  0  0  0  0
   -1.6441   -0.8352    3.5560 C   0  0  2  0  0  0  0  0  0  0  0  0
   -1.3768   -2.2676    3.1133 C   0  0  0  0  0  0  0  0  0  0  0  0
   -0.9878   -2.5593    1.9842 O   0  0  0  0  0  0  0  0  0  0  0  0
   -3.1308   -0.5193    3.5061 C   0  0  0  0  0  0  0  0  0  0  0  0
   -0.4401    0.8492    3.1240 H   0  0  0  0  0  0  0  0  0  0  0  0
   -1.2607   -0.6887    4.5717 H   0  0  0  0  0  0  0  0  0  0  0  0
   -3.5328   -0.6604    2.4961 H   0  0  0  0  0  0  0  0  0  0  0  0
   -3.6974   -1.1691    4.1811 H   0  0  0  0  0  0  0  0  0  0  0  0
   -3.3184    0.5202    3.7962 H   0  0  0  0  0  0  0  0  0  0  0  0
   -1.6649   -3.1855    4.1136 N   0  0  0  0  0  0  0  0  0  0  0  0
   -1.5055   -4.6097    3.9345 C   0  0  0  0  0  0  0  0  0  0  0  0
   -1.9646   -2.8531    5.0255 H   0  0  0  0  0  0  0  0  0  0  0  0
   -2.4552   -5.0451    3.5902 H   0  0  0  0  0  0  0  0  0  0  0  0
   -0.7225   -4.7995    3.1856 H   0  0  0  0  0  0  0  0  0  0  0  0
   -1.2170   -5.0695    4.8912 H   0  0  0  0  0  0  0  0  0  0  0  0
  1  3  1  0  0  0  0
  1  7  1  0  0  0  0
  1  2  2  0  0  0  0
 37 38  1  0  0  0  0
 38 46  1  0  0  0  0
 38 39  2  0  0  0  0
  8  9  1  0  0  0  0
  9 17  1  0  0  0  0
  9 10  2  0  0  0  0
 18 19  1  0  0  0  0
 19 36  1  0  0  0  0
 19 20  2  0  0  0  0
 37 40  1  0  0  0  0
  8 11  1  0  0  0  0
 22 23  1  0  0  0  0
 22 24  1  0  0  0  0
 46 47  1  0  0  0  0
 18 21  1  0  0  0  0
 21 22  1  0  0  0  0
 36 37  1  0  0  0  0
  7  8  1  0  0  0  0
 17 18  1  0  0  0  0
  3  4  1  0  0  0  0
  3  5  1  0  0  0  0
  3  6  1  0  0  0  0
 40 43  1  0  0  0  0
 40 44  1  0  0  0  0
 40 45  1  0  0  0  0
 11 14  1  0  0  0  0
 11 15  1  0  0  0  0
 11 16  1  0  0  0  0
 23 30  1  0  0  0  0
 23 31  1  0  0  0  0
 23 32  1  0  0  0  0
 24 33  1  0  0  0  0
 24 34  1  0  0  0  0
 24 35  1  0  0  0  0
 47 49  1  0  0  0  0
 47 50  1  0  0  0  0
 47 51  1  0  0  0  0
 21 27  1  0  0  0  0
 21 28  1  0  0  0  0
 37 42  1  0  0  0  0
  8 13  1  0  0  0  0
 18 26  1  0  0  0  0
 22 29  1  0  0  0  0
 46 48  1  0  0  0  0
  7 12  1  0  0  0  0
 36 41  1  0  0  0  0
 17 25  1  0  0  0  0
M  END
$$$$

  -OEChem-05262214473D

 51 50  0     1  0  0  0  0  0999 V2000
    3.4018   -1.2440   -3.0186 C   0  0  0  0  0  0  0  0  0  0  0  0
    3.2697   -2.0909   -2.1427 O   0  0  0  0  0  0  0  0  0  0  0  0
    4.6845   -1.1645   -3.7779 C   0  0  0  0  0  0  0  0  0  0  0  0
    5.4123   -0.4862   -3.3041 H   0  0  0  0  0  0  0  0  0  0  0  0
    5.1949   -2.1387   -3.8443 H   0  0  0  0  0  0  0  0  0  0  0  0
    4.5953   -0.8128   -4.8182 H   0  0  0  0  0  0  0  0  0  0  0  0
    2.4540   -0.3103   -3.4040 N   0  0  0  0  0  0  0  0  0  0  0  0
    1.1494   -0.2128   -2.8039 C   0  0  2  0  0  0  0  0  0  0  0  0
    1.3350    0.0367   -1.3130 C   0  0  0  0  0  0  0  0  0  0  0  0
    2.3625   -0.2586   -0.7063 O   0  0  0  0  0  0  0  0  0  0  0  0
    0.3331   -1.4728   -3.0467 C   0  0  0  0  0  0  0  0  0  0  0  0
    2.6924    0.3404   -4.1502 H   0  0  0  0  0  0  0  0  0  0  0  0
    0.6550    0.6514   -3.2607 H   0  0  0  0  0  0  0  0  0  0  0  0
    0.8129   -2.3494   -2.5963 H   0  0  0  0  0  0  0  0  0  0  0  0
   -0.6690   -1.3857   -2.6142 H   0  0  0  0  0  0  0  0  0  0  0  0
    0.2259   -1.6670   -4.1194 H   0  0  0  0  0  0  0  0  0  0  0  0
    0.2019    0.5893   -0.7269 N   0  0  0  0  0  0  0  0  0  0  0  0
    0.1242    0.9059    0.6756 C   0  0  2  0  0  0  0  0  0  0  0  0
   -0.7463   -0.1626    1.3296 C   0  0  0  0  0  0  0  0  0  0  0  0
   -0.9965   -1.2412    0.7954 O   0  0  0  0  0  0  0  0  0  0  0  0
   -0.4689    2.2986    0.9244 C   0  0  0  0  0  0  0  0  0  0  0  0
    0.3968    3.4703    0.4181 C   0  0  0  0  0  0  0  0  0  0  0  0
   -0.3660    4.7870    0.5889 C   0  0  0  0  0  0  0  0  0  0  0  0
    0.8096    3.3003   -1.0446 C   0  0  0  0  0  0  0  0  0  0  0  0
   -0.5975    0.8179   -1.3140 H   0  0  0  0  0  0  0  0  0  0  0  0
    1.1393    0.8273    1.0776 H   0  0  0  0  0  0  0  0  0  0  0  0
   -0.6356    2.4253    2.0033 H   0  0  0  0  0  0  0  0  0  0  0  0
   -1.4621    2.3594    0.4598 H   0  0  0  0  0  0  0  0  0  0  0  0
    1.3069    3.5346    1.0269 H   0  0  0  0  0  0  0  0  0  0  0  0
   -1.2897    4.7810    0.0005 H   0  0  0  0  0  0  0  0  0  0  0  0
    0.2391    5.6342    0.2489 H   0  0  0  0  0  0  0  0  0  0  0  0
   -0.6329    4.9595    1.6372 H   0  0  0  0  0  0  0  0  0  0  0  0
   -0.0661    3.2306   -1.6988 H   0  0  0  0  0  0  0  0  0  0  0  0
    1.4135    4.1510   -1.3787 H   0  0  0  0  0  0  0  0  0  0  0  0
    1.4149    2.4002   -1.1863 H   0  0  0  0  0  0  0  0  0  0  0  0
   -1.1657    0.2125    2.5984 N   0  0  0  0  0  0  0  0  0  0  0  0
   -1.9801   -0.6293    3.4450 C   0  0  2  0  0  0  0  0  0  0  0  0
   -1.4956   -2.0645    3.2871 C   0  0  0  0  0  0  0  0  0  0  0  0
   -0.8731   -2.4578    2.3027 O   0  0  0  0  0  0  0  0  0  0  0  0
   -3.4540   -0.5110    3.0895 C   0  0  0  0  0  0  0  0  0  0  0  0
   -0.8859    1.1165    2.9673 H   0  0  0  0  0  0  0  0  0  0  0  0
   -1.8125   -0.2980    4.4756 H   0  0  0  0  0  0  0  0  0  0  0  0
   -3.6415   -0.8385    2.0604 H   0  0  0  0  0  0  0  0  0  0  0  0
   -4.0723   -1.1274    3.7503 H   0  0  0  0  0  0  0  0  0  0  0  0
   -3.7934    0.5270    3.1749 H   0  0  0  0  0  0  0  0  0  0  0  0
   -1.8775   -2.8648    4.3547 N   0  0  0  0  0  0  0  0  0  0  0  0
   -1.5491   -4.2690    4.4330 C   0  0  0  0  0  0  0  0  0  0  0  0
   -2.3755   -2.4502    5.1369 H   0  0  0  0  0  0  0  0  0  0  0  0
   -2.3693   -4.8625    4.0028 H   0  0  0  0  0  0  0  0  0  0  0  0
   -0.6236   -4.4610    3.8703 H   0  0  0  0  0  0  0  0  0  0  0  0
   -1.4039   -4.5534    5.4856 H   0  0  0  0  0  0  0  0  0  0  0  0
  1  3  1  0  0  0  0
  1  7  1  0  0  0  0
  1  2  2  0  0  0  0
 37 38  1  0  0  0  0
 38 46  1  0  0  0  0
 38 39  2  0  0  0  0
  8  9  1  0  0  0  0
  9 17  1  0  0  0  0
  9 10  2  0  0  0  0
 18 19  1  0  0  0  0
 19 36  1  0  0  0  0
 19 20  2  0  0  0  0
 37 40  1  0  0  0  0
  8 11  1  0  0  0  0
 22 23  1  0  0  0  0
 22 24  1  0  0  0  0
 46 47  1  0  0  0  0
 18 21  1  0  0  0  0
 21 22  1  0  0  0  0
 36 37  1  0  0  0  0
  7  8  1  0  0  0  0
 17 18  1  0  0  0  0
  3  4  1  0  0  0  0
  3  5  1  0  0  0  0
  3  6  1  0  0  0  0
 40 43  1  0  0  0  0
 40 44  1  0  0  0  0
 40 45  1  0  0  0  0
 11 14  1  0  0  0  0
 11 15  1  0  0  0  0
 11 16  1  0  0  0  0
 23 30  1  0  0  0  0
 23 31  1  0  0  0  0
 23 32  1  0  0  0  0
 24 33  1  0  0  0  0
 24 34  1  0  0  0  0
 24 35  1  0  0  0  0
 47 49  1  0  0  0  0
 47 50  1  0  0  0  0
 47 51  1  0  0  0  0
 21 27  1  0  0  0  0
 21 28  1  0  0  0  0
 37 42  1  0  0  0  0
  8 13  1  0  0  0  0
 18 26  1  0  0  0  0
 22 29  1  0  0  0  0
 46 48  1  0  0  0  0
  7 12  1  0  0  0  0
 36 41  1  0  0  0  0
 17 25  1  0  0  0  0
M  END
$$$$

  -OEChem-05262214473D

 51 50  0     1  0  0  0  0  0999 V2000
    3.4018   -1.2440   -3.0186 C   0  0  0  0  0  0  0  0  0  0  0  0
    3.2697   -2.0909   -2.1427 O   0  0  0  0  0  0  0  0  0  0  0  0
    4.6845   -1.1645   -3.7779 C   0  0  0  0  0  0  0  0  0  0  0  0
    5.4123   -0.4862   -3.3041 H   0  0  0  0  0  0  0  0  0  0  0  0
    5.1949   -2.1387   -3.8443 H   0  0  0  0  0  0  0  0  0  0  0  0
    4.5953   -0.8128   -4.8182 H   0  0  0  0  0  0  0  0  0  0  0  0
    2.4540   -0.3103   -3.4040 N   0  0  0  0  0  0  0  0  0  0  0  0
    1.1494   -0.2128   -2.8039 C   0  0  2  0  0  0  0  0  0  0  0  0
    1.3350    0.0367   -1.3130 C   0  0  0  0  0  0  0  0  0  0  0  0
    2.3625   -0.2586   -0.7063 O   0  0  0  0  0  0  0  0  0  0  0  0
    0.3331   -1.4728   -3.0467 C   0  0  0  0  0  0  0  0  0  0  0  0
    2.6924    0.3404   -4.1502 H   0  0  0  0  0  0  0  0  0  0  0  0
    0.6550    0.6514   -3.2607 H   0  0  0  0  0  0  0  0  0  0  0  0
    0.8129   -2.3494   -2.5963 H   0  0  0  0  0  0  0  0  0  0  0  0
   -0.6690   -1.3857   -2.6142 H   0  0  0  0  0  0  0  0  0  0  0  0
    0.2259   -1.6670   -4.1194 H   0  0  0  0  0  0  0  0  0  0  0  0
    0.2019    0.5893   -0.7269 N   0  0  0  0  0  0  0  0  0  0  0  0
    0.1242    0.9059    0.6756 C   0  0  2  0  0  0  0  0  0  0  0  0
   -0.7463   -0.1626    1.3296 C   0  0  0  0  0  0  0  0  0  0  0  0
   -0.7845   -1.3270    0.9373 O   0  0  0  0  0  0  0  0  0  0  0  0
   -0.4689    2.2986    0.9244 C   0  0  0  0  0  0  0  0  0  0  0  0
    0.3968    3.4703    0.4181 C   0  0  0  0  0  0  0  0  0  0  0  0
   -0.3660    4.7870    0.5889 C   0  0  0  0  0  0  0  0  0  0  0  0
    0.8096    3.3003   -1.0446 C   0  0  0  0  0  0  0  0  0  0  0  0
   -0.5975    0.8179   -1.3140 H   0  0  0  0  0  0  0  0  0  0  0  0
    1.1393    0.8273    1.0776 H   0  0  0  0  0  0  0  0  0  0  0  0
   -0.6356    2.4253    2.0033 H   0  0  0  0  0  0  0  0  0  0  0  0
   -1.4621    2.3594    0.4598 H   0  0  0  0  0  0  0  0  0  0  0  0
    1.3069    3.5346    1.0269 H   0  0  0  0  0  0  0  0  0  0  0  0
   -1.2897    4.7810    0.0005 H   0  0  0  0  0  0  0  0  0  0  0  0
    0.2391    5.6342    0.2489 H   0  0  0  0  0  0  0  0  0  0  0  0
   -0.6329    4.9595    1.6372 H   0  0  0  0  0  0  0  0  0  0  0  0
   -0.0661    3.2306   -1.6988 H   0  0  0  0  0  0  0  0  0  0  0  0
    1.4135    4.1510   -1.3787 H   0  0  0  0  0  0  0  0  0  0  0  0
    1.4149    2.4002   -1.1863 H   0  0  0  0  0  0  0  0  0  0  0  0
   -1.4332    0.3281    2.4313 N   0  0  0  0  0  0  0  0  0  0  0  0
   -2.3075   -0.4841    3.2465 C   0  0  2  0  0  0  0  0  0  0  0  0
   -1.6644   -1.8557    3.4034 C   0  0  0  0  0  0  0  0  0  0  0  0
   -0.8313   -2.2999    2.6162 O   0  0  0  0  0  0  0  0  0  0  0  0
   -3.6916   -0.6003    2.6272 C   0  0  0  0  0  0  0  0  0  0  0  0
   -1.3177    1.3020    2.6956 H   0  0  0  0  0  0  0  0  0  0  0  0
   -2.3713    0.0040    4.2251 H   0  0  0  0  0  0  0  0  0  0  0  0
   -3.6478   -1.0870    1.6461 H   0  0  0  0  0  0  0  0  0  0  0  0
   -4.3610   -1.1922    3.2601 H   0  0  0  0  0  0  0  0  0  0  0  0
   -4.1404    0.3890    2.4877 H   0  0  0  0  0  0  0  0  0  0  0  0
   -2.1621   -2.5430    4.5016 N   0  0  0  0  0  0  0  0  0  0  0  0
   -1.7194   -3.8712    4.8563 C   0  0  0  0  0  0  0  0  0  0  0  0
   -2.8373   -2.0901    5.1105 H   0  0  0  0  0  0  0  0  0  0  0  0
   -2.3814   -4.6157    4.3900 H   0  0  0  0  0  0  0  0  0  0  0  0
   -0.6898   -4.0218    4.4997 H   0  0  0  0  0  0  0  0  0  0  0  0
   -1.7494   -3.9878    5.9497 H   0  0  0  0  0  0  0  0  0  0  0  0
  1  3  1  0  0  0  0
  1  7  1  0  0  0  0
  1  2  2  0  0  0  0
 37 38  1  0  0  0  0
 38 46  1  0  0  0  0
 38 39  2  0  0  0  0
  8  9  1  0  0  0  0
  9 17  1  0  0  0  0
  9 10  2  0  0  0  0
 18 19  1  0  0  0  0
 19 36  1  0  0  0  0
 19 20  2  0  0  0  0
 37 40  1  0  0  0  0
  8 11  1  0  0  0  0
 22 23  1  0  0  0  0
 22 24  1  0  0  0  0
 46 47  1  0  0  0  0
 18 21  1  0  0  0  0
 21 22  1  0  0  0  0
 36 37  1  0  0  0  0
  7  8  1  0  0  0  0
 17 18  1  0  0  0  0
  3  4  1  0  0  0  0
  3  5  1  0  0  0  0
  3  6  1  0  0  0  0
 40 43  1  0  0  0  0
 40 44  1  0  0  0  0
 40 45  1  0  0  0  0
 11 14  1  0  0  0  0
 11 15  1  0  0  0  0
 11 16  1  0  0  0  0
 23 30  1  0  0  0  0
 23 31  1  0  0  0  0
 23 32  1  0  0  0  0
 24 33  1  0  0  0  0
 24 34  1  0  0  0  0
 24 35  1  0  0  0  0
 47 49  1  0  0  0  0
 47 50  1  0  0  0  0
 47 51  1  0  0  0  0
 21 27  1  0  0  0  0
 21 28  1  0  0  0  0
 37 42  1  0  0  0  0
  8 13  1  0  0  0  0
 18 26  1  0  0  0  0
 22 29  1  0  0  0  0
 46 48  1  0  0  0  0
  7 12  1  0  0  0  0
 36 41  1  0  0  0  0
 17 25  1  0  0  0  0
M  END
$$$$

  -OEChem-05262214473D

 51 50  0     1  0  0  0  0  0999 V2000
    3.4018   -1.2440   -3.0186 C   0  0  0  0  0  0  0  0  0  0  0  0
    3.2697   -2.0909   -2.1427 O   0  0  0  0  0  0  0  0  0  0  0  0
    4.6845   -1.1645   -3.7779 C   0  0  0  0  0  0  0  0  0  0  0  0
    5.4123   -0.4862   -3.3041 H   0  0  0  0  0  0  0  0  0  0  0  0
    5.1949   -2.1387   -3.8443 H   0  0  0  0  0  0  0  0  0  0  0  0
    4.5953   -0.8128   -4.8182 H   0  0  0  0  0  0  0  0  0  0  0  0
    2.4540   -0.3103   -3.4040 N   0  0  0  0  0  0  0  0  0  0  0  0
    1.1494   -0.2128   -2.8039 C   0  0  2  0  0  0  0  0  0  0  0  0
    1.3350    0.0367   -1.3130 C   0  0  0  0  0  0  0  0  0  0  0  0
    2.3625   -0.2586   -0.7063 O   0  0  0  0  0  0  0  0  0  0  0  0
    0.3331   -1.4728   -3.0467 C   0  0  0  0  0  0  0  0  0  0  0  0
    2.6924    0.3404   -4.1502 H   0  0  0  0  0  0  0  0  0  0  0  0
    0.6550    0.6514   -3.2607 H   0  0  0  0  0  0  0  0  0  0  0  0
    0.8129   -2.3494   -2.5963 H   0  0  0  0  0  0  0  0  0  0  0  0
   -0.6690   -1.3857   -2.6142 H   0  0  0  0  0  0  0  0  0  0  0  0
    0.2259   -1.6670   -4.1194 H   0  0  0  0  0  0  0  0  0  0  0  0
    0.2019    0.5893   -0.7269 N   0  0  0  0  0  0  0  0  0  0  0  0
    0.1242    0.9059    0.6756 C   0  0  2  0  0  0  0  0  0  0  0  0
   -0.7463   -0.1626    1.3296 C   0  0  0  0  0  0  0  0  0  0  0  0
   -0.5959   -1.3655    1.1255 O   0  0  0  0  0  0  0  0  0  0  0  0
   -0.4689    2.2986    0.9244 C   0  0  0  0  0  0  0  0  0  0  0  0
    0.3968    3.4703    0.4181 C   0  0  0  0  0  0  0  0  0  0  0  0
   -0.3660    4.7870    0.5889 C   0  0  0  0  0  0  0  0  0  0  0  0
    0.8096    3.3003   -1.0446 C   0  0  0  0  0  0  0  0  0  0  0  0
   -0.5975    0.8179   -1.3140 H   0  0  0  0  0  0  0  0  0  0  0  0
    1.1393    0.8273    1.0776 H   0  0  0  0  0  0  0  0  0  0  0  0
   -0.6356    2.4253    2.0033 H   0  0  0  0  0  0  0  0  0  0  0  0
   -1.4621    2.3594    0.4598 H   0  0  0  0  0  0  0  0  0  0  0  0
    1.3069    3.5346    1.0269 H   0  0  0  0  0  0  0  0  0  0  0  0
   -1.2897    4.7810    0.0005 H   0  0  0  0  0  0  0  0  0  0  0  0
    0.2391    5.6342    0.2489 H   0  0  0  0  0  0  0  0  0  0  0  0
   -0.6329    4.9595    1.6372 H   0  0  0  0  0  0  0  0  0  0  0  0
   -0.0661    3.2306   -1.6988 H   0  0  0  0  0  0  0  0  0  0  0  0
    1.4135    4.1510   -1.3787 H   0  0  0  0  0  0  0  0  0  0  0  0
    1.4149    2.4002   -1.1863 H   0  0  0  0  0  0  0  0  0  0  0  0
   -1.6741    0.3855    2.2044 N   0  0  0  0  0  0  0  0  0  0  0  0
   -2.6038   -0.4095    2.9740 C   0  0  2  0  0  0  0  0  0  0  0  0
   -1.8717   -1.6557    3.4543 C   0  0  0  0  0  0  0  0  0  0  0  0
   -0.8652   -2.0966    2.9032 O   0  0  0  0  0  0  0  0  0  0  0  0
   -3.8274   -0.7813    2.1509 C   0  0  0  0  0  0  0  0  0  0  0  0
   -1.7062    1.3932    2.3275 H   0  0  0  0  0  0  0  0  0  0  0  0
   -2.8993    0.1967    3.8372 H   0  0  0  0  0  0  0  0  0  0  0  0
   -3.5511   -1.3889    1.2814 H   0  0  0  0  0  0  0  0  0  0  0  0
   -4.5438   -1.3593    2.7439 H   0  0  0  0  0  0  0  0  0  0  0  0
   -4.3358    0.1158    1.7814 H   0  0  0  0  0  0  0  0  0  0  0  0
   -2.4993   -2.2420    4.5445 N   0  0  0  0  0  0  0  0  0  0  0  0
   -2.0048   -3.4433    5.1756 C   0  0  0  0  0  0  0  0  0  0  0  0
   -3.3186   -1.7974    4.9481 H   0  0  0  0  0  0  0  0  0  0  0  0
   -2.4907   -4.3214    4.7253 H   0  0  0  0  0  0  0  0  0  0  0  0
   -0.9165   -3.5121    5.0307 H   0  0  0  0  0  0  0  0  0  0  0  0
   -2.2301   -3.4113    6.2518 H   0  0  0  0  0  0  0  0  0  0  0  0
  1  3  1  0  0  0  0
  1  7  1  0  0  0  0
  1  2  2  0  0  0  0
 37 38  1  0  0  0  0
 38 46  1  0  0  0  0
 38 39  2  0  0  0  0
  8  9  1  0  0  0  0
  9 17  1  0  0  0  0
  9 10  2  0  0  0  0
 18 19  1  0  0  0  0
 19 36  1  0  0  0  0
 19 20  2  0  0  0  0
 37 40  1  0  0  0  0
  8 11  1  0  0  0  0
 22 23  1  0  0  0  0
 22 24  1  0  0  0  0
 46 47  1  0  0  0  0
 18 21  1  0  0  0  0
 21 22  1  0  0  0  0
 36 37  1  0  0  0  0
  7  8  1  0  0  0  0
 17 18  1  0  0  0  0
  3  4  1  0  0  0  0
  3  5  1  0  0  0  0
  3  6  1  0  0  0  0
 40 43  1  0  0  0  0
 40 44  1  0  0  0  0
 40 45  1  0  0  0  0
 11 14  1  0  0  0  0
 11 15  1  0  0  0  0
 11 16  1  0  0  0  0
 23 30  1  0  0  0  0
 23 31  1  0  0  0  0
 23 32  1  0  0  0  0
 24 33  1  0  0  0  0
 24 34  1  0  0  0  0
 24 35  1  0  0  0  0
 47 49  1  0  0  0  0
 47 50  1  0  0  0  0
 47 51  1  0  0  0  0
 21 27  1  0  0  0  0
 21 28  1  0  0  0  0
 37 42  1  0  0  0  0
  8 13  1  0  0  0  0
 18 26  1  0  0  0  0
 22 29  1  0  0  0  0
 46 48  1  0  0  0  0
  7 12  1  0  0  0  0
 36 41  1  0  0  0  0
 17 25  1  0  0  0  0
M  END
$$$$

  -OEChem-05262214473D

 51 50  0     1  0  0  0  0  0999 V2000
    3.4018   -1.2440   -3.0186 C   0  0  0  0  0  0  0  0  0  0  0  0
    3.2697   -2.0909   -2.1427 O   0  0  0  0  0  0  0  0  0  0  0  0
    4.6845   -1.1645   -3.7779 C   0  0  0  0  0  0  0  0  0  0  0  0
    5.4123   -0.4862   -3.3041 H   0  0  0  0  0  0  0  0  0  0  0  0
    5.1949   -2.1387   -3.8443 H   0  0  0  0  0  0  0  0  0  0  0  0
    4.5953   -0.8128   -4.8182 H   0  0  0  0  0  0  0  0  0  0  0  0
    2.4540   -0.3103   -3.4040 N   0  0  0  0  0  0  0  0  0  0  0  0
    1.1494   -0.2128   -2.8039 C   0  0  2  0  0  0  0  0  0  0  0  0
    1.3350    0.0367   -1.3130 C   0  0  0  0  0  0  0  0  0  0  0  0
    2.3625   -0.2586   -0.7063 O   0  0  0  0  0  0  0  0  0  0  0  0
    0.3331   -1.4728   -3.0467 C   0  0  0  0  0  0  0  0  0  0  0  0
    2.6924    0.3404   -4.1502 H   0  0  0  0  0  0  0  0  0  0  0  0
    0.6550    0.6514   -3.2607 H   0  0  0  0  0  0  0  0  0  0  0  0
    0.8129   -2.3494   -2.5963 H   0  0  0  0  0  0  0  0  0  0  0  0
   -0.6690   -1.3857   -2.6142 H   0  0  0  0  0  0  0  0  0  0  0  0
    0.2259   -1.6670   -4.1194 H   0  0  0  0  0  0  0  0  0  0  0  0
    0.2019    0.5893   -0.7269 N   0  0  0  0  0  0  0  0  0  0  0  0
    0.1242    0.9059    0.6756 C   0  0  2  0  0  0  0  0  0  0  0  0
   -0.7463   -0.1626    1.3296 C   0  0  0  0  0  0  0  0  0  0  0  0
   -0.4436   -1.3539    1.3471 O   0  0  0  0  0  0  0  0  0  0  0  0
   -0.4689    2.2986    0.9244 C   0  0  0  0  0  0  0  0  0  0  0  0
    0.3968    3.4703    0.4181 C   0  0  0  0  0  0  0  0  0  0  0  0
   -0.3660    4.7870    0.5889 C   0  0  0  0  0  0  0  0  0  0  0  0
    0.8096    3.3003   -1.0446 C   0  0  0  0  0  0  0  0  0  0  0  0
   -0.5975    0.8179   -1.3140 H   0  0  0  0  0  0  0  0  0  0  0  0
    1.1393    0.8273    1.0776 H   0  0  0  0  0  0  0  0  0  0  0  0
   -0.6356    2.4253    2.0033 H   0  0  0  0  0  0  0  0  0  0  0  0
   -1.4621    2.3594    0.4598 H   0  0  0  0  0  0  0  0  0  0  0  0
    1.3069    3.5346    1.0269 H   0  0  0  0  0  0  0  0  0  0  0  0
   -1.2897    4.7810    0.0005 H   0  0  0  0  0  0  0  0  0  0  0  0
    0.2391    5.6342    0.2489 H   0  0  0  0  0  0  0  0  0  0  0  0
   -0.6329    4.9595    1.6372 H   0  0  0  0  0  0  0  0  0  0  0  0
   -0.0661    3.2306   -1.6988 H   0  0  0  0  0  0  0  0  0  0  0  0
    1.4135    4.1510   -1.3787 H   0  0  0  0  0  0  0  0  0  0  0  0
    1.4149    2.4002   -1.1863 H   0  0  0  0  0  0  0  0  0  0  0  0
   -1.8720    0.3806    1.9331 N   0  0  0  0  0  0  0  0  0  0  0  0
   -2.8489   -0.4106    2.6460 C   0  0  2  0  0  0  0  0  0  0  0  0
   -2.1034   -1.4779    3.4363 C   0  0  0  0  0  0  0  0  0  0  0  0
   -0.9727   -1.8615    3.1443 O   0  0  0  0  0  0  0  0  0  0  0  0
   -3.8521   -1.0415    1.6929 C   0  0  0  0  0  0  0  0  0  0  0  0
   -2.0248    1.3838    1.8880 H   0  0  0  0  0  0  0  0  0  0  0  0
   -3.3603    0.2669    3.3384 H   0  0  0  0  0  0  0  0  0  0  0  0
   -3.3582   -1.7237    0.9914 H   0  0  0  0  0  0  0  0  0  0  0  0
   -4.6082   -1.6172    2.2367 H   0  0  0  0  0  0  0  0  0  0  0  0
   -4.3660   -0.2741    1.1041 H   0  0  0  0  0  0  0  0  0  0  0  0
   -2.8662   -1.9824    4.4803 N   0  0  0  0  0  0  0  0  0  0  0  0
   -2.3858   -3.0145    5.3691 C   0  0  0  0  0  0  0  0  0  0  0  0
   -3.7865   -1.5921    4.6607 H   0  0  0  0  0  0  0  0  0  0  0  0
   -2.6897   -3.9998    4.9859 H   0  0  0  0  0  0  0  0  0  0  0  0
   -1.2884   -2.9664    5.4273 H   0  0  0  0  0  0  0  0  0  0  0  0
   -2.8131   -2.8632    6.3713 H   0  0  0  0  0  0  0  0  0  0  0  0
  1  3  1  0  0  0  0
  1  7  1  0  0  0  0
  1  2  2  0  0  0  0
 37 38  1  0  0  0  0
 38 46  1  0  0  0  0
 38 39  2  0  0  0  0
  8  9  1  0  0  0  0
  9 17  1  0  0  0  0
  9 10  2  0  0  0  0
 18 19  1  0  0  0  0
 19 36  1  0  0  0  0
 19 20  2  0  0  0  0
 37 40  1  0  0  0  0
  8 11  1  0  0  0  0
 22 23  1  0  0  0  0
 22 24  1  0  0  0  0
 46 47  1  0  0  0  0
 18 21  1  0  0  0  0
 21 22  1  0  0  0  0
 36 37  1  0  0  0  0
  7  8  1  0  0  0  0
 17 18  1  0  0  0  0
  3  4  1  0  0  0  0
  3  5  1  0  0  0  0
  3  6  1  0  0  0  0
 40 43  1  0  0  0  0
 40 44  1  0  0  0  0
 40 45  1  0  0  0  0
 11 14  1  0  0  0  0
 11 15  1  0  0  0  0
 11 16  1  0  0  0  0
 23 30  1  0  0  0  0
 23 31  1  0  0  0  0
 23 32  1  0  0  0  0
 24 33  1  0  0  0  0
 24 34  1  0  0  0  0
 24 35  1  0  0  0  0
 47 49  1  0  0  0  0
 47 50  1  0  0  0  0
 47 51  1  0  0  0  0
 21 27  1  0  0  0  0
 21 28  1  0  0  0  0
 37 42  1  0  0  0  0
  8 13  1  0  0  0  0
 18 26  1  0  0  0  0
 22 29  1  0  0  0  0
 46 48  1  0  0  0  0
  7 12  1  0  0  0  0
 36 41  1  0  0  0  0
 17 25  1  0  0  0  0
M  END
$$$$

  -OEChem-05262214473D

 51 50  0     1  0  0  0  0  0999 V2000
    3.4018   -1.2440   -3.0186 C   0  0  0  0  0  0  0  0  0  0  0  0
    3.2697   -2.0909   -2.1427 O   0  0  0  0  0  0  0  0  0  0  0  0
    4.6845   -1.1645   -3.7779 C   0  0  0  0  0  0  0  0  0  0  0  0
    5.4123   -0.4862   -3.3041 H   0  0  0  0  0  0  0  0  0  0  0  0
    5.1949   -2.1387   -3.8443 H   0  0  0  0  0  0  0  0  0  0  0  0
    4.5953   -0.8128   -4.8182 H   0  0  0  0  0  0  0  0  0  0  0  0
    2.4540   -0.3103   -3.4040 N   0  0  0  0  0  0  0  0  0  0  0  0
    1.1494   -0.2128   -2.8039 C   0  0  2  0  0  0  0  0  0  0  0  0
    1.3350    0.0367   -1.3130 C   0  0  0  0  0  0  0  0  0  0  0  0
    2.3625   -0.2586   -0.7063 O   0  0  0  0  0  0  0  0  0  0  0  0
    0.3331   -1.4728   -3.0467 C   0  0  0  0  0  0  0  0  0  0  0  0
    2.6924    0.3404   -4.1502 H   0  0  0  0  0  0  0  0  0  0  0  0
    0.6550    0.6514   -3.2607 H   0  0  0  0  0  0  0  0  0  0  0  0
    0.8129   -2.3494   -2.5963 H   0  0  0  0  0  0  0  0  0  0  0  0
   -0.6690   -1.3857   -2.6142 H   0  0  0  0  0  0  0  0  0  0  0  0
    0.2259   -1.6670   -4.1194 H   0  0  0  0  0  0  0  0  0  0  0  0
    0.2019    0.5893   -0.7269 N   0  0  0  0  0  0  0  0  0  0  0  0
    0.1242    0.9059    0.6756 C   0  0  2  0  0  0  0  0  0  0  0  0
   -0.7463   -0.1626    1.3296 C   0  0  0  0  0  0  0  0  0  0  0  0
   -0.3379   -1.2931    1.5871 O   0  0  0  0  0  0  0  0  0  0  0  0
   -0.4689    2.2986    0.9244 C   0  0  0  0  0  0  0  0  0  0  0  0
    0.3968    3.4703    0.4181 C   0  0  0  0  0  0  0  0  0  0  0  0
   -0.3660    4.7870    0.5889 C   0  0  0  0  0  0  0  0  0  0  0  0
    0.8096    3.3003   -1.0446 C   0  0  0  0  0  0  0  0  0  0  0  0
   -0.5975    0.8179   -1.3140 H   0  0  0  0  0  0  0  0  0  0  0  0
    1.1393    0.8273    1.0776 H   0  0  0  0  0  0  0  0  0  0  0  0
   -0.6356    2.4253    2.0033 H   0  0  0  0  0  0  0  0  0  0  0  0
   -1.4621    2.3594    0.4598 H   0  0  0  0  0  0  0  0  0  0  0  0
    1.3069    3.5346    1.0269 H   0  0  0  0  0  0  0  0  0  0  0  0
   -1.2897    4.7810    0.0005 H   0  0  0  0  0  0  0  0  0  0  0  0
    0.2391    5.6342    0.2489 H   0  0  0  0  0  0  0  0  0  0  0  0
   -0.6329    4.9595    1.6372 H   0  0  0  0  0  0  0  0  0  0  0  0
   -0.0661    3.2306   -1.6988 H   0  0  0  0  0  0  0  0  0  0  0  0
    1.4135    4.1510   -1.3787 H   0  0  0  0  0  0  0  0  0  0  0  0
    1.4149    2.4002   -1.1863 H   0  0  0  0  0  0  0  0  0  0  0  0
   -2.0135    0.3139    1.6358 N   0  0  0  0  0  0  0  0  0  0  0  0
   -3.0261   -0.4873    2.2849 C   0  0  2  0  0  0  0  0  0  0  0  0
   -2.3437   -1.3346    3.3507 C   0  0  0  0  0  0  0  0  0  0  0  0
   -1.1462   -1.6108    3.3230 O   0  0  0  0  0  0  0  0  0  0  0  0
   -3.7640   -1.3632    1.2844 C   0  0  0  0  0  0  0  0  0  0  0  0
   -2.2518    1.2744    1.4072 H   0  0  0  0  0  0  0  0  0  0  0  0
   -3.7229    0.2100    2.7626 H   0  0  0  0  0  0  0  0  0  0  0  0
   -3.0821   -2.0684    0.7956 H   0  0  0  0  0  0  0  0  0  0  0  0
   -4.5499   -1.9484    1.7733 H   0  0  0  0  0  0  0  0  0  0  0  0
   -4.2292   -0.7541    0.5019 H   0  0  0  0  0  0  0  0  0  0  0  0
   -3.2378   -1.7818    4.3134 N   0  0  0  0  0  0  0  0  0  0  0  0
   -2.8365   -2.6139    5.4236 C   0  0  0  0  0  0  0  0  0  0  0  0
   -4.2091   -1.4881    4.2680 H   0  0  0  0  0  0  0  0  0  0  0  0
   -2.9649   -3.6727    5.1541 H   0  0  0  0  0  0  0  0  0  0  0  0
   -1.7800   -2.4220    5.6624 H   0  0  0  0  0  0  0  0  0  0  0  0
   -3.4588   -2.3808    6.3001 H   0  0  0  0  0  0  0  0  0  0  0  0
  1  3  1  0  0  0  0
  1  7  1  0  0  0  0
  1  2  2  0  0  0  0
 37 38  1  0  0  0  0
 38 46  1  0  0  0  0
 38 39  2  0  0  0  0
  8  9  1  0  0  0  0
  9 17  1  0  0  0  0
  9 10  2  0  0  0  0
 18 19  1  0  0  0  0
 19 36  1  0  0  0  0
 19 20  2  0  0  0  0
 37 40  1  0  0  0  0
  8 11  1  0  0  0  0
 22 23  1  0  0  0  0
 22 24  1  0  0  0  0
 46 47  1  0  0  0  0
 18 21  1  0  0  0  0
 21 22  1  0  0  0  0
 36 37  1  0  0  0  0
  7  8  1  0  0  0  0
 17 18  1  0  0  0  0
  3  4  1  0  0  0  0
  3  5  1  0  0  0  0
  3  6  1  0  0  0  0
 40 43  1  0  0  0  0
 40 44  1  0  0  0  0
 40 45  1  0  0  0  0
 11 14  1  0  0  0  0
 11 15  1  0  0  0  0
 11 16  1  0  0  0  0
 23 30  1  0  0  0  0
 23 31  1  0  0  0  0
 23 32  1  0  0  0  0
 24 33  1  0  0  0  0
 24 34  1  0  0  0  0
 24 35  1  0  0  0  0
 47 49  1  0  0  0  0
 47 50  1  0  0  0  0
 47 51  1  0  0  0  0
 21 27  1  0  0  0  0
 21 28  1  0  0  0  0
 37 42  1  0  0  0  0
  8 13  1  0  0  0  0
 18 26  1  0  0  0  0
 22 29  1  0  0  0  0
 46 48  1  0  0  0  0
  7 12  1  0  0  0  0
 36 41  1  0  0  0  0
 17 25  1  0  0  0  0
M  END
$$$$

  -OEChem-05262214473D

 51 50  0     1  0  0  0  0  0999 V2000
    3.4018   -1.2440   -3.0186 C   0  0  0  0  0  0  0  0  0  0  0  0
    3.2697   -2.0909   -2.1427 O   0  0  0  0  0  0  0  0  0  0  0  0
    4.6845   -1.1645   -3.7779 C   0  0  0  0  0  0  0  0  0  0  0  0
    5.4123   -0.4862   -3.3041 H   0  0  0  0  0  0  0  0  0  0  0  0
    5.1949   -2.1387   -3.8443 H   0  0  0  0  0  0  0  0  0  0  0  0
    4.5953   -0.8128   -4.8182 H   0  0  0  0  0  0  0  0  0  0  0  0
    2.4540   -0.3103   -3.4040 N   0  0  0  0  0  0  0  0  0  0  0  0
    1.1494   -0.2128   -2.8039 C   0  0  2  0  0  0  0  0  0  0  0  0
    1.3350    0.0367   -1.3130 C   0  0  0  0  0  0  0  0  0  0  0  0
    2.3625   -0.2586   -0.7063 O   0  0  0  0  0  0  0  0  0  0  0  0
    0.3331   -1.4728   -3.0467 C   0  0  0  0  0  0  0  0  0  0  0  0
    2.6924    0.3404   -4.1502 H   0  0  0  0  0  0  0  0  0  0  0  0
    0.6550    0.6514   -3.2607 H   0  0  0  0  0  0  0  0  0  0  0  0
    0.8129   -2.3494   -2.5963 H   0  0  0  0  0  0  0  0  0  0  0  0
   -0.6690   -1.3857   -2.6142 H   0  0  0  0  0  0  0  0  0  0  0  0
    0.2259   -1.6670   -4.1194 H   0  0  0  0  0  0  0  0  0  0  0  0
    0.2019    0.5893   -0.7269 N   0  0  0  0  0  0  0  0  0  0  0  0
    0.1242    0.9059    0.6756 C   0  0  2  0  0  0  0  0  0  0  0  0
   -0.7463   -0.1626    1.3296 C   0  0  0  0  0  0  0  0  0  0  0  0
   -0.2861   -1.1872    1.8291 O   0  0  0  0  0  0  0  0  0  0  0  0
   -0.4689    2.2986    0.9244 C   0  0  0  0  0  0  0  0  0  0  0  0
    0.3968    3.4703    0.4181 C   0  0  0  0  0  0  0  0  0  0  0  0
   -0.3660    4.7870    0.5889 C   0  0  0  0  0  0  0  0  0  0  0  0
    0.8096    3.3003   -1.0446 C   0  0  0  0  0  0  0  0  0  0  0  0
   -0.5975    0.8179   -1.3140 H   0  0  0  0  0  0  0  0  0  0  0  0
    1.1393    0.8273    1.0776 H   0  0  0  0  0  0  0  0  0  0  0  0
   -0.6356    2.4253    2.0033 H   0  0  0  0  0  0  0  0  0  0  0  0
   -1.4621    2.3594    0.4598 H   0  0  0  0  0  0  0  0  0  0  0  0
    1.3069    3.5346    1.0269 H   0  0  0  0  0  0  0  0  0  0  0  0
   -1.2897    4.7810    0.0005 H   0  0  0  0  0  0  0  0  0  0  0  0
    0.2391    5.6342    0.2489 H   0  0  0  0  0  0  0  0  0  0  0  0
   -0.6329    4.9595    1.6372 H   0  0  0  0  0  0  0  0  0  0  0  0
   -0.0661    3.2306   -1.6988 H   0  0  0  0  0  0  0  0  0  0  0  0
    1.4135    4.1510   -1.3787 H   0  0  0  0  0  0  0  0  0  0  0  0
    1.4149    2.4002   -1.1863 H   0  0  0  0  0  0  0  0  0  0  0  0
   -2.0888    0.1899    1.3329 N   0  0  0  0  0  0  0  0  0  0  0  0
   -3.1232   -0.6344    1.9153 C   0  0  2  0  0  0  0  0  0  0  0  0
   -2.5762   -1.2354    3.2033 C   0  0  0  0  0  0  0  0  0  0  0  0
   -1.3740   -1.3614    3.4271 O   0  0  0  0  0  0  0  0  0  0  0  0
   -3.5693   -1.7245    0.9534 C   0  0  0  0  0  0  0  0  0  0  0  0
   -2.3718    1.0726    0.9177 H   0  0  0  0  0  0  0  0  0  0  0  0
   -3.9625    0.0297    2.1491 H   0  0  0  0  0  0  0  0  0  0  0  0
   -2.7416   -2.3997    0.7074 H   0  0  0  0  0  0  0  0  0  0  0  0
   -4.3728   -2.3302    1.3852 H   0  0  0  0  0  0  0  0  0  0  0  0
   -3.9347   -1.2915    0.0160 H   0  0  0  0  0  0  0  0  0  0  0  0
   -3.5887   -1.6540    4.0552 N   0  0  0  0  0  0  0  0  0  0  0  0
   -3.3261   -2.2690    5.3353 C   0  0  0  0  0  0  0  0  0  0  0  0
   -4.5577   -1.4926    3.7968 H   0  0  0  0  0  0  0  0  0  0  0  0
   -3.2974   -3.3624    5.2183 H   0  0  0  0  0  0  0  0  0  0  0  0
   -2.3579   -1.9160    5.7199 H   0  0  0  0  0  0  0  0  0  0  0  0
   -4.1230   -1.9970    6.0431 H   0  0  0  0  0  0  0  0  0  0  0  0
  1  3  1  0  0  0  0
  1  7  1  0  0  0  0
  1  2  2  0  0  0  0
 37 38  1  0  0  0  0
 38 46  1  0  0  0  0
 38 39  2  0  0  0  0
  8  9  1  0  0  0  0
  9 17  1  0  0  0  0
  9 10  2  0  0  0  0
 18 19  1  0  0  0  0
 19 36  1  0  0  0  0
 19 20  2  0  0  0  0
 37 40  1  0  0  0  0
  8 11  1  0  0  0  0
 22 23  1  0  0  0  0
 22 24  1  0  0  0  0
 46 47  1  0  0  0  0
 18 21  1  0  0  0  0
 21 22  1  0  0  0  0
 36 37  1  0  0  0  0
  7  8  1  0  0  0  0
 17 18  1  0  0  0  0
  3  4  1  0  0  0  0
  3  5  1  0  0  0  0
  3  6  1  0  0  0  0
 40 43  1  0  0  0  0
 40 44  1  0  0  0  0
 40 45  1  0  0  0  0
 11 14  1  0  0  0  0
 11 15  1  0  0  0  0
 11 16  1  0  0  0  0
 23 30  1  0  0  0  0
 23 31  1  0  0  0  0
 23 32  1  0  0  0  0
 24 33  1  0  0  0  0
 24 34  1  0  0  0  0
 24 35  1  0  0  0  0
 47 49  1  0  0  0  0
 47 50  1  0  0  0  0
 47 51  1  0  0  0  0
 21 27  1  0  0  0  0
 21 28  1  0  0  0  0
 37 42  1  0  0  0  0
  8 13  1  0  0  0  0
 18 26  1  0  0  0  0
 22 29  1  0  0  0  0
 46 48  1  0  0  0  0
  7 12  1  0  0  0  0
 36 41  1  0  0  0  0
 17 25  1  0  0  0  0
M  END
$$$$

  -OEChem-05262214473D

 51 50  0     1  0  0  0  0  0999 V2000
    3.4018   -1.2440   -3.0186 C   0  0  0  0  0  0  0  0  0  0  0  0
    3.2697   -2.0909   -2.1427 O   0  0  0  0  0  0  0  0  0  0  0  0
    4.6845   -1.1645   -3.7779 C   0  0  0  0  0  0  0  0  0  0  0  0
    5.4123   -0.4862   -3.3041 H   0  0  0  0  0  0  0  0  0  0  0  0
    5.1949   -2.1387   -3.8443 H   0  0  0  0  0  0  0  0  0  0  0  0
    4.5953   -0.8128   -4.8182 H   0  0  0  0  0  0  0  0  0  0  0  0
    2.4540   -0.3103   -3.4040 N   0  0  0  0  0  0  0  0  0  0  0  0
    1.1494   -0.2128   -2.8039 C   0  0  2  0  0  0  0  0  0  0  0  0
    1.3350    0.0367   -1.3130 C   0  0  0  0  0  0  0  0  0  0  0  0
    2.3625   -0.2586   -0.7063 O   0  0  0  0  0  0  0  0  0  0  0  0
    0.3331   -1.4728   -3.0467 C   0  0  0  0  0  0  0  0  0  0  0  0
    2.6924    0.3404   -4.1502 H   0  0  0  0  0  0  0  0  0  0  0  0
    0.6550    0.6514   -3.2607 H   0  0  0  0  0  0  0  0  0  0  0  0
    0.8129   -2.3494   -2.5963 H   0  0  0  0  0  0  0  0  0  0  0  0
   -0.6690   -1.3857   -2.6142 H   0  0  0  0  0  0  0  0  0  0  0  0
    0.2259   -1.6670   -4.1194 H   0  0  0  0  0  0  0  0  0  0  0  0
    0.2019    0.5893   -0.7269 N   0  0  0  0  0  0  0  0  0  0  0  0
    0.1242    0.9059    0.6756 C   0  0  2  0  0  0  0  0  0  0  0  0
   -0.7463   -0.1626    1.3296 C   0  0  0  0  0  0  0  0  0  0  0  0
   -0.2917   -1.0434    2.0566 O   0  0  0  0  0  0  0  0  0  0  0  0
   -0.4689    2.2986    0.9244 C   0  0  0  0  0  0  0  0  0  0  0  0
    0.3968    3.4703    0.4181 C   0  0  0  0  0  0  0  0  0  0  0  0
   -0.3660    4.7870    0.5889 C   0  0  0  0  0  0  0  0  0  0  0  0
    0.8096    3.3003   -1.0446 C   0  0  0  0  0  0  0  0  0  0  0  0
   -0.5975    0.8179   -1.3140 H   0  0  0  0  0  0  0  0  0  0  0  0
    1.1393    0.8273    1.0776 H   0  0  0  0  0  0  0  0  0  0  0  0
   -0.6356    2.4253    2.0033 H   0  0  0  0  0  0  0  0  0  0  0  0
   -1.4621    2.3594    0.4598 H   0  0  0  0  0  0  0  0  0  0  0  0
    1.3069    3.5346    1.0269 H   0  0  0  0  0  0  0  0  0  0  0  0
   -1.2897    4.7810    0.0005 H   0  0  0  0  0  0  0  0  0  0  0  0
    0.2391    5.6342    0.2489 H   0  0  0  0  0  0  0  0  0  0  0  0
   -0.6329    4.9595    1.6372 H   0  0  0  0  0  0  0  0  0  0  0  0
   -0.0661    3.2306   -1.6988 H   0  0  0  0  0  0  0  0  0  0  0  0
    1.4135    4.1510   -1.3787 H   0  0  0  0  0  0  0  0  0  0  0  0
    1.4149    2.4002   -1.1863 H   0  0  0  0  0  0  0  0  0  0  0  0
   -2.0929    0.0170    1.0450 N   0  0  0  0  0  0  0  0  0  0  0  0
   -3.1338   -0.8418    1.5625 C   0  0  2  0  0  0  0  0  0  0  0  0
   -2.7850   -1.1872    3.0042 C   0  0  0  0  0  0  0  0  0  0  0  0
   -1.6406   -1.1305    3.4495 O   0  0  0  0  0  0  0  0  0  0  0  0
   -3.2810   -2.1008    0.7223 C   0  0  0  0  0  0  0  0  0  0  0  0
   -2.3766    0.7920    0.4530 H   0  0  0  0  0  0  0  0  0  0  0  0
   -4.0628   -0.2617    1.5398 H   0  0  0  0  0  0  0  0  0  0  0  0
   -2.3600   -2.6950    0.7329 H   0  0  0  0  0  0  0  0  0  0  0  0
   -4.0890   -2.7367    1.0987 H   0  0  0  0  0  0  0  0  0  0  0  0
   -3.5025   -1.8496   -0.3207 H   0  0  0  0  0  0  0  0  0  0  0  0
   -3.8951   -1.6075    3.7233 N   0  0  0  0  0  0  0  0  0  0  0  0
   -3.8214   -2.0033    5.1104 C   0  0  0  0  0  0  0  0  0  0  0  0
   -4.8085   -1.6052    3.2790 H   0  0  0  0  0  0  0  0  0  0  0  0
   -3.6647   -3.0902    5.1743 H   0  0  0  0  0  0  0  0  0  0  0  0
   -2.9827   -1.4828    5.5959 H   0  0  0  0  0  0  0  0  0  0  0  0
   -4.7607   -1.7379    5.6177 H   0  0  0  0  0  0  0  0  0  0  0  0
  1  3  1  0  0  0  0
  1  7  1  0  0  0  0
  1  2  2  0  0  0  0
 37 38  1  0  0  0  0
 38 46  1  0  0  0  0
 38 39  2  0  0  0  0
  8  9  1  0  0  0  0
  9 17  1  0  0  0  0
  9 10  2  0  0  0  0
 18 19  1  0  0  0  0
 19 36  1  0  0  0  0
 19 20  2  0  0  0  0
 37 40  1  0  0  0  0
  8 11  1  0  0  0  0
 22 23  1  0  0  0  0
 22 24  1  0  0  0  0
 46 47  1  0  0  0  0
 18 21  1  0  0  0  0
 21 22  1  0  0  0  0
 36 37  1  0  0  0  0
  7  8  1  0  0  0  0
 17 18  1  0  0  0  0
  3  4  1  0  0  0  0
  3  5  1  0  0  0  0
  3  6  1  0  0  0  0
 40 43  1  0  0  0  0
 40 44  1  0  0  0  0
 40 45  1  0  0  0  0
 11 14  1  0  0  0  0
 11 15  1  0  0  0  0
 11 16  1  0  0  0  0
 23 30  1  0  0  0  0
 23 31  1  0  0  0  0
 23 32  1  0  0  0  0
 24 33  1  0  0  0  0
 24 34  1  0  0  0  0
 24 35  1  0  0  0  0
 47 49  1  0  0  0  0
 47 50  1  0  0  0  0
 47 51  1  0  0  0  0
 21 27  1  0  0  0  0
 21 28  1  0  0  0  0
 37 42  1  0  0  0  0
  8 13  1  0  0  0  0
 18 26  1  0  0  0  0
 22 29  1  0  0  0  0
 46 48  1  0  0  0  0
  7 12  1  0  0  0  0
 36 41  1  0  0  0  0
 17 25  1  0  0  0  0
M  END
$$$$

  -OEChem-05262214473D

 51 50  0     1  0  0  0  0  0999 V2000
    3.4018   -1.2440   -3.0186 C   0  0  0  0  0  0  0  0  0  0  0  0
    3.2697   -2.0909   -2.1427 O   0  0  0  0  0  0  0  0  0  0  0  0
    4.6845   -1.1645   -3.7779 C   0  0  0  0  0  0  0  0  0  0  0  0
    5.4123   -0.4862   -3.3041 H   0  0  0  0  0  0  0  0  0  0  0  0
    5.1949   -2.1387   -3.8443 H   0  0  0  0  0  0  0  0  0  0  0  0
    4.5953   -0.8128   -4.8182 H   0  0  0  0  0  0  0  0  0  0  0  0
    2.4540   -0.3103   -3.4040 N   0  0  0  0  0  0  0  0  0  0  0  0
    1.1494   -0.2128   -2.8039 C   0  0  2  0  0  0  0  0  0  0  0  0
    1.3350    0.0367   -1.3130 C   0  0  0  0  0  0  0  0  0  0  0  0
    2.3625   -0.2586   -0.7063 O   0  0  0  0  0  0  0  0  0  0  0  0
    0.3331   -1.4728   -3.0467 C   0  0  0  0  0  0  0  0  0  0  0  0
    2.6924    0.3404   -4.1502 H   0  0  0  0  0  0  0  0  0  0  0  0
    0.6550    0.6514   -3.2607 H   0  0  0  0  0  0  0  0  0  0  0  0
    0.8129   -2.3494   -2.5963 H   0  0  0  0  0  0  0  0  0  0  0  0
   -0.6690   -1.3857   -2.6142 H   0  0  0  0  0  0  0  0  0  0  0  0
    0.2259   -1.6670   -4.1194 H   0  0  0  0  0  0  0  0  0  0  0  0
    0.2019    0.5893   -0.7269 N   0  0  0  0  0  0  0  0  0  0  0  0
    0.1242    0.9059    0.6756 C   0  0  2  0  0  0  0  0  0  0  0  0
   -0.7463   -0.1626    1.3296 C   0  0  0  0  0  0  0  0  0  0  0  0
   -0.3542   -0.8716    2.2542 O   0  0  0  0  0  0  0  0  0  0  0  0
   -0.4689    2.2986    0.9244 C   0  0  0  0  0  0  0  0  0  0  0  0
    0.3968    3.4703    0.4181 C   0  0  0  0  0  0  0  0  0  0  0  0
   -0.3660    4.7870    0.5889 C   0  0  0  0  0  0  0  0  0  0  0  0
    0.8096    3.3003   -1.0446 C   0  0  0  0  0  0  0  0  0  0  0  0
   -0.5975    0.8179   -1.3140 H   0  0  0  0  0  0  0  0  0  0  0  0
    1.1393    0.8273    1.0776 H   0  0  0  0  0  0  0  0  0  0  0  0
   -0.6356    2.4253    2.0033 H   0  0  0  0  0  0  0  0  0  0  0  0
   -1.4621    2.3594    0.4598 H   0  0  0  0  0  0  0  0  0  0  0  0
    1.3069    3.5346    1.0269 H   0  0  0  0  0  0  0  0  0  0  0  0
   -1.2897    4.7810    0.0005 H   0  0  0  0  0  0  0  0  0  0  0  0
    0.2391    5.6342    0.2489 H   0  0  0  0  0  0  0  0  0  0  0  0
   -0.6329    4.9595    1.6372 H   0  0  0  0  0  0  0  0  0  0  0  0
   -0.0661    3.2306   -1.6988 H   0  0  0  0  0  0  0  0  0  0  0  0
    1.4135    4.1510   -1.3787 H   0  0  0  0  0  0  0  0  0  0  0  0
    1.4149    2.4002   -1.1863 H   0  0  0  0  0  0  0  0  0  0  0  0
   -2.0255   -0.1930    0.7916 N   0  0  0  0  0  0  0  0  0  0  0  0
   -3.0569   -1.0954    1.2503 C   0  0  2  0  0  0  0  0  0  0  0  0
   -2.9560   -1.1932    2.7668 C   0  0  0  0  0  0  0  0  0  0  0  0
   -1.9279   -0.9337    3.3887 O   0  0  0  0  0  0  0  0  0  0  0  0
   -2.9190   -2.4664    0.6069 C   0  0  0  0  0  0  0  0  0  0  0  0
   -2.2659    0.4519    0.0447 H   0  0  0  0  0  0  0  0  0  0  0  0
   -4.0168   -0.6442    0.9760 H   0  0  0  0  0  0  0  0  0  0  0  0
   -1.9633   -2.9341    0.8704 H   0  0  0  0  0  0  0  0  0  0  0  0
   -3.7179   -3.1402    0.9335 H   0  0  0  0  0  0  0  0  0  0  0  0
   -2.9620   -2.3906   -0.4850 H   0  0  0  0  0  0  0  0  0  0  0  0
   -4.1360   -1.6457    3.3404 N   0  0  0  0  0  0  0  0  0  0  0  0
   -4.2885   -1.8347    4.7641 C   0  0  0  0  0  0  0  0  0  0  0  0
   -4.9444   -1.8183    2.7501 H   0  0  0  0  0  0  0  0  0  0  0  0
   -4.0417   -2.8744    5.0250 H   0  0  0  0  0  0  0  0  0  0  0  0
   -3.6118   -1.1521    5.2990 H   0  0  0  0  0  0  0  0  0  0  0  0
   -5.3282   -1.6212    5.0529 H   0  0  0  0  0  0  0  0  0  0  0  0
  1  3  1  0  0  0  0
  1  7  1  0  0  0  0
  1  2  2  0  0  0  0
 37 38  1  0  0  0  0
 38 46  1  0  0  0  0
 38 39  2  0  0  0  0
  8  9  1  0  0  0  0
  9 17  1  0  0  0  0
  9 10  2  0  0  0  0
 18 19  1  0  0  0  0
 19 36  1  0  0  0  0
 19 20  2  0  0  0  0
 37 40  1  0  0  0  0
  8 11  1  0  0  0  0
 22 23  1  0  0  0  0
 22 24  1  0  0  0  0
 46 47  1  0  0  0  0
 18 21  1  0  0  0  0
 21 22  1  0  0  0  0
 36 37  1  0  0  0  0
  7  8  1  0  0  0  0
 17 18  1  0  0  0  0
  3  4  1  0  0  0  0
  3  5  1  0  0  0  0
  3  6  1  0  0  0  0
 40 43  1  0  0  0  0
 40 44  1  0  0  0  0
 40 45  1  0  0  0  0
 11 14  1  0  0  0  0
 11 15  1  0  0  0  0
 11 16  1  0  0  0  0
 23 30  1  0  0  0  0
 23 31  1  0  0  0  0
 23 32  1  0  0  0  0
 24 33  1  0  0  0  0
 24 34  1  0  0  0  0
 24 35  1  0  0  0  0
 47 49  1  0  0  0  0
 47 50  1  0  0  0  0
 47 51  1  0  0  0  0
 21 27  1  0  0  0  0
 21 28  1  0  0  0  0
 37 42  1  0  0  0  0
  8 13  1  0  0  0  0
 18 26  1  0  0  0  0
 22 29  1  0  0  0  0
 46 48  1  0  0  0  0
  7 12  1  0  0  0  0
 36 41  1  0  0  0  0
 17 25  1  0  0  0  0
M  END
$$$$

  -OEChem-05262214473D

 51 50  0     1  0  0  0  0  0999 V2000
    3.4018   -1.2440   -3.0186 C   0  0  0  0  0  0  0  0  0  0  0  0
    3.2697   -2.0909   -2.1427 O   0  0  0  0  0  0  0  0  0  0  0  0
    4.6845   -1.1645   -3.7779 C   0  0  0  0  0  0  0  0  0  0  0  0
    5.4123   -0.4862   -3.3041 H   0  0  0  0  0  0  0  0  0  0  0  0
    5.1949   -2.1387   -3.8443 H   0  0  0  0  0  0  0  0  0  0  0  0
    4.5953   -0.8128   -4.8182 H   0  0  0  0  0  0  0  0  0  0  0  0
    2.4540   -0.3103   -3.4040 N   0  0  0  0  0  0  0  0  0  0  0  0
    1.1494   -0.2128   -2.8039 C   0  0  2  0  0  0  0  0  0  0  0  0
    1.3350    0.0367   -1.3130 C   0  0  0  0  0  0  0  0  0  0  0  0
    2.3625   -0.2586   -0.7063 O   0  0  0  0  0  0  0  0  0  0  0  0
    0.3331   -1.4728   -3.0467 C   0  0  0  0  0  0  0  0  0  0  0  0
    2.6924    0.3404   -4.1502 H   0  0  0  0  0  0  0  0  0  0  0  0
    0.6550    0.6514   -3.2607 H   0  0  0  0  0  0  0  0  0  0  0  0
    0.8129   -2.3494   -2.5963 H   0  0  0  0  0  0  0  0  0  0  0  0
   -0.6690   -1.3857   -2.6142 H   0  0  0  0  0  0  0  0  0  0  0  0
    0.2259   -1.6670   -4.1194 H   0  0  0  0  0  0  0  0  0  0  0  0
    0.2019    0.5893   -0.7269 N   0  0  0  0  0  0  0  0  0  0  0  0
    0.1242    0.9059    0.6756 C   0  0  2  0  0  0  0  0  0  0  0  0
   -0.7463   -0.1626    1.3296 C   0  0  0  0  0  0  0  0  0  0  0  0
   -0.4696   -0.6833    2.4082 O   0  0  0  0  0  0  0  0  0  0  0  0
   -0.4689    2.2986    0.9244 C   0  0  0  0  0  0  0  0  0  0  0  0
    0.3968    3.4703    0.4181 C   0  0  0  0  0  0  0  0  0  0  0  0
   -0.3660    4.7870    0.5889 C   0  0  0  0  0  0  0  0  0  0  0  0
    0.8096    3.3003   -1.0446 C   0  0  0  0  0  0  0  0  0  0  0  0
   -0.5975    0.8179   -1.3140 H   0  0  0  0  0  0  0  0  0  0  0  0
    1.1393    0.8273    1.0776 H   0  0  0  0  0  0  0  0  0  0  0  0
   -0.6356    2.4253    2.0033 H   0  0  0  0  0  0  0  0  0  0  0  0
   -1.4621    2.3594    0.4598 H   0  0  0  0  0  0  0  0  0  0  0  0
    1.3069    3.5346    1.0269 H   0  0  0  0  0  0  0  0  0  0  0  0
   -1.2897    4.7810    0.0005 H   0  0  0  0  0  0  0  0  0  0  0  0
    0.2391    5.6342    0.2489 H   0  0  0  0  0  0  0  0  0  0  0  0
   -0.6329    4.9595    1.6372 H   0  0  0  0  0  0  0  0  0  0  0  0
   -0.0661    3.2306   -1.6988 H   0  0  0  0  0  0  0  0  0  0  0  0
    1.4135    4.1510   -1.3787 H   0  0  0  0  0  0  0  0  0  0  0  0
    1.4149    2.4002   -1.1863 H   0  0  0  0  0  0  0  0  0  0  0  0
   -1.8911   -0.4258    0.5902 N   0  0  0  0  0  0  0  0  0  0  0  0
   -2.8980   -1.3780    1.0002 C   0  0  2  0  0  0  0  0  0  0  0  0
   -3.0774   -1.2530    2.5074 C   0  0  0  0  0  0  0  0  0  0  0  0
   -2.2161   -0.7845    3.2489 O   0  0  0  0  0  0  0  0  0  0  0  0
   -2.5078   -2.7964    0.6150 C   0  0  0  0  0  0  0  0  0  0  0  0
   -2.0471    0.0753   -0.2794 H   0  0  0  0  0  0  0  0  0  0  0  0
   -3.8277   -1.0919    0.4963 H   0  0  0  0  0  0  0  0  0  0  0  0
   -1.5785   -3.1007    1.1103 H   0  0  0  0  0  0  0  0  0  0  0  0
   -3.2846   -3.5132    0.9009 H   0  0  0  0  0  0  0  0  0  0  0  0
   -2.3501   -2.8773   -0.4659 H   0  0  0  0  0  0  0  0  0  0  0  0
   -4.2950   -1.7658    2.9324 N   0  0  0  0  0  0  0  0  0  0  0  0
   -4.6955   -1.7749    4.3200 C   0  0  0  0  0  0  0  0  0  0  0  0
   -4.9561   -2.1173    2.2460 H   0  0  0  0  0  0  0  0  0  0  0  0
   -4.4027   -2.7299    4.7805 H   0  0  0  0  0  0  0  0  0  0  0  0
   -4.2023   -0.9463    4.8493 H   0  0  0  0  0  0  0  0  0  0  0  0
   -5.7869   -1.6549    4.3873 H   0  0  0  0  0  0  0  0  0  0  0  0
  1  3  1  0  0  0  0
  1  7  1  0  0  0  0
  1  2  2  0  0  0  0
 37 38  1  0  0  0  0
 38 46  1  0  0  0  0
 38 39  2  0  0  0  0
  8  9  1  0  0  0  0
  9 17  1  0  0  0  0
  9 10  2  0  0  0  0
 18 19  1  0  0  0  0
 19 36  1  0  0  0  0
 19 20  2  0  0  0  0
 37 40  1  0  0  0  0
  8 11  1  0  0  0  0
 22 23  1  0  0  0  0
 22 24  1  0  0  0  0
 46 47  1  0  0  0  0
 18 21  1  0  0  0  0
 21 22  1  0  0  0  0
 36 37  1  0  0  0  0
  7  8  1  0  0  0  0
 17 18  1  0  0  0  0
  3  4  1  0  0  0  0
  3  5  1  0  0  0  0
  3  6  1  0  0  0  0
 40 43  1  0  0  0  0
 40 44  1  0  0  0  0
 40 45  1  0  0  0  0
 11 14  1  0  0  0  0
 11 15  1  0  0  0  0
 11 16  1  0  0  0  0
 23 30  1  0  0  0  0
 23 31  1  0  0  0  0
 23 32  1  0  0  0  0
 24 33  1  0  0  0  0
 24 34  1  0  0  0  0
 24 35  1  0  0  0  0
 47 49  1  0  0  0  0
 47 50  1  0  0  0  0
 47 51  1  0  0  0  0
 21 27  1  0  0  0  0
 21 28  1  0  0  0  0
 37 42  1  0  0  0  0
  8 13  1  0  0  0  0
 18 26  1  0  0  0  0
 22 29  1  0  0  0  0
 46 48  1  0  0  0  0
  7 12  1  0  0  0  0
 36 41  1  0  0  0  0
 17 25  1  0  0  0  0
M  END
$$$$

  -OEChem-05262214473D

 51 50  0     1  0  0  0  0  0999 V2000
    3.4018   -1.2440   -3.0186 C   0  0  0  0  0  0  0  0  0  0  0  0
    3.2697   -2.0909   -2.1427 O   0  0  0  0  0  0  0  0  0  0  0  0
    4.6845   -1.1645   -3.7779 C   0  0  0  0  0  0  0  0  0  0  0  0
    5.4123   -0.4862   -3.3041 H   0  0  0  0  0  0  0  0  0  0  0  0
    5.1949   -2.1387   -3.8443 H   0  0  0  0  0  0  0  0  0  0  0  0
    4.5953   -0.8128   -4.8182 H   0  0  0  0  0  0  0  0  0  0  0  0
    2.4540   -0.3103   -3.4040 N   0  0  0  0  0  0  0  0  0  0  0  0
    1.1494   -0.2128   -2.8039 C   0  0  2  0  0  0  0  0  0  0  0  0
    1.3350    0.0367   -1.3130 C   0  0  0  0  0  0  0  0  0  0  0  0
    2.3625   -0.2586   -0.7063 O   0  0  0  0  0  0  0  0  0  0  0  0
    0.3331   -1.4728   -3.0467 C   0  0  0  0  0  0  0  0  0  0  0  0
    2.6924    0.3404   -4.1502 H   0  0  0  0  0  0  0  0  0  0  0  0
    0.6550    0.6514   -3.2607 H   0  0  0  0  0  0  0  0  0  0  0  0
    0.8129   -2.3494   -2.5963 H   0  0  0  0  0  0  0  0  0  0  0  0
   -0.6690   -1.3857   -2.6142 H   0  0  0  0  0  0  0  0  0  0  0  0
    0.2259   -1.6670   -4.1194 H   0  0  0  0  0  0  0  0  0  0  0  0
    0.2019    0.5893   -0.7269 N   0  0  0  0  0  0  0  0  0  0  0  0
    0.1242    0.9059    0.6756 C   0  0  2  0  0  0  0  0  0  0  0  0
   -0.7463   -0.1626    1.3296 C   0  0  0  0  0  0  0  0  0  0  0  0
   -0.6298   -0.4915    2.5083 O   0  0  0  0  0  0  0  0  0  0  0  0
   -0.4689    2.2986    0.9244 C   0  0  0  0  0  0  0  0  0  0  0  0
    0.3968    3.4703    0.4181 C   0  0  0  0  0  0  0  0  0  0  0  0
   -0.3660    4.7870    0.5889 C   0  0  0  0  0  0  0  0  0  0  0  0
    0.8096    3.3003   -1.0446 C   0  0  0  0  0  0  0  0  0  0  0  0
   -0.5975    0.8179   -1.3140 H   0  0  0  0  0  0  0  0  0  0  0  0
    1.1393    0.8273    1.0776 H   0  0  0  0  0  0  0  0  0  0  0  0
   -0.6356    2.4253    2.0033 H   0  0  0  0  0  0  0  0  0  0  0  0
   -1.4621    2.3594    0.4598 H   0  0  0  0  0  0  0  0  0  0  0  0
    1.3069    3.5346    1.0269 H   0  0  0  0  0  0  0  0  0  0  0  0
   -1.2897    4.7810    0.0005 H   0  0  0  0  0  0  0  0  0  0  0  0
    0.2391    5.6342    0.2489 H   0  0  0  0  0  0  0  0  0  0  0  0
   -0.6329    4.9595    1.6372 H   0  0  0  0  0  0  0  0  0  0  0  0
   -0.0661    3.2306   -1.6988 H   0  0  0  0  0  0  0  0  0  0  0  0
    1.4135    4.1510   -1.3787 H   0  0  0  0  0  0  0  0  0  0  0  0
    1.4149    2.4002   -1.1863 H   0  0  0  0  0  0  0  0  0  0  0  0
   -1.6990   -0.6655    0.4543 N   0  0  0  0  0  0  0  0  0  0  0  0
   -2.6678   -1.6702    0.8292 C   0  0  2  0  0  0  0  0  0  0  0  0
   -3.1410   -1.3626    2.2437 C   0  0  0  0  0  0  0  0  0  0  0  0
   -2.4857   -0.6930    3.0395 O   0  0  0  0  0  0  0  0  0  0  0  0
   -2.0754   -3.0683    0.7462 C   0  0  0  0  0  0  0  0  0  0  0  0
   -1.7353   -0.3121   -0.4972 H   0  0  0  0  0  0  0  0  0  0  0  0
   -3.5084   -1.5742    0.1333 H   0  0  0  0  0  0  0  0  0  0  0  0
   -1.2318   -3.1835    1.4365 H   0  0  0  0  0  0  0  0  0  0  0  0
   -2.8189   -3.8302    1.0029 H   0  0  0  0  0  0  0  0  0  0  0  0
   -1.7086   -3.2768   -0.2646 H   0  0  0  0  0  0  0  0  0  0  0  0
   -4.3613   -1.9598    2.5273 N   0  0  0  0  0  0  0  0  0  0  0  0
   -5.0149   -1.8278    3.8084 C   0  0  0  0  0  0  0  0  0  0  0  0
   -4.8429   -2.4818    1.8011 H   0  0  0  0  0  0  0  0  0  0  0  0
   -4.7231   -2.6665    4.4576 H   0  0  0  0  0  0  0  0  0  0  0  0
   -4.7140   -0.8794    4.2775 H   0  0  0  0  0  0  0  0  0  0  0  0
   -6.1056   -1.8367    3.6661 H   0  0  0  0  0  0  0  0  0  0  0  0
  1  3  1  0  0  0  0
  1  7  1  0  0  0  0
  1  2  2  0  0  0  0
 37 38  1  0  0  0  0
 38 46  1  0  0  0  0
 38 39  2  0  0  0  0
  8  9  1  0  0  0  0
  9 17  1  0  0  0  0
  9 10  2  0  0  0  0
 18 19  1  0  0  0  0
 19 36  1  0  0  0  0
 19 20  2  0  0  0  0
 37 40  1  0  0  0  0
  8 11  1  0  0  0  0
 22 23  1  0  0  0  0
 22 24  1  0  0  0  0
 46 47  1  0  0  0  0
 18 21  1  0  0  0  0
 21 22  1  0  0  0  0
 36 37  1  0  0  0  0
  7  8  1  0  0  0  0
 17 18  1  0  0  0  0
  3  4  1  0  0  0  0
  3  5  1  0  0  0  0
  3  6  1  0  0  0  0
 40 43  1  0  0  0  0
 40 44  1  0  0  0  0
 40 45  1  0  0  0  0
 11 14  1  0  0  0  0
 11 15  1  0  0  0  0
 11 16  1  0  0  0  0
 23 30  1  0  0  0  0
 23 31  1  0  0  0  0
 23 32  1  0  0  0  0
 24 33  1  0  0  0  0
 24 34  1  0  0  0  0
 24 35  1  0  0  0  0
 47 49  1  0  0  0  0
 47 50  1  0  0  0  0
 47 51  1  0  0  0  0
 21 27  1  0  0  0  0
 21 28  1  0  0  0  0
 37 42  1  0  0  0  0
  8 13  1  0  0  0  0
 18 26  1  0  0  0  0
 22 29  1  0  0  0  0
 46 48  1  0  0  0  0
  7 12  1  0  0  0  0
 36 41  1  0  0  0  0
 17 25  1  0  0  0  0
M  END
$$$$

  -OEChem-05262214473D

 51 50  0     1  0  0  0  0  0999 V2000
    3.4018   -1.2440   -3.0186 C   0  0  0  0  0  0  0  0  0  0  0  0
    3.2697   -2.0909   -2.1427 O   0  0  0  0  0  0  0  0  0  0  0  0
    4.6845   -1.1645   -3.7779 C   0  0  0  0  0  0  0  0  0  0  0  0
    5.4123   -0.4862   -3.3041 H   0  0  0  0  0  0  0  0  0  0  0  0
    5.1949   -2.1387   -3.8443 H   0  0  0  0  0  0  0  0  0  0  0  0
    4.5953   -0.8128   -4.8182 H   0  0  0  0  0  0  0  0  0  0  0  0
    2.4540   -0.3103   -3.4040 N   0  0  0  0  0  0  0  0  0  0  0  0
    1.1494   -0.2128   -2.8039 C   0  0  2  0  0  0  0  0  0  0  0  0
    1.3350    0.0367   -1.3130 C   0  0  0  0  0  0  0  0  0  0  0  0
    2.3625   -0.2586   -0.7063 O   0  0  0  0  0  0  0  0  0  0  0  0
    0.3331   -1.4728   -3.0467 C   0  0  0  0  0  0  0  0  0  0  0  0
    2.6924    0.3404   -4.1502 H   0  0  0  0  0  0  0  0  0  0  0  0
    0.6550    0.6514   -3.2607 H   0  0  0  0  0  0  0  0  0  0  0  0
    0.8129   -2.3494   -2.5963 H   0  0  0  0  0  0  0  0  0  0  0  0
   -0.6690   -1.3857   -2.6142 H   0  0  0  0  0  0  0  0  0  0  0  0
    0.2259   -1.6670   -4.1194 H   0  0  0  0  0  0  0  0  0  0  0  0
    0.2019    0.5893   -0.7269 N   0  0  0  0  0  0  0  0  0  0  0  0
    0.1242    0.9059    0.6756 C   0  0  2  0  0  0  0  0  0  0  0  0
   -0.7463   -0.1626    1.3296 C   0  0  0  0  0  0  0  0  0  0  0  0
   -0.8239   -0.3093    2.5476 O   0  0  0  0  0  0  0  0  0  0  0  0
   -0.4689    2.2986    0.9244 C   0  0  0  0  0  0  0  0  0  0  0  0
    0.3968    3.4703    0.4181 C   0  0  0  0  0  0  0  0  0  0  0  0
   -0.3660    4.7870    0.5889 C   0  0  0  0  0  0  0  0  0  0  0  0
    0.8096    3.3003   -1.0446 C   0  0  0  0  0  0  0  0  0  0  0  0
   -0.5975    0.8179   -1.3140 H   0  0  0  0  0  0  0  0  0  0  0  0
    1.1393    0.8273    1.0776 H   0  0  0  0  0  0  0  0  0  0  0  0
   -0.6356    2.4253    2.0033 H   0  0  0  0  0  0  0  0  0  0  0  0
   -1.4621    2.3594    0.4598 H   0  0  0  0  0  0  0  0  0  0  0  0
    1.3069    3.5346    1.0269 H   0  0  0  0  0  0  0  0  0  0  0  0
   -1.2897    4.7810    0.0005 H   0  0  0  0  0  0  0  0  0  0  0  0
    0.2391    5.6342    0.2489 H   0  0  0  0  0  0  0  0  0  0  0  0
   -0.6329    4.9595    1.6372 H   0  0  0  0  0  0  0  0  0  0  0  0
   -0.0661    3.2306   -1.6988 H   0  0  0  0  0  0  0  0  0  0  0  0
    1.4135    4.1510   -1.3787 H   0  0  0  0  0  0  0  0  0  0  0  0
    1.4149    2.4002   -1.1863 H   0  0  0  0  0  0  0  0  0  0  0  0
   -1.4622   -0.8957    0.3933 N   0  0  0  0  0  0  0  0  0  0  0  0
   -2.3820   -1.9522    0.7488 C   0  0  2  0  0  0  0  0  0  0  0  0
   -3.1425   -1.5144    1.9936 C   0  0  0  0  0  0  0  0  0  0  0  0
   -2.7184   -0.6654    2.7749 O   0  0  0  0  0  0  0  0  0  0  0  0
   -1.6514   -3.2637    0.9914 C   0  0  0  0  0  0  0  0  0  0  0  0
   -1.3516   -0.6838   -0.5939 H   0  0  0  0  0  0  0  0  0  0  0  0
   -3.0807   -2.0582   -0.0882 H   0  0  0  0  0  0  0  0  0  0  0  0
   -0.9468   -3.1769    1.8266 H   0  0  0  0  0  0  0  0  0  0  0  0
   -2.3523   -4.0696    1.2327 H   0  0  0  0  0  0  0  0  0  0  0  0
   -1.0810   -3.5618    0.1051 H   0  0  0  0  0  0  0  0  0  0  0  0
   -4.3304   -2.2143    2.1526 N   0  0  0  0  0  0  0  0  0  0  0  0
   -5.2248   -1.9900    3.2642 C   0  0  0  0  0  0  0  0  0  0  0  0
   -4.6124   -2.8871    1.4457 H   0  0  0  0  0  0  0  0  0  0  0  0
   -4.9812   -2.6885    4.0782 H   0  0  0  0  0  0  0  0  0  0  0  0
   -5.1120   -0.9561    3.6225 H   0  0  0  0  0  0  0  0  0  0  0  0
   -6.2626   -2.1541    2.9386 H   0  0  0  0  0  0  0  0  0  0  0  0
  1  3  1  0  0  0  0
  1  7  1  0  0  0  0
  1  2  2  0  0  0  0
 37 38  1  0  0  0  0
 38 46  1  0  0  0  0
 38 39  2  0  0  0  0
  8  9  1  0  0  0  0
  9 17  1  0  0  0  0
  9 10  2  0  0  0  0
 18 19  1  0  0  0  0
 19 36  1  0  0  0  0
 19 20  2  0  0  0  0
 37 40  1  0  0  0  0
  8 11  1  0  0  0  0
 22 23  1  0  0  0  0
 22 24  1  0  0  0  0
 46 47  1  0  0  0  0
 18 21  1  0  0  0  0
 21 22  1  0  0  0  0
 36 37  1  0  0  0  0
  7  8  1  0  0  0  0
 17 18  1  0  0  0  0
  3  4  1  0  0  0  0
  3  5  1  0  0  0  0
  3  6  1  0  0  0  0
 40 43  1  0  0  0  0
 40 44  1  0  0  0  0
 40 45  1  0  0  0  0
 11 14  1  0  0  0  0
 11 15  1  0  0  0  0
 11 16  1  0  0  0  0
 23 30  1  0  0  0  0
 23 31  1  0  0  0  0
 23 32  1  0  0  0  0
 24 33  1  0  0  0  0
 24 34  1  0  0  0  0
 24 35  1  0  0  0  0
 47 49  1  0  0  0  0
 47 50  1  0  0  0  0
 47 51  1  0  0  0  0
 21 27  1  0  0  0  0
 21 28  1  0  0  0  0
 37 42  1  0  0  0  0
  8 13  1  0  0  0  0
 18 26  1  0  0  0  0
 22 29  1  0  0  0  0
 46 48  1  0  0  0  0
  7 12  1  0  0  0  0
 36 41  1  0  0  0  0
 17 25  1  0  0  0  0
M  END
$$$$

  -OEChem-05262214473D

 51 50  0     1  0  0  0  0  0999 V2000
    3.4018   -1.2440   -3.0186 C   0  0  0  0  0  0  0  0  0  0  0  0
    3.2697   -2.0909   -2.1427 O   0  0  0  0  0  0  0  0  0  0  0  0
    4.6845   -1.1645   -3.7779 C   0  0  0  0  0  0  0  0  0  0  0  0
    5.4123   -0.4862   -3.3041 H   0  0  0  0  0  0  0  0  0  0  0  0
    5.1949   -2.1387   -3.8443 H   0  0  0  0  0  0  0  0  0  0  0  0
    4.5953   -0.8128   -4.8182 H   0  0  0  0  0  0  0  0  0  0  0  0
    2.4540   -0.3103   -3.4040 N   0  0  0  0  0  0  0  0  0  0  0  0
    1.1494   -0.2128   -2.8039 C   0  0  2  0  0  0  0  0  0  0  0  0
    1.3350    0.0367   -1.3130 C   0  0  0  0  0  0  0  0  0  0  0  0
    2.3625   -0.2586   -0.7063 O   0  0  0  0  0  0  0  0  0  0  0  0
    0.3331   -1.4728   -3.0467 C   0  0  0  0  0  0  0  0  0  0  0  0
    2.6924    0.3404   -4.1502 H   0  0  0  0  0  0  0  0  0  0  0  0
    0.6550    0.6514   -3.2607 H   0  0  0  0  0  0  0  0  0  0  0  0
    0.8129   -2.3494   -2.5963 H   0  0  0  0  0  0  0  0  0  0  0  0
   -0.6690   -1.3857   -2.6142 H   0  0  0  0  0  0  0  0  0  0  0  0
    0.2259   -1.6670   -4.1194 H   0  0  0  0  0  0  0  0  0  0  0  0
    0.2019    0.5893   -0.7269 N   0  0  0  0  0  0  0  0  0  0  0  0
    0.1242    0.9059    0.6756 C   0  0  2  0  0  0  0  0  0  0  0  0
   -0.7463   -0.1626    1.3296 C   0  0  0  0  0  0  0  0  0  0  0  0
   -1.0388   -0.1490    2.5235 O   0  0  0  0  0  0  0  0  0  0  0  0
   -0.4689    2.2986    0.9244 C   0  0  0  0  0  0  0  0  0  0  0  0
    0.3968    3.4703    0.4181 C   0  0  0  0  0  0  0  0  0  0  0  0
   -0.3660    4.7870    0.5889 C   0  0  0  0  0  0  0  0  0  0  0  0
    0.8096    3.3003   -1.0446 C   0  0  0  0  0  0  0  0  0  0  0  0
   -0.5975    0.8179   -1.3140 H   0  0  0  0  0  0  0  0  0  0  0  0
    1.1393    0.8273    1.0776 H   0  0  0  0  0  0  0  0  0  0  0  0
   -0.6356    2.4253    2.0033 H   0  0  0  0  0  0  0  0  0  0  0  0
   -1.4621    2.3594    0.4598 H   0  0  0  0  0  0  0  0  0  0  0  0
    1.3069    3.5346    1.0269 H   0  0  0  0  0  0  0  0  0  0  0  0
   -1.2897    4.7810    0.0005 H   0  0  0  0  0  0  0  0  0  0  0  0
    0.2391    5.6342    0.2489 H   0  0  0  0  0  0  0  0  0  0  0  0
   -0.6329    4.9595    1.6372 H   0  0  0  0  0  0  0  0  0  0  0  0
   -0.0661    3.2306   -1.6988 H   0  0  0  0  0  0  0  0  0  0  0  0
    1.4135    4.1510   -1.3787 H   0  0  0  0  0  0  0  0  0  0  0  0
    1.4149    2.4002   -1.1863 H   0  0  0  0  0  0  0  0  0  0  0  0
   -1.1968   -1.1009    0.4113 N   0  0  0  0  0  0  0  0  0  0  0  0
   -2.0601   -2.2047    0.7647 C   0  0  2  0  0  0  0  0  0  0  0  0
   -3.0818   -1.6982    1.7742 C   0  0  0  0  0  0  0  0  0  0  0  0
   -2.8982   -0.7037    2.4731 O   0  0  0  0  0  0  0  0  0  0  0  0
   -1.2646   -3.3691    1.3340 C   0  0  0  0  0  0  0  0  0  0  0  0
   -0.9223   -1.0145   -0.5627 H   0  0  0  0  0  0  0  0  0  0  0  0
   -2.5737   -2.5110   -0.1532 H   0  0  0  0  0  0  0  0  0  0  0  0
   -0.7431   -3.0812    2.2541 H   0  0  0  0  0  0  0  0  0  0  0  0
   -1.9167   -4.2152    1.5747 H   0  0  0  0  0  0  0  0  0  0  0  0
   -0.5103   -3.7128    0.6180 H   0  0  0  0  0  0  0  0  0  0  0  0
   -4.2044   -2.5121    1.8338 N   0  0  0  0  0  0  0  0  0  0  0  0
   -5.3108   -2.2502    2.7245 C   0  0  0  0  0  0  0  0  0  0  0  0
   -4.2804   -3.3055    1.2041 H   0  0  0  0  0  0  0  0  0  0  0  0
   -5.1592   -2.7944    3.6683 H   0  0  0  0  0  0  0  0  0  0  0  0
   -5.3692   -1.1710    2.9290 H   0  0  0  0  0  0  0  0  0  0  0  0
   -6.2471   -2.5856    2.2544 H   0  0  0  0  0  0  0  0  0  0  0  0
  1  3  1  0  0  0  0
  1  7  1  0  0  0  0
  1  2  2  0  0  0  0
 37 38  1  0  0  0  0
 38 46  1  0  0  0  0
 38 39  2  0  0  0  0
  8  9  1  0  0  0  0
  9 17  1  0  0  0  0
  9 10  2  0  0  0  0
 18 19  1  0  0  0  0
 19 36  1  0  0  0  0
 19 20  2  0  0  0  0
 37 40  1  0  0  0  0
  8 11  1  0  0  0  0
 22 23  1  0  0  0  0
 22 24  1  0  0  0  0
 46 47  1  0  0  0  0
 18 21  1  0  0  0  0
 21 22  1  0  0  0  0
 36 37  1  0  0  0  0
  7  8  1  0  0  0  0
 17 18  1  0  0  0  0
  3  4  1  0  0  0  0
  3  5  1  0  0  0  0
  3  6  1  0  0  0  0
 40 43  1  0  0  0  0
 40 44  1  0  0  0  0
 40 45  1  0  0  0  0
 11 14  1  0  0  0  0
 11 15  1  0  0  0  0
 11 16  1  0  0  0  0
 23 30  1  0  0  0  0
 23 31  1  0  0  0  0
 23 32  1  0  0  0  0
 24 33  1  0  0  0  0
 24 34  1  0  0  0  0
 24 35  1  0  0  0  0
 47 49  1  0  0  0  0
 47 50  1  0  0  0  0
 47 51  1  0  0  0  0
 21 27  1  0  0  0  0
 21 28  1  0  0  0  0
 37 42  1  0  0  0  0
  8 13  1  0  0  0  0
 18 26  1  0  0  0  0
 22 29  1  0  0  0  0
 46 48  1  0  0  0  0
  7 12  1  0  0  0  0
 36 41  1  0  0  0  0
 17 25  1  0  0  0  0
M  END
$$$$

  -OEChem-05262214473D

 51 50  0     1  0  0  0  0  0999 V2000
    3.4018   -1.2440   -3.0186 C   0  0  0  0  0  0  0  0  0  0  0  0
    3.2697   -2.0909   -2.1427 O   0  0  0  0  0  0  0  0  0  0  0  0
    4.6845   -1.1645   -3.7779 C   0  0  0  0  0  0  0  0  0  0  0  0
    5.4123   -0.4862   -3.3041 H   0  0  0  0  0  0  0  0  0  0  0  0
    5.1949   -2.1387   -3.8443 H   0  0  0  0  0  0  0  0  0  0  0  0
    4.5953   -0.8128   -4.8182 H   0  0  0  0  0  0  0  0  0  0  0  0
    2.4540   -0.3103   -3.4040 N   0  0  0  0  0  0  0  0  0  0  0  0
    1.1494   -0.2128   -2.8039 C   0  0  2  0  0  0  0  0  0  0  0  0
    1.3350    0.0367   -1.3130 C   0  0  0  0  0  0  0  0  0  0  0  0
    2.3625   -0.2586   -0.7063 O   0  0  0  0  0  0  0  0  0  0  0  0
    0.3331   -1.4728   -3.0467 C   0  0  0  0  0  0  0  0  0  0  0  0
    2.6924    0.3404   -4.1502 H   0  0  0  0  0  0  0  0  0  0  0  0
    0.6550    0.6514   -3.2607 H   0  0  0  0  0  0  0  0  0  0  0  0
    0.8129   -2.3494   -2.5963 H   0  0  0  0  0  0  0  0  0  0  0  0
   -0.6690   -1.3857   -2.6142 H   0  0  0  0  0  0  0  0  0  0  0  0
    0.2259   -1.6670   -4.1194 H   0  0  0  0  0  0  0  0  0  0  0  0
    0.2019    0.5893   -0.7269 N   0  0  0  0  0  0  0  0  0  0  0  0
    0.1242    0.9059    0.6756 C   0  0  2  0  0  0  0  0  0  0  0  0
   -0.7463   -0.1626    1.3296 C   0  0  0  0  0  0  0  0  0  0  0  0
   -1.2598   -0.0216    2.4375 O   0  0  0  0  0  0  0  0  0  0  0  0
   -0.4689    2.2986    0.9244 C   0  0  0  0  0  0  0  0  0  0  0  0
    0.3968    3.4703    0.4181 C   0  0  0  0  0  0  0  0  0  0  0  0
   -0.3660    4.7870    0.5889 C   0  0  0  0  0  0  0  0  0  0  0  0
    0.8096    3.3003   -1.0446 C   0  0  0  0  0  0  0  0  0  0  0  0
   -0.5975    0.8179   -1.3140 H   0  0  0  0  0  0  0  0  0  0  0  0
    1.1393    0.8273    1.0776 H   0  0  0  0  0  0  0  0  0  0  0  0
   -0.6356    2.4253    2.0033 H   0  0  0  0  0  0  0  0  0  0  0  0
   -1.4621    2.3594    0.4598 H   0  0  0  0  0  0  0  0  0  0  0  0
    1.3069    3.5346    1.0269 H   0  0  0  0  0  0  0  0  0  0  0  0
   -1.2897    4.7810    0.0005 H   0  0  0  0  0  0  0  0  0  0  0  0
    0.2391    5.6342    0.2489 H   0  0  0  0  0  0  0  0  0  0  0  0
   -0.6329    4.9595    1.6372 H   0  0  0  0  0  0  0  0  0  0  0  0
   -0.0661    3.2306   -1.6988 H   0  0  0  0  0  0  0  0  0  0  0  0
    1.4135    4.1510   -1.3787 H   0  0  0  0  0  0  0  0  0  0  0  0
    1.4149    2.4002   -1.1863 H   0  0  0  0  0  0  0  0  0  0  0  0
   -0.9210   -1.2669    0.5071 N   0  0  0  0  0  0  0  0  0  0  0  0
   -1.7241   -2.4106    0.8757 C   0  0  2  0  0  0  0  0  0  0  0  0
   -2.9630   -1.9014    1.6004 C   0  0  0  0  0  0  0  0  0  0  0  0
   -3.0129   -0.8052    2.1545 O   0  0  0  0  0  0  0  0  0  0  0  0
   -0.9414   -3.3774    1.7506 C   0  0  0  0  0  0  0  0  0  0  0  0
   -0.4765   -1.2818   -0.4060 H   0  0  0  0  0  0  0  0  0  0  0  0
   -2.0219   -2.9017   -0.0571 H   0  0  0  0  0  0  0  0  0  0  0  0
   -0.6344   -2.9031    2.6899 H   0  0  0  0  0  0  0  0  0  0  0  0
   -1.5418   -4.2570    2.0054 H   0  0  0  0  0  0  0  0  0  0  0  0
   -0.0352   -3.7196    1.2393 H   0  0  0  0  0  0  0  0  0  0  0  0
   -3.9918   -2.8328    1.5927 N   0  0  0  0  0  0  0  0  0  0  0  0
   -5.2672   -2.5909    2.2259 C   0  0  0  0  0  0  0  0  0  0  0  0
   -3.8694   -3.7084    1.0927 H   0  0  0  0  0  0  0  0  0  0  0  0
   -5.2450   -2.9770    3.2557 H   0  0  0  0  0  0  0  0  0  0  0  0
   -5.4681   -1.5096    2.2442 H   0  0  0  0  0  0  0  0  0  0  0  0
   -6.0602   -3.1017    1.6599 H   0  0  0  0  0  0  0  0  0  0  0  0
  1  3  1  0  0  0  0
  1  7  1  0  0  0  0
  1  2  2  0  0  0  0
 37 38  1  0  0  0  0
 38 46  1  0  0  0  0
 38 39  2  0  0  0  0
  8  9  1  0  0  0  0
  9 17  1  0  0  0  0
  9 10  2  0  0  0  0
 18 19  1  0  0  0  0
 19 36  1  0  0  0  0
 19 20  2  0  0  0  0
 37 40  1  0  0  0  0
  8 11  1  0  0  0  0
 22 23  1  0  0  0  0
 22 24  1  0  0  0  0
 46 47  1  0  0  0  0
 18 21  1  0  0  0  0
 21 22  1  0  0  0  0
 36 37  1  0  0  0  0
  7  8  1  0  0  0  0
 17 18  1  0  0  0  0
  3  4  1  0  0  0  0
  3  5  1  0  0  0  0
  3  6  1  0  0  0  0
 40 43  1  0  0  0  0
 40 44  1  0  0  0  0
 40 45  1  0  0  0  0
 11 14  1  0  0  0  0
 11 15  1  0  0  0  0
 11 16  1  0  0  0  0
 23 30  1  0  0  0  0
 23 31  1  0  0  0  0
 23 32  1  0  0  0  0
 24 33  1  0  0  0  0
 24 34  1  0  0  0  0
 24 35  1  0  0  0  0
 47 49  1  0  0  0  0
 47 50  1  0  0  0  0
 47 51  1  0  0  0  0
 21 27  1  0  0  0  0
 21 28  1  0  0  0  0
 37 42  1  0  0  0  0
  8 13  1  0  0  0  0
 18 26  1  0  0  0  0
 22 29  1  0  0  0  0
 46 48  1  0  0  0  0
  7 12  1  0  0  0  0
 36 41  1  0  0  0  0
 17 25  1  0  0  0  0
M  END
$$$$

  -OEChem-05262214473D

 51 50  0     1  0  0  0  0  0999 V2000
    3.4018   -1.2440   -3.0186 C   0  0  0  0  0  0  0  0  0  0  0  0
    3.2697   -2.0909   -2.1427 O   0  0  0  0  0  0  0  0  0  0  0  0
    4.6845   -1.1645   -3.7779 C   0  0  0  0  0  0  0  0  0  0  0  0
    5.4123   -0.4862   -3.3041 H   0  0  0  0  0  0  0  0  0  0  0  0
    5.1949   -2.1387   -3.8443 H   0  0  0  0  0  0  0  0  0  0  0  0
    4.5953   -0.8128   -4.8182 H   0  0  0  0  0  0  0  0  0  0  0  0
    2.4540   -0.3103   -3.4040 N   0  0  0  0  0  0  0  0  0  0  0  0
    1.1494   -0.2128   -2.8039 C   0  0  2  0  0  0  0  0  0  0  0  0
    1.3350    0.0367   -1.3130 C   0  0  0  0  0  0  0  0  0  0  0  0
    2.3625   -0.2586   -0.7063 O   0  0  0  0  0  0  0  0  0  0  0  0
    0.3331   -1.4728   -3.0467 C   0  0  0  0  0  0  0  0  0  0  0  0
    2.6924    0.3404   -4.1502 H   0  0  0  0  0  0  0  0  0  0  0  0
    0.6550    0.6514   -3.2607 H   0  0  0  0  0  0  0  0  0  0  0  0
    0.8129   -2.3494   -2.5963 H   0  0  0  0  0  0  0  0  0  0  0  0
   -0.6690   -1.3857   -2.6142 H   0  0  0  0  0  0  0  0  0  0  0  0
    0.2259   -1.6670   -4.1194 H   0  0  0  0  0  0  0  0  0  0  0  0
    0.2019    0.5893   -0.7269 N   0  0  0  0  0  0  0  0  0  0  0  0
    0.1242    0.9059    0.6756 C   0  0  2  0  0  0  0  0  0  0  0  0
   -0.7463   -0.1626    1.3296 C   0  0  0  0  0  0  0  0  0  0  0  0
   -1.4719    0.0643    2.2956 O   0  0  0  0  0  0  0  0  0  0  0  0
   -0.4689    2.2986    0.9244 C   0  0  0  0  0  0  0  0  0  0  0  0
    0.3968    3.4703    0.4181 C   0  0  0  0  0  0  0  0  0  0  0  0
   -0.3660    4.7870    0.5889 C   0  0  0  0  0  0  0  0  0  0  0  0
    0.8096    3.3003   -1.0446 C   0  0  0  0  0  0  0  0  0  0  0  0
   -0.5975    0.8179   -1.3140 H   0  0  0  0  0  0  0  0  0  0  0  0
    1.1393    0.8273    1.0776 H   0  0  0  0  0  0  0  0  0  0  0  0
   -0.6356    2.4253    2.0033 H   0  0  0  0  0  0  0  0  0  0  0  0
   -1.4621    2.3594    0.4598 H   0  0  0  0  0  0  0  0  0  0  0  0
    1.3069    3.5346    1.0269 H   0  0  0  0  0  0  0  0  0  0  0  0
   -1.2897    4.7810    0.0005 H   0  0  0  0  0  0  0  0  0  0  0  0
    0.2391    5.6342    0.2489 H   0  0  0  0  0  0  0  0  0  0  0  0
   -0.6329    4.9595    1.6372 H   0  0  0  0  0  0  0  0  0  0  0  0
   -0.0661    3.2306   -1.6988 H   0  0  0  0  0  0  0  0  0  0  0  0
    1.4135    4.1510   -1.3787 H   0  0  0  0  0  0  0  0  0  0  0  0
    1.4149    2.4002   -1.1863 H   0  0  0  0  0  0  0  0  0  0  0  0
   -0.6535   -1.3826    0.6742 N   0  0  0  0  0  0  0  0  0  0  0  0
   -1.3967   -2.5558    1.0742 C   0  0  2  0  0  0  0  0  0  0  0  0
   -2.7941   -2.1101    1.4841 C   0  0  0  0  0  0  0  0  0  0  0  0
   -3.0547   -0.9630    1.8411 O   0  0  0  0  0  0  0  0  0  0  0  0
   -0.7038   -3.2880    2.2128 C   0  0  0  0  0  0  0  0  0  0  0  0
   -0.0446   -1.4673   -0.1343 H   0  0  0  0  0  0  0  0  0  0  0  0
   -1.4630   -3.2037    0.1934 H   0  0  0  0  0  0  0  0  0  0  0  0
   -0.6281   -2.6546    3.1042 H   0  0  0  0  0  0  0  0  0  0  0  0
   -1.2531   -4.1921    2.4956 H   0  0  0  0  0  0  0  0  0  0  0  0
    0.3118   -3.5816    1.9265 H   0  0  0  0  0  0  0  0  0  0  0  0
   -3.7073   -3.1546    1.4458 N   0  0  0  0  0  0  0  0  0  0  0  0
   -5.0969   -2.9887    1.8026 C   0  0  0  0  0  0  0  0  0  0  0  0
   -3.4076   -4.0685    1.1192 H   0  0  0  0  0  0  0  0  0  0  0  0
   -5.2329   -3.2239    2.8685 H   0  0  0  0  0  0  0  0  0  0  0  0
   -5.4020   -1.9487    1.6148 H   0  0  0  0  0  0  0  0  0  0  0  0
   -5.7146   -3.6672    1.1959 H   0  0  0  0  0  0  0  0  0  0  0  0
  1  3  1  0  0  0  0
  1  7  1  0  0  0  0
  1  2  2  0  0  0  0
 37 38  1  0  0  0  0
 38 46  1  0  0  0  0
 38 39  2  0  0  0  0
  8  9  1  0  0  0  0
  9 17  1  0  0  0  0
  9 10  2  0  0  0  0
 18 19  1  0  0  0  0
 19 36  1  0  0  0  0
 19 20  2  0  0  0  0
 37 40  1  0  0  0  0
  8 11  1  0  0  0  0
 22 23  1  0  0  0  0
 22 24  1  0  0  0  0
 46 47  1  0  0  0  0
 18 21  1  0  0  0  0
 21 22  1  0  0  0  0
 36 37  1  0  0  0  0
  7  8  1  0  0  0  0
 17 18  1  0  0  0  0
  3  4  1  0  0  0  0
  3  5  1  0  0  0  0
  3  6  1  0  0  0  0
 40 43  1  0  0  0  0
 40 44  1  0  0  0  0
 40 45  1  0  0  0  0
 11 14  1  0  0  0  0
 11 15  1  0  0  0  0
 11 16  1  0  0  0  0
 23 30  1  0  0  0  0
 23 31  1  0  0  0  0
 23 32  1  0  0  0  0
 24 33  1  0  0  0  0
 24 34  1  0  0  0  0
 24 35  1  0  0  0  0
 47 49  1  0  0  0  0
 47 50  1  0  0  0  0
 47 51  1  0  0  0  0
 21 27  1  0  0  0  0
 21 28  1  0  0  0  0
 37 42  1  0  0  0  0
  8 13  1  0  0  0  0
 18 26  1  0  0  0  0
 22 29  1  0  0  0  0
 46 48  1  0  0  0  0
  7 12  1  0  0  0  0
 36 41  1  0  0  0  0
 17 25  1  0  0  0  0
M  END
$$$$

  -OEChem-05262214473D

 51 50  0     1  0  0  0  0  0999 V2000
    3.4018   -1.2440   -3.0186 C   0  0  0  0  0  0  0  0  0  0  0  0
    3.2697   -2.0909   -2.1427 O   0  0  0  0  0  0  0  0  0  0  0  0
    4.6845   -1.1645   -3.7779 C   0  0  0  0  0  0  0  0  0  0  0  0
    5.4123   -0.4862   -3.3041 H   0  0  0  0  0  0  0  0  0  0  0  0
    5.1949   -2.1387   -3.8443 H   0  0  0  0  0  0  0  0  0  0  0  0
    4.5953   -0.8128   -4.8182 H   0  0  0  0  0  0  0  0  0  0  0  0
    2.4540   -0.3103   -3.4040 N   0  0  0  0  0  0  0  0  0  0  0  0
    1.1494   -0.2128   -2.8039 C   0  0  2  0  0  0  0  0  0  0  0  0
    1.3350    0.0367   -1.3130 C   0  0  0  0  0  0  0  0  0  0  0  0
    2.3625   -0.2586   -0.7063 O   0  0  0  0  0  0  0  0  0  0  0  0
    0.3331   -1.4728   -3.0467 C   0  0  0  0  0  0  0  0  0  0  0  0
    2.6924    0.3404   -4.1502 H   0  0  0  0  0  0  0  0  0  0  0  0
    0.6550    0.6514   -3.2607 H   0  0  0  0  0  0  0  0  0  0  0  0
    0.8129   -2.3494   -2.5963 H   0  0  0  0  0  0  0  0  0  0  0  0
   -0.6690   -1.3857   -2.6142 H   0  0  0  0  0  0  0  0  0  0  0  0
    0.2259   -1.6670   -4.1194 H   0  0  0  0  0  0  0  0  0  0  0  0
    0.2019    0.5893   -0.7269 N   0  0  0  0  0  0  0  0  0  0  0  0
    0.1242    0.9059    0.6756 C   0  0  2  0  0  0  0  0  0  0  0  0
   -0.7463   -0.1626    1.3296 C   0  0  0  0  0  0  0  0  0  0  0  0
   -1.6605    0.1028    2.1075 O   0  0  0  0  0  0  0  0  0  0  0  0
   -0.4689    2.2986    0.9244 C   0  0  0  0  0  0  0  0  0  0  0  0
    0.3968    3.4703    0.4181 C   0  0  0  0  0  0  0  0  0  0  0  0
   -0.3660    4.7870    0.5889 C   0  0  0  0  0  0  0  0  0  0  0  0
    0.8096    3.3003   -1.0446 C   0  0  0  0  0  0  0  0  0  0  0  0
   -0.5975    0.8179   -1.3140 H   0  0  0  0  0  0  0  0  0  0  0  0
    1.1393    0.8273    1.0776 H   0  0  0  0  0  0  0  0  0  0  0  0
   -0.6356    2.4253    2.0033 H   0  0  0  0  0  0  0  0  0  0  0  0
   -1.4621    2.3594    0.4598 H   0  0  0  0  0  0  0  0  0  0  0  0
    1.3069    3.5346    1.0269 H   0  0  0  0  0  0  0  0  0  0  0  0
   -1.2897    4.7810    0.0005 H   0  0  0  0  0  0  0  0  0  0  0  0
    0.2391    5.6342    0.2489 H   0  0  0  0  0  0  0  0  0  0  0  0
   -0.6329    4.9595    1.6372 H   0  0  0  0  0  0  0  0  0  0  0  0
   -0.0661    3.2306   -1.6988 H   0  0  0  0  0  0  0  0  0  0  0  0
    1.4135    4.1510   -1.3787 H   0  0  0  0  0  0  0  0  0  0  0  0
    1.4149    2.4002   -1.1863 H   0  0  0  0  0  0  0  0  0  0  0  0
   -0.4126   -1.4399    0.9011 N   0  0  0  0  0  0  0  0  0  0  0  0
   -1.1004   -2.6303    1.3468 C   0  0  2  0  0  0  0  0  0  0  0  0
   -2.5868   -2.3102    1.4332 C   0  0  0  0  0  0  0  0  0  0  0  0
   -3.0207   -1.1664    1.5540 O   0  0  0  0  0  0  0  0  0  0  0  0
   -0.5681   -3.1071    2.6892 C   0  0  0  0  0  0  0  0  0  0  0  0
    0.3438   -1.5584    0.2338 H   0  0  0  0  0  0  0  0  0  0  0  0
   -0.9351   -3.3964    0.5813 H   0  0  0  0  0  0  0  0  0  0  0  0
   -0.7248   -2.3527    3.4688 H   0  0  0  0  0  0  0  0  0  0  0  0
   -1.0704   -4.0250    3.0118 H   0  0  0  0  0  0  0  0  0  0  0  0
    0.5071   -3.3084    2.6328 H   0  0  0  0  0  0  0  0  0  0  0  0
   -3.3700   -3.4555    1.4030 N   0  0  0  0  0  0  0  0  0  0  0  0
   -4.8115   -3.4167    1.4833 C   0  0  0  0  0  0  0  0  0  0  0  0
   -2.9263   -4.3612    1.2816 H   0  0  0  0  0  0  0  0  0  0  0  0
   -5.1237   -3.5181    2.5332 H   0  0  0  0  0  0  0  0  0  0  0  0
   -5.1752   -2.4585    1.0838 H   0  0  0  0  0  0  0  0  0  0  0  0
   -5.2339   -4.2437    0.8938 H   0  0  0  0  0  0  0  0  0  0  0  0
  1  3  1  0  0  0  0
  1  7  1  0  0  0  0
  1  2  2  0  0  0  0
 37 38  1  0  0  0  0
 38 46  1  0  0  0  0
 38 39  2  0  0  0  0
  8  9  1  0  0  0  0
  9 17  1  0  0  0  0
  9 10  2  0  0  0  0
 18 19  1  0  0  0  0
 19 36  1  0  0  0  0
 19 20  2  0  0  0  0
 37 40  1  0  0  0  0
  8 11  1  0  0  0  0
 22 23  1  0  0  0  0
 22 24  1  0  0  0  0
 46 47  1  0  0  0  0
 18 21  1  0  0  0  0
 21 22  1  0  0  0  0
 36 37  1  0  0  0  0
  7  8  1  0  0  0  0
 17 18  1  0  0  0  0
  3  4  1  0  0  0  0
  3  5  1  0  0  0  0
  3  6  1  0  0  0  0
 40 43  1  0  0  0  0
 40 44  1  0  0  0  0
 40 45  1  0  0  0  0
 11 14  1  0  0  0  0
 11 15  1  0  0  0  0
 11 16  1  0  0  0  0
 23 30  1  0  0  0  0
 23 31  1  0  0  0  0
 23 32  1  0  0  0  0
 24 33  1  0  0  0  0
 24 34  1  0  0  0  0
 24 35  1  0  0  0  0
 47 49  1  0  0  0  0
 47 50  1  0  0  0  0
 47 51  1  0  0  0  0
 21 27  1  0  0  0  0
 21 28  1  0  0  0  0
 37 42  1  0  0  0  0
  8 13  1  0  0  0  0
 18 26  1  0  0  0  0
 22 29  1  0  0  0  0
 46 48  1  0  0  0  0
  7 12  1  0  0  0  0
 36 41  1  0  0  0  0
 17 25  1  0  0  0  0
M  END
$$$$

  -OEChem-05262214473D

 51 50  0     1  0  0  0  0  0999 V2000
    3.4018   -1.2440   -3.0186 C   0  0  0  0  0  0  0  0  0  0  0  0
    3.2697   -2.0909   -2.1427 O   0  0  0  0  0  0  0  0  0  0  0  0
    4.6845   -1.1645   -3.7779 C   0  0  0  0  0  0  0  0  0  0  0  0
    5.4123   -0.4862   -3.3041 H   0  0  0  0  0  0  0  0  0  0  0  0
    5.1949   -2.1387   -3.8443 H   0  0  0  0  0  0  0  0  0  0  0  0
    4.5953   -0.8128   -4.8182 H   0  0  0  0  0  0  0  0  0  0  0  0
    2.4540   -0.3103   -3.4040 N   0  0  0  0  0  0  0  0  0  0  0  0
    1.1494   -0.2128   -2.8039 C   0  0  2  0  0  0  0  0  0  0  0  0
    1.3350    0.0367   -1.3130 C   0  0  0  0  0  0  0  0  0  0  0  0
    2.3625   -0.2586   -0.7063 O   0  0  0  0  0  0  0  0  0  0  0  0
    0.3331   -1.4728   -3.0467 C   0  0  0  0  0  0  0  0  0  0  0  0
    2.6924    0.3404   -4.1502 H   0  0  0  0  0  0  0  0  0  0  0  0
    0.6550    0.6514   -3.2607 H   0  0  0  0  0  0  0  0  0  0  0  0
    0.8129   -2.3494   -2.5963 H   0  0  0  0  0  0  0  0  0  0  0  0
   -0.6690   -1.3857   -2.6142 H   0  0  0  0  0  0  0  0  0  0  0  0
    0.2259   -1.6670   -4.1194 H   0  0  0  0  0  0  0  0  0  0  0  0
    0.2019    0.5893   -0.7269 N   0  0  0  0  0  0  0  0  0  0  0  0
    0.1242    0.9059    0.6756 C   0  0  2  0  0  0  0  0  0  0  0  0
   -0.7463   -0.1626    1.3296 C   0  0  0  0  0  0  0  0  0  0  0  0
   -1.8128    0.0912    1.8858 O   0  0  0  0  0  0  0  0  0  0  0  0
   -0.4689    2.2986    0.9244 C   0  0  0  0  0  0  0  0  0  0  0  0
    0.3968    3.4703    0.4181 C   0  0  0  0  0  0  0  0  0  0  0  0
   -0.3660    4.7870    0.5889 C   0  0  0  0  0  0  0  0  0  0  0  0
    0.8096    3.3003   -1.0446 C   0  0  0  0  0  0  0  0  0  0  0  0
   -0.5975    0.8179   -1.3140 H   0  0  0  0  0  0  0  0  0  0  0  0
    1.1393    0.8273    1.0776 H   0  0  0  0  0  0  0  0  0  0  0  0
   -0.6356    2.4253    2.0033 H   0  0  0  0  0  0  0  0  0  0  0  0
   -1.4621    2.3594    0.4598 H   0  0  0  0  0  0  0  0  0  0  0  0
    1.3069    3.5346    1.0269 H   0  0  0  0  0  0  0  0  0  0  0  0
   -1.2897    4.7810    0.0005 H   0  0  0  0  0  0  0  0  0  0  0  0
    0.2391    5.6342    0.2489 H   0  0  0  0  0  0  0  0  0  0  0  0
   -0.6329    4.9595    1.6372 H   0  0  0  0  0  0  0  0  0  0  0  0
   -0.0661    3.2306   -1.6988 H   0  0  0  0  0  0  0  0  0  0  0  0
    1.4135    4.1510   -1.3787 H   0  0  0  0  0  0  0  0  0  0  0  0
    1.4149    2.4002   -1.1863 H   0  0  0  0  0  0  0  0  0  0  0  0
   -0.2147   -1.4351    1.1724 N   0  0  0  0  0  0  0  0  0  0  0  0
   -0.8553   -2.6293    1.6747 C   0  0  2  0  0  0  0  0  0  0  0  0
   -2.3551   -2.4879    1.4512 C   0  0  0  0  0  0  0  0  0  0  0  0
   -2.9133   -1.4015    1.3130 O   0  0  0  0  0  0  0  0  0  0  0  0
   -0.5434   -2.8469    3.1472 C   0  0  0  0  0  0  0  0  0  0  0  0
    0.6624   -1.5490    0.6732 H   0  0  0  0  0  0  0  0  0  0  0  0
   -0.4741   -3.4666    1.0801 H   0  0  0  0  0  0  0  0  0  0  0  0
   -0.9177   -2.0179    3.7589 H   0  0  0  0  0  0  0  0  0  0  0  0
   -1.0059   -3.7671    3.5190 H   0  0  0  0  0  0  0  0  0  0  0  0
    0.5374   -2.9185    3.3101 H   0  0  0  0  0  0  0  0  0  0  0  0
   -3.0031   -3.7152    1.4672 N   0  0  0  0  0  0  0  0  0  0  0  0
   -4.4305   -3.8455    1.2898 C   0  0  0  0  0  0  0  0  0  0  0  0
   -2.4584   -4.5665    1.5689 H   0  0  0  0  0  0  0  0  0  0  0  0
   -4.9247   -3.8398    2.2726 H   0  0  0  0  0  0  0  0  0  0  0  0
   -4.8033   -3.0041    0.6872 H   0  0  0  0  0  0  0  0  0  0  0  0
   -4.6509   -4.7918    0.7742 H   0  0  0  0  0  0  0  0  0  0  0  0
  1  3  1  0  0  0  0
  1  7  1  0  0  0  0
  1  2  2  0  0  0  0
 37 38  1  0  0  0  0
 38 46  1  0  0  0  0
 38 39  2  0  0  0  0
  8  9  1  0  0  0  0
  9 17  1  0  0  0  0
  9 10  2  0  0  0  0
 18 19  1  0  0  0  0
 19 36  1  0  0  0  0
 19 20  2  0  0  0  0
 37 40  1  0  0  0  0
  8 11  1  0  0  0  0
 22 23  1  0  0  0  0
 22 24  1  0  0  0  0
 46 47  1  0  0  0  0
 18 21  1  0  0  0  0
 21 22  1  0  0  0  0
 36 37  1  0  0  0  0
  7  8  1  0  0  0  0
 17 18  1  0  0  0  0
  3  4  1  0  0  0  0
  3  5  1  0  0  0  0
  3  6  1  0  0  0  0
 40 43  1  0  0  0  0
 40 44  1  0  0  0  0
 40 45  1  0  0  0  0
 11 14  1  0  0  0  0
 11 15  1  0  0  0  0
 11 16  1  0  0  0  0
 23 30  1  0  0  0  0
 23 31  1  0  0  0  0
 23 32  1  0  0  0  0
 24 33  1  0  0  0  0
 24 34  1  0  0  0  0
 24 35  1  0  0  0  0
 47 49  1  0  0  0  0
 47 50  1  0  0  0  0
 47 51  1  0  0  0  0
 21 27  1  0  0  0  0
 21 28  1  0  0  0  0
 37 42  1  0  0  0  0
  8 13  1  0  0  0  0
 18 26  1  0  0  0  0
 22 29  1  0  0  0  0
 46 48  1  0  0  0  0
  7 12  1  0  0  0  0
 36 41  1  0  0  0  0
 17 25  1  0  0  0  0
M  END
$$$$

  -OEChem-05262214473D

 51 50  0     1  0  0  0  0  0999 V2000
    3.4018   -1.2440   -3.0186 C   0  0  0  0  0  0  0  0  0  0  0  0
    3.2697   -2.0909   -2.1427 O   0  0  0  0  0  0  0  0  0  0  0  0
    4.6845   -1.1645   -3.7779 C   0  0  0  0  0  0  0  0  0  0  0  0
    5.4123   -0.4862   -3.3041 H   0  0  0  0  0  0  0  0  0  0  0  0
    5.1949   -2.1387   -3.8443 H   0  0  0  0  0  0  0  0  0  0  0  0
    4.5953   -0.8128   -4.8182 H   0  0  0  0  0  0  0  0  0  0  0  0
    2.4540   -0.3103   -3.4040 N   0  0  0  0  0  0  0  0  0  0  0  0
    1.1494   -0.2128   -2.8039 C   0  0  2  0  0  0  0  0  0  0  0  0
    1.3350    0.0367   -1.3130 C   0  0  0  0  0  0  0  0  0  0  0  0
    2.3625   -0.2586   -0.7063 O   0  0  0  0  0  0  0  0  0  0  0  0
    0.3331   -1.4728   -3.0467 C   0  0  0  0  0  0  0  0  0  0  0  0
    2.6924    0.3404   -4.1502 H   0  0  0  0  0  0  0  0  0  0  0  0
    0.6550    0.6514   -3.2607 H   0  0  0  0  0  0  0  0  0  0  0  0
    0.8129   -2.3494   -2.5963 H   0  0  0  0  0  0  0  0  0  0  0  0
   -0.6690   -1.3857   -2.6142 H   0  0  0  0  0  0  0  0  0  0  0  0
    0.2259   -1.6670   -4.1194 H   0  0  0  0  0  0  0  0  0  0  0  0
    0.2019    0.5893   -0.7269 N   0  0  0  0  0  0  0  0  0  0  0  0
    0.1242    0.9059    0.6756 C   0  0  2  0  0  0  0  0  0  0  0  0
   -0.7463   -0.1626    1.3296 C   0  0  0  0  0  0  0  0  0  0  0  0
   -1.9185    0.0304    1.6458 O   0  0  0  0  0  0  0  0  0  0  0  0
   -0.4689    2.2986    0.9244 C   0  0  0  0  0  0  0  0  0  0  0  0
    0.3968    3.4703    0.4181 C   0  0  0  0  0  0  0  0  0  0  0  0
   -0.3660    4.7870    0.5889 C   0  0  0  0  0  0  0  0  0  0  0  0
    0.8096    3.3003   -1.0446 C   0  0  0  0  0  0  0  0  0  0  0  0
   -0.5975    0.8179   -1.3140 H   0  0  0  0  0  0  0  0  0  0  0  0
    1.1393    0.8273    1.0776 H   0  0  0  0  0  0  0  0  0  0  0  0
   -0.6356    2.4253    2.0033 H   0  0  0  0  0  0  0  0  0  0  0  0
   -1.4621    2.3594    0.4598 H   0  0  0  0  0  0  0  0  0  0  0  0
    1.3069    3.5346    1.0269 H   0  0  0  0  0  0  0  0  0  0  0  0
   -1.2897    4.7810    0.0005 H   0  0  0  0  0  0  0  0  0  0  0  0
    0.2391    5.6342    0.2489 H   0  0  0  0  0  0  0  0  0  0  0  0
   -0.6329    4.9595    1.6372 H   0  0  0  0  0  0  0  0  0  0  0  0
   -0.0661    3.2306   -1.6988 H   0  0  0  0  0  0  0  0  0  0  0  0
    1.4135    4.1510   -1.3787 H   0  0  0  0  0  0  0  0  0  0  0  0
    1.4149    2.4002   -1.1863 H   0  0  0  0  0  0  0  0  0  0  0  0
   -0.0733   -1.3684    1.4697 N   0  0  0  0  0  0  0  0  0  0  0  0
   -0.6781   -2.5526    2.0358 C   0  0  2  0  0  0  0  0  0  0  0  0
   -2.1149   -2.6313    1.5367 C   0  0  0  0  0  0  0  0  0  0  0  0
   -2.7398   -1.6522    1.1343 O   0  0  0  0  0  0  0  0  0  0  0  0
   -0.6314   -2.5252    3.5556 C   0  0  0  0  0  0  0  0  0  0  0  0
    0.8895   -1.4397    1.1540 H   0  0  0  0  0  0  0  0  0  0  0  0
   -0.1115   -3.4096    1.6559 H   0  0  0  0  0  0  0  0  0  0  0  0
   -1.1938   -1.6731    3.9547 H   0  0  0  0  0  0  0  0  0  0  0  0
   -1.0643   -3.4359    3.9824 H   0  0  0  0  0  0  0  0  0  0  0  0
    0.4006   -2.4385    3.9123 H   0  0  0  0  0  0  0  0  0  0  0  0
   -2.6315   -3.9157    1.6341 N   0  0  0  0  0  0  0  0  0  0  0  0
   -3.9798   -4.2460    1.2354 C   0  0  0  0  0  0  0  0  0  0  0  0
   -2.0358   -4.6704    1.9616 H   0  0  0  0  0  0  0  0  0  0  0  0
   -4.6495   -4.1669    2.1044 H   0  0  0  0  0  0  0  0  0  0  0  0
   -4.3117   -3.5485    0.4522 H   0  0  0  0  0  0  0  0  0  0  0  0
   -4.0053   -5.2743    0.8454 H   0  0  0  0  0  0  0  0  0  0  0  0
  1  3  1  0  0  0  0
  1  7  1  0  0  0  0
  1  2  2  0  0  0  0
 37 38  1  0  0  0  0
 38 46  1  0  0  0  0
 38 39  2  0  0  0  0
  8  9  1  0  0  0  0
  9 17  1  0  0  0  0
  9 10  2  0  0  0  0
 18 19  1  0  0  0  0
 19 36  1  0  0  0  0
 19 20  2  0  0  0  0
 37 40  1  0  0  0  0
  8 11  1  0  0  0  0
 22 23  1  0  0  0  0
 22 24  1  0  0  0  0
 46 47  1  0  0  0  0
 18 21  1  0  0  0  0
 21 22  1  0  0  0  0
 36 37  1  0  0  0  0
  7  8  1  0  0  0  0
 17 18  1  0  0  0  0
  3  4  1  0  0  0  0
  3  5  1  0  0  0  0
  3  6  1  0  0  0  0
 40 43  1  0  0  0  0
 40 44  1  0  0  0  0
 40 45  1  0  0  0  0
 11 14  1  0  0  0  0
 11 15  1  0  0  0  0
 11 16  1  0  0  0  0
 23 30  1  0  0  0  0
 23 31  1  0  0  0  0
 23 32  1  0  0  0  0
 24 33  1  0  0  0  0
 24 34  1  0  0  0  0
 24 35  1  0  0  0  0
 47 49  1  0  0  0  0
 47 50  1  0  0  0  0
 47 51  1  0  0  0  0
 21 27  1  0  0  0  0
 21 28  1  0  0  0  0
 37 42  1  0  0  0  0
  8 13  1  0  0  0  0
 18 26  1  0  0  0  0
 22 29  1  0  0  0  0
 46 48  1  0  0  0  0
  7 12  1  0  0  0  0
 36 41  1  0  0  0  0
 17 25  1  0  0  0  0
M  END
$$$$

  -OEChem-05262214473D

 51 50  0     1  0  0  0  0  0999 V2000
    3.4018   -1.2440   -3.0186 C   0  0  0  0  0  0  0  0  0  0  0  0
    3.2697   -2.0909   -2.1427 O   0  0  0  0  0  0  0  0  0  0  0  0
    4.6845   -1.1645   -3.7779 C   0  0  0  0  0  0  0  0  0  0  0  0
    5.4123   -0.4862   -3.3041 H   0  0  0  0  0  0  0  0  0  0  0  0
    5.1949   -2.1387   -3.8443 H   0  0  0  0  0  0  0  0  0  0  0  0
    4.5953   -0.8128   -4.8182 H   0  0  0  0  0  0  0  0  0  0  0  0
    2.4540   -0.3103   -3.4040 N   0  0  0  0  0  0  0  0  0  0  0  0
    1.1494   -0.2128   -2.8039 C   0  0  2  0  0  0  0  0  0  0  0  0
    1.3350    0.0367   -1.3130 C   0  0  0  0  0  0  0  0  0  0  0  0
    2.3625   -0.2586   -0.7063 O   0  0  0  0  0  0  0  0  0  0  0  0
    0.3331   -1.4728   -3.0467 C   0  0  0  0  0  0  0  0  0  0  0  0
    2.6924    0.3404   -4.1502 H   0  0  0  0  0  0  0  0  0  0  0  0
    0.6550    0.6514   -3.2607 H   0  0  0  0  0  0  0  0  0  0  0  0
    0.8129   -2.3494   -2.5963 H   0  0  0  0  0  0  0  0  0  0  0  0
   -0.6690   -1.3857   -2.6142 H   0  0  0  0  0  0  0  0  0  0  0  0
    0.2259   -1.6670   -4.1194 H   0  0  0  0  0  0  0  0  0  0  0  0
    0.2019    0.5893   -0.7269 N   0  0  0  0  0  0  0  0  0  0  0  0
    0.1242    0.9059    0.6756 C   0  0  2  0  0  0  0  0  0  0  0  0
   -0.7463   -0.1626    1.3296 C   0  0  0  0  0  0  0  0  0  0  0  0
   -1.9703   -0.0755    1.4038 O   0  0  0  0  0  0  0  0  0  0  0  0
   -0.4689    2.2986    0.9244 C   0  0  0  0  0  0  0  0  0  0  0  0
    0.3968    3.4703    0.4181 C   0  0  0  0  0  0  0  0  0  0  0  0
   -0.3660    4.7870    0.5889 C   0  0  0  0  0  0  0  0  0  0  0  0
    0.8096    3.3003   -1.0446 C   0  0  0  0  0  0  0  0  0  0  0  0
   -0.5975    0.8179   -1.3140 H   0  0  0  0  0  0  0  0  0  0  0  0
    1.1393    0.8273    1.0776 H   0  0  0  0  0  0  0  0  0  0  0  0
   -0.6356    2.4253    2.0033 H   0  0  0  0  0  0  0  0  0  0  0  0
   -1.4621    2.3594    0.4598 H   0  0  0  0  0  0  0  0  0  0  0  0
    1.3069    3.5346    1.0269 H   0  0  0  0  0  0  0  0  0  0  0  0
   -1.2897    4.7810    0.0005 H   0  0  0  0  0  0  0  0  0  0  0  0
    0.2391    5.6342    0.2489 H   0  0  0  0  0  0  0  0  0  0  0  0
   -0.6329    4.9595    1.6372 H   0  0  0  0  0  0  0  0  0  0  0  0
   -0.0661    3.2306   -1.6988 H   0  0  0  0  0  0  0  0  0  0  0  0
    1.4135    4.1510   -1.3787 H   0  0  0  0  0  0  0  0  0  0  0  0
    1.4149    2.4002   -1.1863 H   0  0  0  0  0  0  0  0  0  0  0  0
    0.0021   -1.2444    1.7726 N   0  0  0  0  0  0  0  0  0  0  0  0
   -0.5810   -2.4055    2.4054 C   0  0  2  0  0  0  0  0  0  0  0  0
   -1.8824   -2.7305    1.6842 C   0  0  0  0  0  0  0  0  0  0  0  0
   -2.5119   -1.9015    1.0302 O   0  0  0  0  0  0  0  0  0  0  0  0
   -0.8262   -2.1638    3.8867 C   0  0  0  0  0  0  0  0  0  0  0  0
    1.0095   -1.2379    1.6435 H   0  0  0  0  0  0  0  0  0  0  0  0
    0.1281   -3.2293    2.2694 H   0  0  0  0  0  0  0  0  0  0  0  0
   -1.5343   -1.3418    4.0428 H   0  0  0  0  0  0  0  0  0  0  0  0
   -1.2413   -3.0541    4.3705 H   0  0  0  0  0  0  0  0  0  0  0  0
    0.1061   -1.9011    4.3982 H   0  0  0  0  0  0  0  0  0  0  0  0
   -2.2806   -4.0436    1.8922 N   0  0  0  0  0  0  0  0  0  0  0  0
   -3.4902   -4.5909    1.3236 C   0  0  0  0  0  0  0  0  0  0  0  0
   -1.6872   -4.6660    2.4329 H   0  0  0  0  0  0  0  0  0  0  0  0
   -4.3170   -4.4771    2.0402 H   0  0  0  0  0  0  0  0  0  0  0  0
   -3.7338   -4.0545    0.3946 H   0  0  0  0  0  0  0  0  0  0  0  0
   -3.3410   -5.6581    1.1025 H   0  0  0  0  0  0  0  0  0  0  0  0
  1  3  1  0  0  0  0
  1  7  1  0  0  0  0
  1  2  2  0  0  0  0
 37 38  1  0  0  0  0
 38 46  1  0  0  0  0
 38 39  2  0  0  0  0
  8  9  1  0  0  0  0
  9 17  1  0  0  0  0
  9 10  2  0  0  0  0
 18 19  1  0  0  0  0
 19 36  1  0  0  0  0
 19 20  2  0  0  0  0
 37 40  1  0  0  0  0
  8 11  1  0  0  0  0
 22 23  1  0  0  0  0
 22 24  1  0  0  0  0
 46 47  1  0  0  0  0
 18 21  1  0  0  0  0
 21 22  1  0  0  0  0
 36 37  1  0  0  0  0
  7  8  1  0  0  0  0
 17 18  1  0  0  0  0
  3  4  1  0  0  0  0
  3  5  1  0  0  0  0
  3  6  1  0  0  0  0
 40 43  1  0  0  0  0
 40 44  1  0  0  0  0
 40 45  1  0  0  0  0
 11 14  1  0  0  0  0
 11 15  1  0  0  0  0
 11 16  1  0  0  0  0
 23 30  1  0  0  0  0
 23 31  1  0  0  0  0
 23 32  1  0  0  0  0
 24 33  1  0  0  0  0
 24 34  1  0  0  0  0
 24 35  1  0  0  0  0
 47 49  1  0  0  0  0
 47 50  1  0  0  0  0
 47 51  1  0  0  0  0
 21 27  1  0  0  0  0
 21 28  1  0  0  0  0
 37 42  1  0  0  0  0
  8 13  1  0  0  0  0
 18 26  1  0  0  0  0
 22 29  1  0  0  0  0
 46 48  1  0  0  0  0
  7 12  1  0  0  0  0
 36 41  1  0  0  0  0
 17 25  1  0  0  0  0
M  END
$$$$

  -OEChem-05262214473D

 51 50  0     1  0  0  0  0  0999 V2000
    3.4018   -1.2440   -3.0186 C   0  0  0  0  0  0  0  0  0  0  0  0
    3.2697   -2.0909   -2.1427 O   0  0  0  0  0  0  0  0  0  0  0  0
    4.6845   -1.1645   -3.7779 C   0  0  0  0  0  0  0  0  0  0  0  0
    5.4123   -0.4862   -3.3041 H   0  0  0  0  0  0  0  0  0  0  0  0
    5.1949   -2.1387   -3.8443 H   0  0  0  0  0  0  0  0  0  0  0  0
    4.5953   -0.8128   -4.8182 H   0  0  0  0  0  0  0  0  0  0  0  0
    2.4540   -0.3103   -3.4040 N   0  0  0  0  0  0  0  0  0  0  0  0
    1.1494   -0.2128   -2.8039 C   0  0  2  0  0  0  0  0  0  0  0  0
    1.3350    0.0367   -1.3130 C   0  0  0  0  0  0  0  0  0  0  0  0
    2.3625   -0.2586   -0.7063 O   0  0  0  0  0  0  0  0  0  0  0  0
    0.3331   -1.4728   -3.0467 C   0  0  0  0  0  0  0  0  0  0  0  0
    2.6924    0.3404   -4.1502 H   0  0  0  0  0  0  0  0  0  0  0  0
    0.6550    0.6514   -3.2607 H   0  0  0  0  0  0  0  0  0  0  0  0
    0.8129   -2.3494   -2.5963 H   0  0  0  0  0  0  0  0  0  0  0  0
   -0.6690   -1.3857   -2.6142 H   0  0  0  0  0  0  0  0  0  0  0  0
    0.2259   -1.6670   -4.1194 H   0  0  0  0  0  0  0  0  0  0  0  0
    0.2019    0.5893   -0.7269 N   0  0  0  0  0  0  0  0  0  0  0  0
    0.1242    0.9059    0.6756 C   0  0  2  0  0  0  0  0  0  0  0  0
   -0.7463   -0.1626    1.3296 C   0  0  0  0  0  0  0  0  0  0  0  0
   -1.9647   -0.2193    1.1763 O   0  0  0  0  0  0  0  0  0  0  0  0
   -0.4689    2.2986    0.9244 C   0  0  0  0  0  0  0  0  0  0  0  0
    0.3968    3.4703    0.4181 C   0  0  0  0  0  0  0  0  0  0  0  0
   -0.3660    4.7870    0.5889 C   0  0  0  0  0  0  0  0  0  0  0  0
    0.8096    3.3003   -1.0446 C   0  0  0  0  0  0  0  0  0  0  0  0
   -0.5975    0.8179   -1.3140 H   0  0  0  0  0  0  0  0  0  0  0  0
    1.1393    0.8273    1.0776 H   0  0  0  0  0  0  0  0  0  0  0  0
   -0.6356    2.4253    2.0033 H   0  0  0  0  0  0  0  0  0  0  0  0
   -1.4621    2.3594    0.4598 H   0  0  0  0  0  0  0  0  0  0  0  0
    1.3069    3.5346    1.0269 H   0  0  0  0  0  0  0  0  0  0  0  0
   -1.2897    4.7810    0.0005 H   0  0  0  0  0  0  0  0  0  0  0  0
    0.2391    5.6342    0.2489 H   0  0  0  0  0  0  0  0  0  0  0  0
   -0.6329    4.9595    1.6372 H   0  0  0  0  0  0  0  0  0  0  0  0
   -0.0661    3.2306   -1.6988 H   0  0  0  0  0  0  0  0  0  0  0  0
    1.4135    4.1510   -1.3787 H   0  0  0  0  0  0  0  0  0  0  0  0
    1.4149    2.4002   -1.1863 H   0  0  0  0  0  0  0  0  0  0  0  0
    0.0062   -1.0714    2.0605 N   0  0  0  0  0  0  0  0  0  0  0  0
   -0.5704   -2.1981    2.7583 C   0  0  2  0  0  0  0  0  0  0  0  0
   -1.6736   -2.7787    1.8833 C   0  0  0  0  0  0  0  0  0  0  0  0
   -2.2453   -2.1325    1.0078 O   0  0  0  0  0  0  0  0  0  0  0  0
   -1.1144   -1.7876    4.1178 C   0  0  0  0  0  0  0  0  0  0  0  0
    1.0143   -0.9573    2.1082 H   0  0  0  0  0  0  0  0  0  0  0  0
    0.2284   -2.9380    2.8788 H   0  0  0  0  0  0  0  0  0  0  0  0
   -1.9158   -1.0466    4.0173 H   0  0  0  0  0  0  0  0  0  0  0  0
   -1.5251   -2.6476    4.6570 H   0  0  0  0  0  0  0  0  0  0  0  0
   -0.3261   -1.3429    4.7349 H   0  0  0  0  0  0  0  0  0  0  0  0
   -1.9743   -4.0900    2.2241 N   0  0  0  0  0  0  0  0  0  0  0  0
   -2.9949   -4.8567    1.5485 C   0  0  0  0  0  0  0  0  0  0  0  0
   -1.4364   -4.5534    2.9506 H   0  0  0  0  0  0  0  0  0  0  0  0
   -3.9497   -4.7494    2.0842 H   0  0  0  0  0  0  0  0  0  0  0  0
   -3.1090   -4.4877    0.5186 H   0  0  0  0  0  0  0  0  0  0  0  0
   -2.7034   -5.9171    1.5279 H   0  0  0  0  0  0  0  0  0  0  0  0
  1  3  1  0  0  0  0
  1  7  1  0  0  0  0
  1  2  2  0  0  0  0
 37 38  1  0  0  0  0
 38 46  1  0  0  0  0
 38 39  2  0  0  0  0
  8  9  1  0  0  0  0
  9 17  1  0  0  0  0
  9 10  2  0  0  0  0
 18 19  1  0  0  0  0
 19 36  1  0  0  0  0
 19 20  2  0  0  0  0
 37 40  1  0  0  0  0
  8 11  1  0  0  0  0
 22 23  1  0  0  0  0
 22 24  1  0  0  0  0
 46 47  1  0  0  0  0
 18 21  1  0  0  0  0
 21 22  1  0  0  0  0
 36 37  1  0  0  0  0
  7  8  1  0  0  0  0
 17 18  1  0  0  0  0
  3  4  1  0  0  0  0
  3  5  1  0  0  0  0
  3  6  1  0  0  0  0
 40 43  1  0  0  0  0
 40 44  1  0  0  0  0
 40 45  1  0  0  0  0
 11 14  1  0  0  0  0
 11 15  1  0  0  0  0
 11 16  1  0  0  0  0
 23 30  1  0  0  0  0
 23 31  1  0  0  0  0
 23 32  1  0  0  0  0
 24 33  1  0  0  0  0
 24 34  1  0  0  0  0
 24 35  1  0  0  0  0
 47 49  1  0  0  0  0
 47 50  1  0  0  0  0
 47 51  1  0  0  0  0
 21 27  1  0  0  0  0
 21 28  1  0  0  0  0
 37 42  1  0  0  0  0
  8 13  1  0  0  0  0
 18 26  1  0  0  0  0
 22 29  1  0  0  0  0
 46 48  1  0  0  0  0
  7 12  1  0  0  0  0
 36 41  1  0  0  0  0
 17 25  1  0  0  0  0
M  END
$$$$

  -OEChem-05262214473D

 51 50  0     1  0  0  0  0  0999 V2000
    3.4018   -1.2440   -3.0186 C   0  0  0  0  0  0  0  0  0  0  0  0
    3.2697   -2.0909   -2.1427 O   0  0  0  0  0  0  0  0  0  0  0  0
    4.6845   -1.1645   -3.7779 C   0  0  0  0  0  0  0  0  0  0  0  0
    5.4123   -0.4862   -3.3041 H   0  0  0  0  0  0  0  0  0  0  0  0
    5.1949   -2.1387   -3.8443 H   0  0  0  0  0  0  0  0  0  0  0  0
    4.5953   -0.8128   -4.8182 H   0  0  0  0  0  0  0  0  0  0  0  0
    2.4540   -0.3103   -3.4040 N   0  0  0  0  0  0  0  0  0  0  0  0
    1.1494   -0.2128   -2.8039 C   0  0  2  0  0  0  0  0  0  0  0  0
    1.3350    0.0367   -1.3130 C   0  0  0  0  0  0  0  0  0  0  0  0
    2.3625   -0.2586   -0.7063 O   0  0  0  0  0  0  0  0  0  0  0  0
    0.3331   -1.4728   -3.0467 C   0  0  0  0  0  0  0  0  0  0  0  0
    2.6924    0.3404   -4.1502 H   0  0  0  0  0  0  0  0  0  0  0  0
    0.6550    0.6514   -3.2607 H   0  0  0  0  0  0  0  0  0  0  0  0
    0.8129   -2.3494   -2.5963 H   0  0  0  0  0  0  0  0  0  0  0  0
   -0.6690   -1.3857   -2.6142 H   0  0  0  0  0  0  0  0  0  0  0  0
    0.2259   -1.6670   -4.1194 H   0  0  0  0  0  0  0  0  0  0  0  0
    0.2019    0.5893   -0.7269 N   0  0  0  0  0  0  0  0  0  0  0  0
    0.1242    0.9059    0.6756 C   0  0  2  0  0  0  0  0  0  0  0  0
   -0.7463   -0.1626    1.3296 C   0  0  0  0  0  0  0  0  0  0  0  0
   -1.9021   -0.3911    0.9788 O   0  0  0  0  0  0  0  0  0  0  0  0
   -0.4689    2.2986    0.9244 C   0  0  0  0  0  0  0  0  0  0  0  0
    0.3968    3.4703    0.4181 C   0  0  0  0  0  0  0  0  0  0  0  0
   -0.3660    4.7870    0.5889 C   0  0  0  0  0  0  0  0  0  0  0  0
    0.8096    3.3003   -1.0446 C   0  0  0  0  0  0  0  0  0  0  0  0
   -0.5975    0.8179   -1.3140 H   0  0  0  0  0  0  0  0  0  0  0  0
    1.1393    0.8273    1.0776 H   0  0  0  0  0  0  0  0  0  0  0  0
   -0.6356    2.4253    2.0033 H   0  0  0  0  0  0  0  0  0  0  0  0
   -1.4621    2.3594    0.4598 H   0  0  0  0  0  0  0  0  0  0  0  0
    1.3069    3.5346    1.0269 H   0  0  0  0  0  0  0  0  0  0  0  0
   -1.2897    4.7810    0.0005 H   0  0  0  0  0  0  0  0  0  0  0  0
    0.2391    5.6342    0.2489 H   0  0  0  0  0  0  0  0  0  0  0  0
   -0.6329    4.9595    1.6372 H   0  0  0  0  0  0  0  0  0  0  0  0
   -0.0661    3.2306   -1.6988 H   0  0  0  0  0  0  0  0  0  0  0  0
    1.4135    4.1510   -1.3787 H   0  0  0  0  0  0  0  0  0  0  0  0
    1.4149    2.4002   -1.1863 H   0  0  0  0  0  0  0  0  0  0  0  0
   -0.0613   -0.8615    2.3139 N   0  0  0  0  0  0  0  0  0  0  0  0
   -0.6473   -1.9445    3.0704 C   0  0  2  0  0  0  0  0  0  0  0  0
   -1.5026   -2.7727    2.1207 C   0  0  0  0  0  0  0  0  0  0  0  0
   -1.9581   -2.3292    1.0686 O   0  0  0  0  0  0  0  0  0  0  0  0
   -1.4765   -1.4220    4.2332 C   0  0  0  0  0  0  0  0  0  0  0  0
    0.9035   -0.6172    2.5166 H   0  0  0  0  0  0  0  0  0  0  0  0
    0.1824   -2.5554    3.4426 H   0  0  0  0  0  0  0  0  0  0  0  0
   -2.3126   -0.8075    3.8799 H   0  0  0  0  0  0  0  0  0  0  0  0
   -1.8963   -2.2441    4.8222 H   0  0  0  0  0  0  0  0  0  0  0  0
   -0.8666   -0.8020    4.8992 H   0  0  0  0  0  0  0  0  0  0  0  0
   -1.7334   -4.0519    2.6071 N   0  0  0  0  0  0  0  0  0  0  0  0
   -2.5279   -5.0252    1.8948 C   0  0  0  0  0  0  0  0  0  0  0  0
   -1.3006   -4.3403    3.4796 H   0  0  0  0  0  0  0  0  0  0  0  0
   -3.5727   -4.9651    2.2335 H   0  0  0  0  0  0  0  0  0  0  0  0
   -2.4800   -4.8184    0.8155 H   0  0  0  0  0  0  0  0  0  0  0  0
   -2.1359   -6.0338    2.0927 H   0  0  0  0  0  0  0  0  0  0  0  0
  1  3  1  0  0  0  0
  1  7  1  0  0  0  0
  1  2  2  0  0  0  0
 37 38  1  0  0  0  0
 38 46  1  0  0  0  0
 38 39  2  0  0  0  0
  8  9  1  0  0  0  0
  9 17  1  0  0  0  0
  9 10  2  0  0  0  0
 18 19  1  0  0  0  0
 19 36  1  0  0  0  0
 19 20  2  0  0  0  0
 37 40  1  0  0  0  0
  8 11  1  0  0  0  0
 22 23  1  0  0  0  0
 22 24  1  0  0  0  0
 46 47  1  0  0  0  0
 18 21  1  0  0  0  0
 21 22  1  0  0  0  0
 36 37  1  0  0  0  0
  7  8  1  0  0  0  0
 17 18  1  0  0  0  0
  3  4  1  0  0  0  0
  3  5  1  0  0  0  0
  3  6  1  0  0  0  0
 40 43  1  0  0  0  0
 40 44  1  0  0  0  0
 40 45  1  0  0  0  0
 11 14  1  0  0  0  0
 11 15  1  0  0  0  0
 11 16  1  0  0  0  0
 23 30  1  0  0  0  0
 23 31  1  0  0  0  0
 23 32  1  0  0  0  0
 24 33  1  0  0  0  0
 24 34  1  0  0  0  0
 24 35  1  0  0  0  0
 47 49  1  0  0  0  0
 47 50  1  0  0  0  0
 47 51  1  0  0  0  0
 21 27  1  0  0  0  0
 21 28  1  0  0  0  0
 37 42  1  0  0  0  0
  8 13  1  0  0  0  0
 18 26  1  0  0  0  0
 22 29  1  0  0  0  0
 46 48  1  0  0  0  0
  7 12  1  0  0  0  0
 36 41  1  0  0  0  0
 17 25  1  0  0  0  0
M  END
$$$$

  -OEChem-05262214473D

 51 50  0     1  0  0  0  0  0999 V2000
    3.4018   -1.2440   -3.0186 C   0  0  0  0  0  0  0  0  0  0  0  0
    3.2697   -2.0909   -2.1427 O   0  0  0  0  0  0  0  0  0  0  0  0
    4.6845   -1.1645   -3.7779 C   0  0  0  0  0  0  0  0  0  0  0  0
    5.4123   -0.4862   -3.3041 H   0  0  0  0  0  0  0  0  0  0  0  0
    5.1949   -2.1387   -3.8443 H   0  0  0  0  0  0  0  0  0  0  0  0
    4.5953   -0.8128   -4.8182 H   0  0  0  0  0  0  0  0  0  0  0  0
    2.4540   -0.3103   -3.4040 N   0  0  0  0  0  0  0  0  0  0  0  0
    1.1494   -0.2128   -2.8039 C   0  0  2  0  0  0  0  0  0  0  0  0
    1.3350    0.0367   -1.3130 C   0  0  0  0  0  0  0  0  0  0  0  0
    2.3625   -0.2586   -0.7063 O   0  0  0  0  0  0  0  0  0  0  0  0
    0.3331   -1.4728   -3.0467 C   0  0  0  0  0  0  0  0  0  0  0  0
    2.6924    0.3404   -4.1502 H   0  0  0  0  0  0  0  0  0  0  0  0
    0.6550    0.6514   -3.2607 H   0  0  0  0  0  0  0  0  0  0  0  0
    0.8129   -2.3494   -2.5963 H   0  0  0  0  0  0  0  0  0  0  0  0
   -0.6690   -1.3857   -2.6142 H   0  0  0  0  0  0  0  0  0  0  0  0
    0.2259   -1.6670   -4.1194 H   0  0  0  0  0  0  0  0  0  0  0  0
    0.2019    0.5893   -0.7269 N   0  0  0  0  0  0  0  0  0  0  0  0
    0.1242    0.9059    0.6756 C   0  0  2  0  0  0  0  0  0  0  0  0
   -0.7463   -0.1626    1.3296 C   0  0  0  0  0  0  0  0  0  0  0  0
   -1.7868   -0.5794    0.8247 O   0  0  0  0  0  0  0  0  0  0  0  0
   -0.4689    2.2986    0.9244 C   0  0  0  0  0  0  0  0  0  0  0  0
    0.3968    3.4703    0.4181 C   0  0  0  0  0  0  0  0  0  0  0  0
   -0.3660    4.7870    0.5889 C   0  0  0  0  0  0  0  0  0  0  0  0
    0.8096    3.3003   -1.0446 C   0  0  0  0  0  0  0  0  0  0  0  0
   -0.5975    0.8179   -1.3140 H   0  0  0  0  0  0  0  0  0  0  0  0
    1.1393    0.8273    1.0776 H   0  0  0  0  0  0  0  0  0  0  0  0
   -0.6356    2.4253    2.0033 H   0  0  0  0  0  0  0  0  0  0  0  0
   -1.4621    2.3594    0.4598 H   0  0  0  0  0  0  0  0  0  0  0  0
    1.3069    3.5346    1.0269 H   0  0  0  0  0  0  0  0  0  0  0  0
   -1.2897    4.7810    0.0005 H   0  0  0  0  0  0  0  0  0  0  0  0
    0.2391    5.6342    0.2489 H   0  0  0  0  0  0  0  0  0  0  0  0
   -0.6329    4.9595    1.6372 H   0  0  0  0  0  0  0  0  0  0  0  0
   -0.0661    3.2306   -1.6988 H   0  0  0  0  0  0  0  0  0  0  0  0
    1.4135    4.1510   -1.3787 H   0  0  0  0  0  0  0  0  0  0  0  0
    1.4149    2.4002   -1.1863 H   0  0  0  0  0  0  0  0  0  0  0  0
   -0.1956   -0.6287    2.5153 N   0  0  0  0  0  0  0  0  0  0  0  0
   -0.8062   -1.6619    3.3205 C   0  0  2  0  0  0  0  0  0  0  0  0
   -1.3812   -2.7128    2.3801 C   0  0  0  0  0  0  0  0  0  0  0  0
   -1.6699   -2.4785    1.2084 O   0  0  0  0  0  0  0  0  0  0  0  0
   -1.8877   -1.0919    4.2250 C   0  0  0  0  0  0  0  0  0  0  0  0
    0.6848   -0.2406    2.8407 H   0  0  0  0  0  0  0  0  0  0  0  0
   -0.0067   -2.1078    3.9223 H   0  0  0  0  0  0  0  0  0  0  0  0
   -2.6974   -0.6409    3.6399 H   0  0  0  0  0  0  0  0  0  0  0  0
   -2.3295   -1.8711    4.8549 H   0  0  0  0  0  0  0  0  0  0  0  0
   -1.4785   -0.3153    4.8801 H   0  0  0  0  0  0  0  0  0  0  0  0
   -1.5743   -3.9317    3.0150 N   0  0  0  0  0  0  0  0  0  0  0  0
   -2.1208   -5.0851    2.3389 C   0  0  0  0  0  0  0  0  0  0  0  0
   -1.2888   -4.0413    3.9837 H   0  0  0  0  0  0  0  0  0  0  0  0
   -3.2117   -5.1096    2.4780 H   0  0  0  0  0  0  0  0  0  0  0  0
   -1.8894   -5.0242    1.2652 H   0  0  0  0  0  0  0  0  0  0  0  0
   -1.6771   -6.0001    2.7583 H   0  0  0  0  0  0  0  0  0  0  0  0
  1  3  1  0  0  0  0
  1  7  1  0  0  0  0
  1  2  2  0  0  0  0
 37 38  1  0  0  0  0
 38 46  1  0  0  0  0
 38 39  2  0  0  0  0
  8  9  1  0  0  0  0
  9 17  1  0  0  0  0
  9 10  2  0  0  0  0
 18 19  1  0  0  0  0
 19 36  1  0  0  0  0
 19 20  2  0  0  0  0
 37 40  1  0  0  0  0
  8 11  1  0  0  0  0
 22 23  1  0  0  0  0
 22 24  1  0  0  0  0
 46 47  1  0  0  0  0
 18 21  1  0  0  0  0
 21 22  1  0  0  0  0
 36 37  1  0  0  0  0
  7  8  1  0  0  0  0
 17 18  1  0  0  0  0
  3  4  1  0  0  0  0
  3  5  1  0  0  0  0
  3  6  1  0  0  0  0
 40 43  1  0  0  0  0
 40 44  1  0  0  0  0
 40 45  1  0  0  0  0
 11 14  1  0  0  0  0
 11 15  1  0  0  0  0
 11 16  1  0  0  0  0
 23 30  1  0  0  0  0
 23 31  1  0  0  0  0
 23 32  1  0  0  0  0
 24 33  1  0  0  0  0
 24 34  1  0  0  0  0
 24 35  1  0  0  0  0
 47 49  1  0  0  0  0
 47 50  1  0  0  0  0
 47 51  1  0  0  0  0
 21 27  1  0  0  0  0
 21 28  1  0  0  0  0
 37 42  1  0  0  0  0
  8 13  1  0  0  0  0
 18 26  1  0  0  0  0
 22 29  1  0  0  0  0
 46 48  1  0  0  0  0
  7 12  1  0  0  0  0
 36 41  1  0  0  0  0
 17 25  1  0  0  0  0
M  END
$$$$

  -OEChem-05262214473D

 51 50  0     1  0  0  0  0  0999 V2000
    3.4018   -1.2440   -3.0186 C   0  0  0  0  0  0  0  0  0  0  0  0
    3.2697   -2.0909   -2.1427 O   0  0  0  0  0  0  0  0  0  0  0  0
    4.6845   -1.1645   -3.7779 C   0  0  0  0  0  0  0  0  0  0  0  0
    5.4123   -0.4862   -3.3041 H   0  0  0  0  0  0  0  0  0  0  0  0
    5.1949   -2.1387   -3.8443 H   0  0  0  0  0  0  0  0  0  0  0  0
    4.5953   -0.8128   -4.8182 H   0  0  0  0  0  0  0  0  0  0  0  0
    2.4540   -0.3103   -3.4040 N   0  0  0  0  0  0  0  0  0  0  0  0
    1.1494   -0.2128   -2.8039 C   0  0  2  0  0  0  0  0  0  0  0  0
    1.3350    0.0367   -1.3130 C   0  0  0  0  0  0  0  0  0  0  0  0
    2.3625   -0.2586   -0.7063 O   0  0  0  0  0  0  0  0  0  0  0  0
    0.3331   -1.4728   -3.0467 C   0  0  0  0  0  0  0  0  0  0  0  0
    2.6924    0.3404   -4.1502 H   0  0  0  0  0  0  0  0  0  0  0  0
    0.6550    0.6514   -3.2607 H   0  0  0  0  0  0  0  0  0  0  0  0
    0.8129   -2.3494   -2.5963 H   0  0  0  0  0  0  0  0  0  0  0  0
   -0.6690   -1.3857   -2.6142 H   0  0  0  0  0  0  0  0  0  0  0  0
    0.2259   -1.6670   -4.1194 H   0  0  0  0  0  0  0  0  0  0  0  0
    0.2019    0.5893   -0.7269 N   0  0  0  0  0  0  0  0  0  0  0  0
    0.1242    0.9059    0.6756 C   0  0  2  0  0  0  0  0  0  0  0  0
   -0.7463   -0.1626    1.3296 C   0  0  0  0  0  0  0  0  0  0  0  0
   -1.6266   -0.7712    0.7247 O   0  0  0  0  0  0  0  0  0  0  0  0
   -0.4689    2.2986    0.9244 C   0  0  0  0  0  0  0  0  0  0  0  0
    0.3968    3.4703    0.4181 C   0  0  0  0  0  0  0  0  0  0  0  0
   -0.3660    4.7870    0.5889 C   0  0  0  0  0  0  0  0  0  0  0  0
    0.8096    3.3003   -1.0446 C   0  0  0  0  0  0  0  0  0  0  0  0
   -0.5975    0.8179   -1.3140 H   0  0  0  0  0  0  0  0  0  0  0  0
    1.1393    0.8273    1.0776 H   0  0  0  0  0  0  0  0  0  0  0  0
   -0.6356    2.4253    2.0033 H   0  0  0  0  0  0  0  0  0  0  0  0
   -1.4621    2.3594    0.4598 H   0  0  0  0  0  0  0  0  0  0  0  0
    1.3069    3.5346    1.0269 H   0  0  0  0  0  0  0  0  0  0  0  0
   -1.2897    4.7810    0.0005 H   0  0  0  0  0  0  0  0  0  0  0  0
    0.2391    5.6342    0.2489 H   0  0  0  0  0  0  0  0  0  0  0  0
   -0.6329    4.9595    1.6372 H   0  0  0  0  0  0  0  0  0  0  0  0
   -0.0661    3.2306   -1.6988 H   0  0  0  0  0  0  0  0  0  0  0  0
    1.4135    4.1510   -1.3787 H   0  0  0  0  0  0  0  0  0  0  0  0
    1.4149    2.4002   -1.1863 H   0  0  0  0  0  0  0  0  0  0  0  0
   -0.3878   -0.3890    2.6512 N   0  0  0  0  0  0  0  0  0  0  0  0
   -1.0364   -1.3697    3.4916 C   0  0  2  0  0  0  0  0  0  0  0  0
   -1.3175   -2.6033    2.6438 C   0  0  0  0  0  0  0  0  0  0  0  0
   -1.4002   -2.5700    1.4178 O   0  0  0  0  0  0  0  0  0  0  0  0
   -2.3200   -0.8200    4.0939 C   0  0  0  0  0  0  0  0  0  0  0  0
    0.3730    0.1468    3.0585 H   0  0  0  0  0  0  0  0  0  0  0  0
   -0.3260   -1.6255    4.2853 H   0  0  0  0  0  0  0  0  0  0  0  0
   -3.0441   -0.5581    3.3137 H   0  0  0  0  0  0  0  0  0  0  0  0
   -2.7953   -1.5541    4.7528 H   0  0  0  0  0  0  0  0  0  0  0  0
   -2.1200    0.0842    4.6788 H   0  0  0  0  0  0  0  0  0  0  0  0
   -1.5080   -3.7378    3.4202 N   0  0  0  0  0  0  0  0  0  0  0  0
   -1.8014   -5.0321    2.8505 C   0  0  0  0  0  0  0  0  0  0  0  0
   -1.4021   -3.6767    4.4285 H   0  0  0  0  0  0  0  0  0  0  0  0
   -2.8912   -5.1730    2.8009 H   0  0  0  0  0  0  0  0  0  0  0  0
   -1.3777   -5.0911    1.8371 H   0  0  0  0  0  0  0  0  0  0  0  0
   -1.3584   -5.8184    3.4794 H   0  0  0  0  0  0  0  0  0  0  0  0
  1  3  1  0  0  0  0
  1  7  1  0  0  0  0
  1  2  2  0  0  0  0
 37 38  1  0  0  0  0
 38 46  1  0  0  0  0
 38 39  2  0  0  0  0
  8  9  1  0  0  0  0
  9 17  1  0  0  0  0
  9 10  2  0  0  0  0
 18 19  1  0  0  0  0
 19 36  1  0  0  0  0
 19 20  2  0  0  0  0
 37 40  1  0  0  0  0
  8 11  1  0  0  0  0
 22 23  1  0  0  0  0
 22 24  1  0  0  0  0
 46 47  1  0  0  0  0
 18 21  1  0  0  0  0
 21 22  1  0  0  0  0
 36 37  1  0  0  0  0
  7  8  1  0  0  0  0
 17 18  1  0  0  0  0
  3  4  1  0  0  0  0
  3  5  1  0  0  0  0
  3  6  1  0  0  0  0
 40 43  1  0  0  0  0
 40 44  1  0  0  0  0
 40 45  1  0  0  0  0
 11 14  1  0  0  0  0
 11 15  1  0  0  0  0
 11 16  1  0  0  0  0
 23 30  1  0  0  0  0
 23 31  1  0  0  0  0
 23 32  1  0  0  0  0
 24 33  1  0  0  0  0
 24 34  1  0  0  0  0
 24 35  1  0  0  0  0
 47 49  1  0  0  0  0
 47 50  1  0  0  0  0
 47 51  1  0  0  0  0
 21 27  1  0  0  0  0
 21 28  1  0  0  0  0
 37 42  1  0  0  0  0
  8 13  1  0  0  0  0
 18 26  1  0  0  0  0
 22 29  1  0  0  0  0
 46 48  1  0  0  0  0
  7 12  1  0  0  0  0
 36 41  1  0  0  0  0
 17 25  1  0  0  0  0
M  END
$$$$

  -OEChem-05262214473D

 51 50  0     1  0  0  0  0  0999 V2000
    3.4018   -1.2440   -3.0186 C   0  0  0  0  0  0  0  0  0  0  0  0
    3.2697   -2.0909   -2.1427 O   0  0  0  0  0  0  0  0  0  0  0  0
    4.6845   -1.1645   -3.7779 C   0  0  0  0  0  0  0  0  0  0  0  0
    5.4123   -0.4862   -3.3041 H   0  0  0  0  0  0  0  0  0  0  0  0
    5.1949   -2.1387   -3.8443 H   0  0  0  0  0  0  0  0  0  0  0  0
    4.5953   -0.8128   -4.8182 H   0  0  0  0  0  0  0  0  0  0  0  0
    2.4540   -0.3103   -3.4040 N   0  0  0  0  0  0  0  0  0  0  0  0
    1.1494   -0.2128   -2.8039 C   0  0  2  0  0  0  0  0  0  0  0  0
    1.3350    0.0367   -1.3130 C   0  0  0  0  0  0  0  0  0  0  0  0
    2.3625   -0.2586   -0.7063 O   0  0  0  0  0  0  0  0  0  0  0  0
    0.3331   -1.4728   -3.0467 C   0  0  0  0  0  0  0  0  0  0  0  0
    2.6924    0.3404   -4.1502 H   0  0  0  0  0  0  0  0  0  0  0  0
    0.6550    0.6514   -3.2607 H   0  0  0  0  0  0  0  0  0  0  0  0
    0.8129   -2.3494   -2.5963 H   0  0  0  0  0  0  0  0  0  0  0  0
   -0.6690   -1.3857   -2.6142 H   0  0  0  0  0  0  0  0  0  0  0  0
    0.2259   -1.6670   -4.1194 H   0  0  0  0  0  0  0  0  0  0  0  0
    0.2019    0.5893   -0.7269 N   0  0  0  0  0  0  0  0  0  0  0  0
    0.1242    0.9059    0.6756 C   0  0  2  0  0  0  0  0  0  0  0  0
   -0.7463   -0.1626    1.3296 C   0  0  0  0  0  0  0  0  0  0  0  0
   -1.4324   -0.9534    0.6853 O   0  0  0  0  0  0  0  0  0  0  0  0
   -0.4689    2.2986    0.9244 C   0  0  0  0  0  0  0  0  0  0  0  0
    0.3968    3.4703    0.4181 C   0  0  0  0  0  0  0  0  0  0  0  0
   -0.3660    4.7870    0.5889 C   0  0  0  0  0  0  0  0  0  0  0  0
    0.8096    3.3003   -1.0446 C   0  0  0  0  0  0  0  0  0  0  0  0
   -0.5975    0.8179   -1.3140 H   0  0  0  0  0  0  0  0  0  0  0  0
    1.1393    0.8273    1.0776 H   0  0  0  0  0  0  0  0  0  0  0  0
   -0.6356    2.4253    2.0033 H   0  0  0  0  0  0  0  0  0  0  0  0
   -1.4621    2.3594    0.4598 H   0  0  0  0  0  0  0  0  0  0  0  0
    1.3069    3.5346    1.0269 H   0  0  0  0  0  0  0  0  0  0  0  0
   -1.2897    4.7810    0.0005 H   0  0  0  0  0  0  0  0  0  0  0  0
    0.2391    5.6342    0.2489 H   0  0  0  0  0  0  0  0  0  0  0  0
   -0.6329    4.9595    1.6372 H   0  0  0  0  0  0  0  0  0  0  0  0
   -0.0661    3.2306   -1.6988 H   0  0  0  0  0  0  0  0  0  0  0  0
    1.4135    4.1510   -1.3787 H   0  0  0  0  0  0  0  0  0  0  0  0
    1.4149    2.4002   -1.1863 H   0  0  0  0  0  0  0  0  0  0  0  0
   -0.6246   -0.1587    2.7122 N   0  0  0  0  0  0  0  0  0  0  0  0
   -1.3222   -1.0877    3.5719 C   0  0  2  0  0  0  0  0  0  0  0  0
   -1.3160   -2.4514    2.8939 C   0  0  0  0  0  0  0  0  0  0  0  0
   -1.1676   -2.5975    1.6824 O   0  0  0  0  0  0  0  0  0  0  0  0
   -2.7440   -0.6247    3.8486 C   0  0  0  0  0  0  0  0  0  0  0  0
   -0.0107    0.5185    3.1551 H   0  0  0  0  0  0  0  0  0  0  0  0
   -0.7537   -1.1415    4.5068 H   0  0  0  0  0  0  0  0  0  0  0  0
   -3.3290   -0.5647    2.9236 H   0  0  0  0  0  0  0  0  0  0  0  0
   -3.2619   -1.3147    4.5230 H   0  0  0  0  0  0  0  0  0  0  0  0
   -2.7476    0.3692    4.3091 H   0  0  0  0  0  0  0  0  0  0  0  0
   -1.5389   -3.4832    3.7949 N   0  0  0  0  0  0  0  0  0  0  0  0
   -1.5916   -4.8700    3.3947 C   0  0  0  0  0  0  0  0  0  0  0  0
   -1.6326   -3.2715    4.7839 H   0  0  0  0  0  0  0  0  0  0  0  0
   -2.6332   -5.1510    3.1803 H   0  0  0  0  0  0  0  0  0  0  0  0
   -0.9797   -5.0145    2.4920 H   0  0  0  0  0  0  0  0  0  0  0  0
   -1.2015   -5.5009    4.2069 H   0  0  0  0  0  0  0  0  0  0  0  0
  1  3  1  0  0  0  0
  1  7  1  0  0  0  0
  1  2  2  0  0  0  0
 37 38  1  0  0  0  0
 38 46  1  0  0  0  0
 38 39  2  0  0  0  0
  8  9  1  0  0  0  0
  9 17  1  0  0  0  0
  9 10  2  0  0  0  0
 18 19  1  0  0  0  0
 19 36  1  0  0  0  0
 19 20  2  0  0  0  0
 37 40  1  0  0  0  0
  8 11  1  0  0  0  0
 22 23  1  0  0  0  0
 22 24  1  0  0  0  0
 46 47  1  0  0  0  0
 18 21  1  0  0  0  0
 21 22  1  0  0  0  0
 36 37  1  0  0  0  0
  7  8  1  0  0  0  0
 17 18  1  0  0  0  0
  3  4  1  0  0  0  0
  3  5  1  0  0  0  0
  3  6  1  0  0  0  0
 40 43  1  0  0  0  0
 40 44  1  0  0  0  0
 40 45  1  0  0  0  0
 11 14  1  0  0  0  0
 11 15  1  0  0  0  0
 11 16  1  0  0  0  0
 23 30  1  0  0  0  0
 23 31  1  0  0  0  0
 23 32  1  0  0  0  0
 24 33  1  0  0  0  0
 24 34  1  0  0  0  0
 24 35  1  0  0  0  0
 47 49  1  0  0  0  0
 47 50  1  0  0  0  0
 47 51  1  0  0  0  0
 21 27  1  0  0  0  0
 21 28  1  0  0  0  0
 37 42  1  0  0  0  0
  8 13  1  0  0  0  0
 18 26  1  0  0  0  0
 22 29  1  0  0  0  0
 46 48  1  0  0  0  0
  7 12  1  0  0  0  0
 36 41  1  0  0  0  0
 17 25  1  0  0  0  0
M  END
$$$$

  -OEChem-05262214473D

 51 50  0     1  0  0  0  0  0999 V2000
    3.4018   -1.2440   -3.0186 C   0  0  0  0  0  0  0  0  0  0  0  0
    3.2697   -2.0909   -2.1427 O   0  0  0  0  0  0  0  0  0  0  0  0
    4.6845   -1.1645   -3.7779 C   0  0  0  0  0  0  0  0  0  0  0  0
    5.4123   -0.4862   -3.3041 H   0  0  0  0  0  0  0  0  0  0  0  0
    5.1949   -2.1387   -3.8443 H   0  0  0  0  0  0  0  0  0  0  0  0
    4.5953   -0.8128   -4.8182 H   0  0  0  0  0  0  0  0  0  0  0  0
    2.4540   -0.3103   -3.4040 N   0  0  0  0  0  0  0  0  0  0  0  0
    1.1494   -0.2128   -2.8039 C   0  0  2  0  0  0  0  0  0  0  0  0
    1.3350    0.0367   -1.3130 C   0  0  0  0  0  0  0  0  0  0  0  0
    2.3625   -0.2586   -0.7063 O   0  0  0  0  0  0  0  0  0  0  0  0
    0.3331   -1.4728   -3.0467 C   0  0  0  0  0  0  0  0  0  0  0  0
    2.6924    0.3404   -4.1502 H   0  0  0  0  0  0  0  0  0  0  0  0
    0.6550    0.6514   -3.2607 H   0  0  0  0  0  0  0  0  0  0  0  0
    0.8129   -2.3494   -2.5963 H   0  0  0  0  0  0  0  0  0  0  0  0
   -0.6690   -1.3857   -2.6142 H   0  0  0  0  0  0  0  0  0  0  0  0
    0.2259   -1.6670   -4.1194 H   0  0  0  0  0  0  0  0  0  0  0  0
    0.2019    0.5893   -0.7269 N   0  0  0  0  0  0  0  0  0  0  0  0
    0.1242    0.9059    0.6756 C   0  0  2  0  0  0  0  0  0  0  0  0
   -0.4109   -0.3331    1.3867 C   0  0  0  0  0  0  0  0  0  0  0  0
   -0.6601   -1.3852    0.8017 O   0  0  0  0  0  0  0  0  0  0  0  0
   -0.7867    2.1094    0.9494 C   0  0  0  0  0  0  0  0  0  0  0  0
   -0.2742    3.4503    0.3854 C   0  0  0  0  0  0  0  0  0  0  0  0
   -1.3341    4.5360    0.5919 C   0  0  0  0  0  0  0  0  0  0  0  0
    0.0869    3.3586   -1.0978 C   0  0  0  0  0  0  0  0  0  0  0  0
   -0.5975    0.8179   -1.3140 H   0  0  0  0  0  0  0  0  0  0  0  0
    1.1468    1.0939    1.0179 H   0  0  0  0  0  0  0  0  0  0  0  0
   -0.9202    2.2130    2.0355 H   0  0  0  0  0  0  0  0  0  0  0  0
   -1.7871    1.9084    0.5436 H   0  0  0  0  0  0  0  0  0  0  0  0
    0.6223    3.7545    0.9393 H   0  0  0  0  0  0  0  0  0  0  0  0
   -2.2573    4.2852    0.0588 H   0  0  0  0  0  0  0  0  0  0  0  0
   -0.9823    5.5007    0.2113 H   0  0  0  0  0  0  0  0  0  0  0  0
   -1.5777    4.6579    1.6529 H   0  0  0  0  0  0  0  0  0  0  0  0
   -0.7775    3.0568   -1.6990 H   0  0  0  0  0  0  0  0  0  0  0  0
    0.4370    4.3266   -1.4725 H   0  0  0  0  0  0  0  0  0  0  0  0
    0.8911    2.6370   -1.2688 H   0  0  0  0  0  0  0  0  0  0  0  0
   -0.5272   -0.1380    2.7559 N   0  0  0  0  0  0  0  0  0  0  0  0
   -0.9856   -1.1625    3.6664 C   0  0  2  0  0  0  0  0  0  0  0  0
   -0.3901   -2.4907    3.2183 C   0  0  0  0  0  0  0  0  0  0  0  0
   -0.0029   -2.6989    2.0704 O   0  0  0  0  0  0  0  0  0  0  0  0
   -2.5044   -1.2321    3.7017 C   0  0  0  0  0  0  0  0  0  0  0  0
   -0.2716    0.7611    3.1532 H   0  0  0  0  0  0  0  0  0  0  0  0
   -0.5963   -0.9026    4.6568 H   0  0  0  0  0  0  0  0  0  0  0  0
   -2.9127   -1.4913    2.7181 H   0  0  0  0  0  0  0  0  0  0  0  0
   -2.8504   -1.9891    4.4131 H   0  0  0  0  0  0  0  0  0  0  0  0
   -2.9320   -0.2674    3.9954 H   0  0  0  0  0  0  0  0  0  0  0  0
   -0.3816   -3.4300    4.2400 N   0  0  0  0  0  0  0  0  0  0  0  0
    0.1222   -4.7717    4.0613 C   0  0  0  0  0  0  0  0  0  0  0  0
   -0.7047   -3.1644    5.1656 H   0  0  0  0  0  0  0  0  0  0  0  0
   -0.7043   -5.4393    3.7763 H   0  0  0  0  0  0  0  0  0  0  0  0
    0.8853   -4.7742    3.2690 H   0  0  0  0  0  0  0  0  0  0  0  0
    0.5697   -5.1236    5.0025 H   0  0  0  0  0  0  0  0  0  0  0  0
  1  3  1  0  0  0  0
  1  7  1  0  0  0  0
  1  2  2  0  0  0  0
 37 38  1  0  0  0  0
 38 46  1  0  0  0  0
 38 39  2  0  0  0  0
  8  9  1  0  0  0  0
  9 17  1  0  0  0  0
  9 10  2  0  0  0  0
 18 19  1  0  0  0  0
 19 36  1  0  0  0  0
 19 20  2  0  0  0  0
 37 40  1  0  0  0  0
  8 11  1  0  0  0  0
 22 23  1  0  0  0  0
 22 24  1  0  0  0  0
 46 47  1  0  0  0  0
 18 21  1  0  0  0  0
 21 22  1  0  0  0  0
 36 37  1  0  0  0  0
  7  8  1  0  0  0  0
 17 18  1  0  0  0  0
  3  4  1  0  0  0  0
  3  5  1  0  0  0  0
  3  6  1  0  0  0  0
 40 43  1  0  0  0  0
 40 44  1  0  0  0  0
 40 45  1  0  0  0  0
 11 14  1  0  0  0  0
 11 15  1  0  0  0  0
 11 16  1  0  0  0  0
 23 30  1  0  0  0  0
 23 31  1  0  0  0  0
 23 32  1  0  0  0  0
 24 33  1  0  0  0  0
 24 34  1  0  0  0  0
 24 35  1  0  0  0  0
 47 49  1  0  0  0  0
 47 50  1  0  0  0  0
 47 51  1  0  0  0  0
 21 27  1  0  0  0  0
 21 28  1  0  0  0  0
 37 42  1  0  0  0  0
  8 13  1  0  0  0  0
 18 26  1  0  0  0  0
 22 29  1  0  0  0  0
 46 48  1  0  0  0  0
  7 12  1  0  0  0  0
 36 41  1  0  0  0  0
 17 25  1  0  0  0  0
M  END
$$$$

  -OEChem-05262214473D

 51 50  0     1  0  0  0  0  0999 V2000
    3.4018   -1.2440   -3.0186 C   0  0  0  0  0  0  0  0  0  0  0  0
    3.2697   -2.0909   -2.1427 O   0  0  0  0  0  0  0  0  0  0  0  0
    4.6845   -1.1645   -3.7779 C   0  0  0  0  0  0  0  0  0  0  0  0
    5.4123   -0.4862   -3.3041 H   0  0  0  0  0  0  0  0  0  0  0  0
    5.1949   -2.1387   -3.8443 H   0  0  0  0  0  0  0  0  0  0  0  0
    4.5953   -0.8128   -4.8182 H   0  0  0  0  0  0  0  0  0  0  0  0
    2.4540   -0.3103   -3.4040 N   0  0  0  0  0  0  0  0  0  0  0  0
    1.1494   -0.2128   -2.8039 C   0  0  2  0  0  0  0  0  0  0  0  0
    1.3350    0.0367   -1.3130 C   0  0  0  0  0  0  0  0  0  0  0  0
    2.3625   -0.2586   -0.7063 O   0  0  0  0  0  0  0  0  0  0  0  0
    0.3331   -1.4728   -3.0467 C   0  0  0  0  0  0  0  0  0  0  0  0
    2.6924    0.3404   -4.1502 H   0  0  0  0  0  0  0  0  0  0  0  0
    0.6550    0.6514   -3.2607 H   0  0  0  0  0  0  0  0  0  0  0  0
    0.8129   -2.3494   -2.5963 H   0  0  0  0  0  0  0  0  0  0  0  0
   -0.6690   -1.3857   -2.6142 H   0  0  0  0  0  0  0  0  0  0  0  0
    0.2259   -1.6670   -4.1194 H   0  0  0  0  0  0  0  0  0  0  0  0
    0.2019    0.5893   -0.7269 N   0  0  0  0  0  0  0  0  0  0  0  0
    0.1242    0.9059    0.6756 C   0  0  2  0  0  0  0  0  0  0  0  0
   -0.4109   -0.3331    1.3867 C   0  0  0  0  0  0  0  0  0  0  0  0
   -0.4097   -1.4511    0.8753 O   0  0  0  0  0  0  0  0  0  0  0  0
   -0.7867    2.1094    0.9494 C   0  0  0  0  0  0  0  0  0  0  0  0
   -0.2742    3.4503    0.3854 C   0  0  0  0  0  0  0  0  0  0  0  0
   -1.3341    4.5360    0.5919 C   0  0  0  0  0  0  0  0  0  0  0  0
    0.0869    3.3586   -1.0978 C   0  0  0  0  0  0  0  0  0  0  0  0
   -0.5975    0.8179   -1.3140 H   0  0  0  0  0  0  0  0  0  0  0  0
    1.1468    1.0939    1.0179 H   0  0  0  0  0  0  0  0  0  0  0  0
   -0.9202    2.2130    2.0355 H   0  0  0  0  0  0  0  0  0  0  0  0
   -1.7871    1.9084    0.5436 H   0  0  0  0  0  0  0  0  0  0  0  0
    0.6223    3.7545    0.9393 H   0  0  0  0  0  0  0  0  0  0  0  0
   -2.2573    4.2852    0.0588 H   0  0  0  0  0  0  0  0  0  0  0  0
   -0.9823    5.5007    0.2113 H   0  0  0  0  0  0  0  0  0  0  0  0
   -1.5777    4.6579    1.6529 H   0  0  0  0  0  0  0  0  0  0  0  0
   -0.7775    3.0568   -1.6990 H   0  0  0  0  0  0  0  0  0  0  0  0
    0.4370    4.3266   -1.4725 H   0  0  0  0  0  0  0  0  0  0  0  0
    0.8911    2.6370   -1.2688 H   0  0  0  0  0  0  0  0  0  0  0  0
   -0.8408   -0.0488    2.6754 N   0  0  0  0  0  0  0  0  0  0  0  0
   -1.3684   -1.0502    3.5740 C   0  0  2  0  0  0  0  0  0  0  0  0
   -0.5466   -2.3203    3.3974 C   0  0  0  0  0  0  0  0  0  0  0  0
    0.0998   -2.5651    2.3809 O   0  0  0  0  0  0  0  0  0  0  0  0
   -2.8416   -1.3143    3.3048 C   0  0  0  0  0  0  0  0  0  0  0  0
   -0.7784    0.9042    3.0211 H   0  0  0  0  0  0  0  0  0  0  0  0
   -1.2332   -0.6655    4.5907 H   0  0  0  0  0  0  0  0  0  0  0  0
   -2.9968   -1.7003    2.2907 H   0  0  0  0  0  0  0  0  0  0  0  0
   -3.2469   -2.0522    4.0049 H   0  0  0  0  0  0  0  0  0  0  0  0
   -3.4269   -0.3936    3.4031 H   0  0  0  0  0  0  0  0  0  0  0  0
   -0.6546   -3.1680    4.4909 N   0  0  0  0  0  0  0  0  0  0  0  0
    0.0215   -4.4425    4.5592 C   0  0  0  0  0  0  0  0  0  0  0  0
   -1.1973   -2.8756    5.2982 H   0  0  0  0  0  0  0  0  0  0  0  0
   -0.6447   -5.2323    4.1819 H   0  0  0  0  0  0  0  0  0  0  0  0
    0.9330   -4.4072    3.9445 H   0  0  0  0  0  0  0  0  0  0  0  0
    0.2916   -4.6586    5.6034 H   0  0  0  0  0  0  0  0  0  0  0  0
  1  3  1  0  0  0  0
  1  7  1  0  0  0  0
  1  2  2  0  0  0  0
 37 38  1  0  0  0  0
 38 46  1  0  0  0  0
 38 39  2  0  0  0  0
  8  9  1  0  0  0  0
  9 17  1  0  0  0  0
  9 10  2  0  0  0  0
 18 19  1  0  0  0  0
 19 36  1  0  0  0  0
 19 20  2  0  0  0  0
 37 40  1  0  0  0  0
  8 11  1  0  0  0  0
 22 23  1  0  0  0  0
 22 24  1  0  0  0  0
 46 47  1  0  0  0  0
 18 21  1  0  0  0  0
 21 22  1  0  0  0  0
 36 37  1  0  0  0  0
  7  8  1  0  0  0  0
 17 18  1  0  0  0  0
  3  4  1  0  0  0  0
  3  5  1  0  0  0  0
  3  6  1  0  0  0  0
 40 43  1  0  0  0  0
 40 44  1  0  0  0  0
 40 45  1  0  0  0  0
 11 14  1  0  0  0  0
 11 15  1  0  0  0  0
 11 16  1  0  0  0  0
 23 30  1  0  0  0  0
 23 31  1  0  0  0  0
 23 32  1  0  0  0  0
 24 33  1  0  0  0  0
 24 34  1  0  0  0  0
 24 35  1  0  0  0  0
 47 49  1  0  0  0  0
 47 50  1  0  0  0  0
 47 51  1  0  0  0  0
 21 27  1  0  0  0  0
 21 28  1  0  0  0  0
 37 42  1  0  0  0  0
  8 13  1  0  0  0  0
 18 26  1  0  0  0  0
 22 29  1  0  0  0  0
 46 48  1  0  0  0  0
  7 12  1  0  0  0  0
 36 41  1  0  0  0  0
 17 25  1  0  0  0  0
M  END
$$$$

  -OEChem-05262214473D

 51 50  0     1  0  0  0  0  0999 V2000
    3.4018   -1.2440   -3.0186 C   0  0  0  0  0  0  0  0  0  0  0  0
    3.2697   -2.0909   -2.1427 O   0  0  0  0  0  0  0  0  0  0  0  0
    4.6845   -1.1645   -3.7779 C   0  0  0  0  0  0  0  0  0  0  0  0
    5.4123   -0.4862   -3.3041 H   0  0  0  0  0  0  0  0  0  0  0  0
    5.1949   -2.1387   -3.8443 H   0  0  0  0  0  0  0  0  0  0  0  0
    4.5953   -0.8128   -4.8182 H   0  0  0  0  0  0  0  0  0  0  0  0
    2.4540   -0.3103   -3.4040 N   0  0  0  0  0  0  0  0  0  0  0  0
    1.1494   -0.2128   -2.8039 C   0  0  2  0  0  0  0  0  0  0  0  0
    1.3350    0.0367   -1.3130 C   0  0  0  0  0  0  0  0  0  0  0  0
    2.3625   -0.2586   -0.7063 O   0  0  0  0  0  0  0  0  0  0  0  0
    0.3331   -1.4728   -3.0467 C   0  0  0  0  0  0  0  0  0  0  0  0
    2.6924    0.3404   -4.1502 H   0  0  0  0  0  0  0  0  0  0  0  0
    0.6550    0.6514   -3.2607 H   0  0  0  0  0  0  0  0  0  0  0  0
    0.8129   -2.3494   -2.5963 H   0  0  0  0  0  0  0  0  0  0  0  0
   -0.6690   -1.3857   -2.6142 H   0  0  0  0  0  0  0  0  0  0  0  0
    0.2259   -1.6670   -4.1194 H   0  0  0  0  0  0  0  0  0  0  0  0
    0.2019    0.5893   -0.7269 N   0  0  0  0  0  0  0  0  0  0  0  0
    0.1242    0.9059    0.6756 C   0  0  2  0  0  0  0  0  0  0  0  0
   -0.4109   -0.3331    1.3867 C   0  0  0  0  0  0  0  0  0  0  0  0
   -0.1754   -1.4778    1.0051 O   0  0  0  0  0  0  0  0  0  0  0  0
   -0.7867    2.1094    0.9494 C   0  0  0  0  0  0  0  0  0  0  0  0
   -0.2742    3.4503    0.3854 C   0  0  0  0  0  0  0  0  0  0  0  0
   -1.3341    4.5360    0.5919 C   0  0  0  0  0  0  0  0  0  0  0  0
    0.0869    3.3586   -1.0978 C   0  0  0  0  0  0  0  0  0  0  0  0
   -0.5975    0.8179   -1.3140 H   0  0  0  0  0  0  0  0  0  0  0  0
    1.1468    1.0939    1.0179 H   0  0  0  0  0  0  0  0  0  0  0  0
   -0.9202    2.2130    2.0355 H   0  0  0  0  0  0  0  0  0  0  0  0
   -1.7871    1.9084    0.5436 H   0  0  0  0  0  0  0  0  0  0  0  0
    0.6223    3.7545    0.9393 H   0  0  0  0  0  0  0  0  0  0  0  0
   -2.2573    4.2852    0.0588 H   0  0  0  0  0  0  0  0  0  0  0  0
   -0.9823    5.5007    0.2113 H   0  0  0  0  0  0  0  0  0  0  0  0
   -1.5777    4.6579    1.6529 H   0  0  0  0  0  0  0  0  0  0  0  0
   -0.7775    3.0568   -1.6990 H   0  0  0  0  0  0  0  0  0  0  0  0
    0.4370    4.3266   -1.4725 H   0  0  0  0  0  0  0  0  0  0  0  0
    0.8911    2.6370   -1.2688 H   0  0  0  0  0  0  0  0  0  0  0  0
   -1.1376   -0.0078    2.5236 N   0  0  0  0  0  0  0  0  0  0  0  0
   -1.7322   -0.9964    3.3941 C   0  0  2  0  0  0  0  0  0  0  0  0
   -0.7560   -2.1583    3.5220 C   0  0  0  0  0  0  0  0  0  0  0  0
    0.1176   -2.3952    2.6903 O   0  0  0  0  0  0  0  0  0  0  0  0
   -3.0740   -1.4704    2.8579 C   0  0  0  0  0  0  0  0  0  0  0  0
   -1.2574    0.9692    2.7741 H   0  0  0  0  0  0  0  0  0  0  0  0
   -1.8632   -0.5193    4.3715 H   0  0  0  0  0  0  0  0  0  0  0  0
   -2.9629   -1.9511    1.8791 H   0  0  0  0  0  0  0  0  0  0  0  0
   -3.5364   -2.1981    3.5329 H   0  0  0  0  0  0  0  0  0  0  0  0
   -3.7652   -0.6290    2.7383 H   0  0  0  0  0  0  0  0  0  0  0  0
   -1.0027   -2.9252    4.6522 N   0  0  0  0  0  0  0  0  0  0  0  0
   -0.2201   -4.0914    4.9891 C   0  0  0  0  0  0  0  0  0  0  0  0
   -1.7358   -2.6440    5.2966 H   0  0  0  0  0  0  0  0  0  0  0  0
   -0.6974   -4.9882    4.5675 H   0  0  0  0  0  0  0  0  0  0  0  0
    0.7929   -3.9856    4.5737 H   0  0  0  0  0  0  0  0  0  0  0  0
   -0.1594   -4.1885    6.0832 H   0  0  0  0  0  0  0  0  0  0  0  0
  1  3  1  0  0  0  0
  1  7  1  0  0  0  0
  1  2  2  0  0  0  0
 37 38  1  0  0  0  0
 38 46  1  0  0  0  0
 38 39  2  0  0  0  0
  8  9  1  0  0  0  0
  9 17  1  0  0  0  0
  9 10  2  0  0  0  0
 18 19  1  0  0  0  0
 19 36  1  0  0  0  0
 19 20  2  0  0  0  0
 37 40  1  0  0  0  0
  8 11  1  0  0  0  0
 22 23  1  0  0  0  0
 22 24  1  0  0  0  0
 46 47  1  0  0  0  0
 18 21  1  0  0  0  0
 21 22  1  0  0  0  0
 36 37  1  0  0  0  0
  7  8  1  0  0  0  0
 17 18  1  0  0  0  0
  3  4  1  0  0  0  0
  3  5  1  0  0  0  0
  3  6  1  0  0  0  0
 40 43  1  0  0  0  0
 40 44  1  0  0  0  0
 40 45  1  0  0  0  0
 11 14  1  0  0  0  0
 11 15  1  0  0  0  0
 11 16  1  0  0  0  0
 23 30  1  0  0  0  0
 23 31  1  0  0  0  0
 23 32  1  0  0  0  0
 24 33  1  0  0  0  0
 24 34  1  0  0  0  0
 24 35  1  0  0  0  0
 47 49  1  0  0  0  0
 47 50  1  0  0  0  0
 47 51  1  0  0  0  0
 21 27  1  0  0  0  0
 21 28  1  0  0  0  0
 37 42  1  0  0  0  0
  8 13  1  0  0  0  0
 18 26  1  0  0  0  0
 22 29  1  0  0  0  0
 46 48  1  0  0  0  0
  7 12  1  0  0  0  0
 36 41  1  0  0  0  0
 17 25  1  0  0  0  0
M  END
$$$$

  -OEChem-05262214473D

 51 50  0     1  0  0  0  0  0999 V2000
    3.4018   -1.2440   -3.0186 C   0  0  0  0  0  0  0  0  0  0  0  0
    3.2697   -2.0909   -2.1427 O   0  0  0  0  0  0  0  0  0  0  0  0
    4.6845   -1.1645   -3.7779 C   0  0  0  0  0  0  0  0  0  0  0  0
    5.4123   -0.4862   -3.3041 H   0  0  0  0  0  0  0  0  0  0  0  0
    5.1949   -2.1387   -3.8443 H   0  0  0  0  0  0  0  0  0  0  0  0
    4.5953   -0.8128   -4.8182 H   0  0  0  0  0  0  0  0  0  0  0  0
    2.4540   -0.3103   -3.4040 N   0  0  0  0  0  0  0  0  0  0  0  0
    1.1494   -0.2128   -2.8039 C   0  0  2  0  0  0  0  0  0  0  0  0
    1.3350    0.0367   -1.3130 C   0  0  0  0  0  0  0  0  0  0  0  0
    2.3625   -0.2586   -0.7063 O   0  0  0  0  0  0  0  0  0  0  0  0
    0.3331   -1.4728   -3.0467 C   0  0  0  0  0  0  0  0  0  0  0  0
    2.6924    0.3404   -4.1502 H   0  0  0  0  0  0  0  0  0  0  0  0
    0.6550    0.6514   -3.2607 H   0  0  0  0  0  0  0  0  0  0  0  0
    0.8129   -2.3494   -2.5963 H   0  0  0  0  0  0  0  0  0  0  0  0
   -0.6690   -1.3857   -2.6142 H   0  0  0  0  0  0  0  0  0  0  0  0
    0.2259   -1.6670   -4.1194 H   0  0  0  0  0  0  0  0  0  0  0  0
    0.2019    0.5893   -0.7269 N   0  0  0  0  0  0  0  0  0  0  0  0
    0.1242    0.9059    0.6756 C   0  0  2  0  0  0  0  0  0  0  0  0
   -0.4109   -0.3331    1.3867 C   0  0  0  0  0  0  0  0  0  0  0  0
    0.0269   -1.4635    1.1822 O   0  0  0  0  0  0  0  0  0  0  0  0
   -0.7867    2.1094    0.9494 C   0  0  0  0  0  0  0  0  0  0  0  0
   -0.2742    3.4503    0.3854 C   0  0  0  0  0  0  0  0  0  0  0  0
   -1.3341    4.5360    0.5919 C   0  0  0  0  0  0  0  0  0  0  0  0
    0.0869    3.3586   -1.0978 C   0  0  0  0  0  0  0  0  0  0  0  0
   -0.5975    0.8179   -1.3140 H   0  0  0  0  0  0  0  0  0  0  0  0
    1.1468    1.0939    1.0179 H   0  0  0  0  0  0  0  0  0  0  0  0
   -0.9202    2.2130    2.0355 H   0  0  0  0  0  0  0  0  0  0  0  0
   -1.7871    1.9084    0.5436 H   0  0  0  0  0  0  0  0  0  0  0  0
    0.6223    3.7545    0.9393 H   0  0  0  0  0  0  0  0  0  0  0  0
   -2.2573    4.2852    0.0588 H   0  0  0  0  0  0  0  0  0  0  0  0
   -0.9823    5.5007    0.2113 H   0  0  0  0  0  0  0  0  0  0  0  0
   -1.5777    4.6579    1.6529 H   0  0  0  0  0  0  0  0  0  0  0  0
   -0.7775    3.0568   -1.6990 H   0  0  0  0  0  0  0  0  0  0  0  0
    0.4370    4.3266   -1.4725 H   0  0  0  0  0  0  0  0  0  0  0  0
    0.8911    2.6370   -1.2688 H   0  0  0  0  0  0  0  0  0  0  0  0
   -1.3973   -0.0177    2.3108 N   0  0  0  0  0  0  0  0  0  0  0  0
   -2.0523   -1.0046    3.1389 C   0  0  2  0  0  0  0  0  0  0  0  0
   -1.0040   -2.0158    3.5837 C   0  0  0  0  0  0  0  0  0  0  0  0
    0.0493   -2.2009    2.9775 O   0  0  0  0  0  0  0  0  0  0  0  0
   -3.1858   -1.6898    2.3916 C   0  0  0  0  0  0  0  0  0  0  0  0
   -1.6760    0.9518    2.4288 H   0  0  0  0  0  0  0  0  0  0  0  0
   -2.4432   -0.4740    4.0140 H   0  0  0  0  0  0  0  0  0  0  0  0
   -2.8134   -2.2267    1.5115 H   0  0  0  0  0  0  0  0  0  0  0  0
   -3.6992   -2.4167    3.0294 H   0  0  0  0  0  0  0  0  0  0  0  0
   -3.9238   -0.9576    2.0465 H   0  0  0  0  0  0  0  0  0  0  0  0
   -1.4021   -2.7179    4.7127 N   0  0  0  0  0  0  0  0  0  0  0  0
   -0.5862   -3.7424    5.3218 C   0  0  0  0  0  0  0  0  0  0  0  0
   -2.2835   -2.4854    5.1608 H   0  0  0  0  0  0  0  0  0  0  0  0
   -0.8588   -4.7239    4.9066 H   0  0  0  0  0  0  0  0  0  0  0  0
    0.4744   -3.5381    5.1137 H   0  0  0  0  0  0  0  0  0  0  0  0
   -0.7527   -3.7452    6.4091 H   0  0  0  0  0  0  0  0  0  0  0  0
  1  3  1  0  0  0  0
  1  7  1  0  0  0  0
  1  2  2  0  0  0  0
 37 38  1  0  0  0  0
 38 46  1  0  0  0  0
 38 39  2  0  0  0  0
  8  9  1  0  0  0  0
  9 17  1  0  0  0  0
  9 10  2  0  0  0  0
 18 19  1  0  0  0  0
 19 36  1  0  0  0  0
 19 20  2  0  0  0  0
 37 40  1  0  0  0  0
  8 11  1  0  0  0  0
 22 23  1  0  0  0  0
 22 24  1  0  0  0  0
 46 47  1  0  0  0  0
 18 21  1  0  0  0  0
 21 22  1  0  0  0  0
 36 37  1  0  0  0  0
  7  8  1  0  0  0  0
 17 18  1  0  0  0  0
  3  4  1  0  0  0  0
  3  5  1  0  0  0  0
  3  6  1  0  0  0  0
 40 43  1  0  0  0  0
 40 44  1  0  0  0  0
 40 45  1  0  0  0  0
 11 14  1  0  0  0  0
 11 15  1  0  0  0  0
 11 16  1  0  0  0  0
 23 30  1  0  0  0  0
 23 31  1  0  0  0  0
 23 32  1  0  0  0  0
 24 33  1  0  0  0  0
 24 34  1  0  0  0  0
 24 35  1  0  0  0  0
 47 49  1  0  0  0  0
 47 50  1  0  0  0  0
 47 51  1  0  0  0  0
 21 27  1  0  0  0  0
 21 28  1  0  0  0  0
 37 42  1  0  0  0  0
  8 13  1  0  0  0  0
 18 26  1  0  0  0  0
 22 29  1  0  0  0  0
 46 48  1  0  0  0  0
  7 12  1  0  0  0  0
 36 41  1  0  0  0  0
 17 25  1  0  0  0  0
M  END
$$$$

  -OEChem-05262214473D

 51 50  0     1  0  0  0  0  0999 V2000
    3.4018   -1.2440   -3.0186 C   0  0  0  0  0  0  0  0  0  0  0  0
    3.2697   -2.0909   -2.1427 O   0  0  0  0  0  0  0  0  0  0  0  0
    4.6845   -1.1645   -3.7779 C   0  0  0  0  0  0  0  0  0  0  0  0
    5.4123   -0.4862   -3.3041 H   0  0  0  0  0  0  0  0  0  0  0  0
    5.1949   -2.1387   -3.8443 H   0  0  0  0  0  0  0  0  0  0  0  0
    4.5953   -0.8128   -4.8182 H   0  0  0  0  0  0  0  0  0  0  0  0
    2.4540   -0.3103   -3.4040 N   0  0  0  0  0  0  0  0  0  0  0  0
    1.1494   -0.2128   -2.8039 C   0  0  2  0  0  0  0  0  0  0  0  0
    1.3350    0.0367   -1.3130 C   0  0  0  0  0  0  0  0  0  0  0  0
    2.3625   -0.2586   -0.7063 O   0  0  0  0  0  0  0  0  0  0  0  0
    0.3331   -1.4728   -3.0467 C   0  0  0  0  0  0  0  0  0  0  0  0
    2.6924    0.3404   -4.1502 H   0  0  0  0  0  0  0  0  0  0  0  0
    0.6550    0.6514   -3.2607 H   0  0  0  0  0  0  0  0  0  0  0  0
    0.8129   -2.3494   -2.5963 H   0  0  0  0  0  0  0  0  0  0  0  0
   -0.6690   -1.3857   -2.6142 H   0  0  0  0  0  0  0  0  0  0  0  0
    0.2259   -1.6670   -4.1194 H   0  0  0  0  0  0  0  0  0  0  0  0
    0.2019    0.5893   -0.7269 N   0  0  0  0  0  0  0  0  0  0  0  0
    0.1242    0.9059    0.6756 C   0  0  2  0  0  0  0  0  0  0  0  0
   -0.4109   -0.3331    1.3867 C   0  0  0  0  0  0  0  0  0  0  0  0
    0.1833   -1.4093    1.3944 O   0  0  0  0  0  0  0  0  0  0  0  0
   -0.7867    2.1094    0.9494 C   0  0  0  0  0  0  0  0  0  0  0  0
   -0.2742    3.4503    0.3854 C   0  0  0  0  0  0  0  0  0  0  0  0
   -1.3341    4.5360    0.5919 C   0  0  0  0  0  0  0  0  0  0  0  0
    0.0869    3.3586   -1.0978 C   0  0  0  0  0  0  0  0  0  0  0  0
   -0.5975    0.8179   -1.3140 H   0  0  0  0  0  0  0  0  0  0  0  0
    1.1468    1.0939    1.0179 H   0  0  0  0  0  0  0  0  0  0  0  0
   -0.9202    2.2130    2.0355 H   0  0  0  0  0  0  0  0  0  0  0  0
   -1.7871    1.9084    0.5436 H   0  0  0  0  0  0  0  0  0  0  0  0
    0.6223    3.7545    0.9393 H   0  0  0  0  0  0  0  0  0  0  0  0
   -2.2573    4.2852    0.0588 H   0  0  0  0  0  0  0  0  0  0  0  0
   -0.9823    5.5007    0.2113 H   0  0  0  0  0  0  0  0  0  0  0  0
   -1.5777    4.6579    1.6529 H   0  0  0  0  0  0  0  0  0  0  0  0
   -0.7775    3.0568   -1.6990 H   0  0  0  0  0  0  0  0  0  0  0  0
    0.4370    4.3266   -1.4725 H   0  0  0  0  0  0  0  0  0  0  0  0
    0.8911    2.6370   -1.2688 H   0  0  0  0  0  0  0  0  0  0  0  0
   -1.6022   -0.0780    2.0516 N   0  0  0  0  0  0  0  0  0  0  0  0
   -2.3069   -1.0743    2.8259 C   0  0  2  0  0  0  0  0  0  0  0  0
   -1.2737   -1.9025    3.5782 C   0  0  0  0  0  0  0  0  0  0  0  0
   -0.1005   -1.9953    3.2229 O   0  0  0  0  0  0  0  0  0  0  0  0
   -3.1692   -1.9575    1.9375 C   0  0  0  0  0  0  0  0  0  0  0  0
   -2.0056    0.8532    2.0089 H   0  0  0  0  0  0  0  0  0  0  0  0
   -2.9338   -0.5327    3.5426 H   0  0  0  0  0  0  0  0  0  0  0  0
   -2.5585   -2.5082    1.2128 H   0  0  0  0  0  0  0  0  0  0  0  0
   -3.7243   -2.6933    2.5287 H   0  0  0  0  0  0  0  0  0  0  0  0
   -3.8919   -1.3568    1.3748 H   0  0  0  0  0  0  0  0  0  0  0  0
   -1.8256   -2.5605    4.6684 N   0  0  0  0  0  0  0  0  0  0  0  0
   -1.0519   -3.4192    5.5344 C   0  0  0  0  0  0  0  0  0  0  0  0
   -2.8032   -2.4106    4.9000 H   0  0  0  0  0  0  0  0  0  0  0  0
   -1.1178   -4.4572    5.1763 H   0  0  0  0  0  0  0  0  0  0  0  0
   -0.0007   -3.0953    5.5278 H   0  0  0  0  0  0  0  0  0  0  0  0
   -1.4477   -3.3591    6.5590 H   0  0  0  0  0  0  0  0  0  0  0  0
  1  3  1  0  0  0  0
  1  7  1  0  0  0  0
  1  2  2  0  0  0  0
 37 38  1  0  0  0  0
 38 46  1  0  0  0  0
 38 39  2  0  0  0  0
  8  9  1  0  0  0  0
  9 17  1  0  0  0  0
  9 10  2  0  0  0  0
 18 19  1  0  0  0  0
 19 36  1  0  0  0  0
 19 20  2  0  0  0  0
 37 40  1  0  0  0  0
  8 11  1  0  0  0  0
 22 23  1  0  0  0  0
 22 24  1  0  0  0  0
 46 47  1  0  0  0  0
 18 21  1  0  0  0  0
 21 22  1  0  0  0  0
 36 37  1  0  0  0  0
  7  8  1  0  0  0  0
 17 18  1  0  0  0  0
  3  4  1  0  0  0  0
  3  5  1  0  0  0  0
  3  6  1  0  0  0  0
 40 43  1  0  0  0  0
 40 44  1  0  0  0  0
 40 45  1  0  0  0  0
 11 14  1  0  0  0  0
 11 15  1  0  0  0  0
 11 16  1  0  0  0  0
 23 30  1  0  0  0  0
 23 31  1  0  0  0  0
 23 32  1  0  0  0  0
 24 33  1  0  0  0  0
 24 34  1  0  0  0  0
 24 35  1  0  0  0  0
 47 49  1  0  0  0  0
 47 50  1  0  0  0  0
 47 51  1  0  0  0  0
 21 27  1  0  0  0  0
 21 28  1  0  0  0  0
 37 42  1  0  0  0  0
  8 13  1  0  0  0  0
 18 26  1  0  0  0  0
 22 29  1  0  0  0  0
 46 48  1  0  0  0  0
  7 12  1  0  0  0  0
 36 41  1  0  0  0  0
 17 25  1  0  0  0  0
M  END
$$$$

  -OEChem-05262214473D

 51 50  0     1  0  0  0  0  0999 V2000
    3.4018   -1.2440   -3.0186 C   0  0  0  0  0  0  0  0  0  0  0  0
    3.2697   -2.0909   -2.1427 O   0  0  0  0  0  0  0  0  0  0  0  0
    4.6845   -1.1645   -3.7779 C   0  0  0  0  0  0  0  0  0  0  0  0
    5.4123   -0.4862   -3.3041 H   0  0  0  0  0  0  0  0  0  0  0  0
    5.1949   -2.1387   -3.8443 H   0  0  0  0  0  0  0  0  0  0  0  0
    4.5953   -0.8128   -4.8182 H   0  0  0  0  0  0  0  0  0  0  0  0
    2.4540   -0.3103   -3.4040 N   0  0  0  0  0  0  0  0  0  0  0  0
    1.1494   -0.2128   -2.8039 C   0  0  2  0  0  0  0  0  0  0  0  0
    1.3350    0.0367   -1.3130 C   0  0  0  0  0  0  0  0  0  0  0  0
    2.3625   -0.2586   -0.7063 O   0  0  0  0  0  0  0  0  0  0  0  0
    0.3331   -1.4728   -3.0467 C   0  0  0  0  0  0  0  0  0  0  0  0
    2.6924    0.3404   -4.1502 H   0  0  0  0  0  0  0  0  0  0  0  0
    0.6550    0.6514   -3.2607 H   0  0  0  0  0  0  0  0  0  0  0  0
    0.8129   -2.3494   -2.5963 H   0  0  0  0  0  0  0  0  0  0  0  0
   -0.6690   -1.3857   -2.6142 H   0  0  0  0  0  0  0  0  0  0  0  0
    0.2259   -1.6670   -4.1194 H   0  0  0  0  0  0  0  0  0  0  0  0
    0.2019    0.5893   -0.7269 N   0  0  0  0  0  0  0  0  0  0  0  0
    0.1242    0.9059    0.6756 C   0  0  2  0  0  0  0  0  0  0  0  0
   -0.4109   -0.3331    1.3867 C   0  0  0  0  0  0  0  0  0  0  0  0
    0.2833   -1.3187    1.6274 O   0  0  0  0  0  0  0  0  0  0  0  0
   -0.7867    2.1094    0.9494 C   0  0  0  0  0  0  0  0  0  0  0  0
   -0.2742    3.4503    0.3854 C   0  0  0  0  0  0  0  0  0  0  0  0
   -1.3341    4.5360    0.5919 C   0  0  0  0  0  0  0  0  0  0  0  0
    0.0869    3.3586   -1.0978 C   0  0  0  0  0  0  0  0  0  0  0  0
   -0.5975    0.8179   -1.3140 H   0  0  0  0  0  0  0  0  0  0  0  0
    1.1468    1.0939    1.0179 H   0  0  0  0  0  0  0  0  0  0  0  0
   -0.9202    2.2130    2.0355 H   0  0  0  0  0  0  0  0  0  0  0  0
   -1.7871    1.9084    0.5436 H   0  0  0  0  0  0  0  0  0  0  0  0
    0.6223    3.7545    0.9393 H   0  0  0  0  0  0  0  0  0  0  0  0
   -2.2573    4.2852    0.0588 H   0  0  0  0  0  0  0  0  0  0  0  0
   -0.9823    5.5007    0.2113 H   0  0  0  0  0  0  0  0  0  0  0  0
   -1.5777    4.6579    1.6529 H   0  0  0  0  0  0  0  0  0  0  0  0
   -0.7775    3.0568   -1.6990 H   0  0  0  0  0  0  0  0  0  0  0  0
    0.4370    4.3266   -1.4725 H   0  0  0  0  0  0  0  0  0  0  0  0
    0.8911    2.6370   -1.2688 H   0  0  0  0  0  0  0  0  0  0  0  0
   -1.7384   -0.1845    1.7636 N   0  0  0  0  0  0  0  0  0  0  0  0
   -2.4786   -1.2008    2.4763 C   0  0  2  0  0  0  0  0  0  0  0  0
   -1.5467   -1.8261    3.5059 C   0  0  0  0  0  0  0  0  0  0  0  0
   -0.3216   -1.7926    3.4097 O   0  0  0  0  0  0  0  0  0  0  0  0
   -3.0254   -2.2553    1.5268 C   0  0  0  0  0  0  0  0  0  0  0  0
   -2.2238    0.6800    1.5430 H   0  0  0  0  0  0  0  0  0  0  0  0
   -3.3015   -0.6914    2.9895 H   0  0  0  0  0  0  0  0  0  0  0  0
   -2.2155   -2.7764    1.0034 H   0  0  0  0  0  0  0  0  0  0  0  0
   -3.6099   -3.0089    2.0649 H   0  0  0  0  0  0  0  0  0  0  0  0
   -3.6718   -1.7997    0.7689 H   0  0  0  0  0  0  0  0  0  0  0  0
   -2.2444   -2.4635    4.5223 N   0  0  0  0  0  0  0  0  0  0  0  0
   -1.5854   -3.1440    5.6126 C   0  0  0  0  0  0  0  0  0  0  0  0
   -3.2594   -2.4247    4.5321 H   0  0  0  0  0  0  0  0  0  0  0  0
   -1.4569   -4.2064    5.3582 H   0  0  0  0  0  0  0  0  0  0  0  0
   -0.6002   -2.6873    5.7877 H   0  0  0  0  0  0  0  0  0  0  0  0
   -2.1971   -3.0563    6.5226 H   0  0  0  0  0  0  0  0  0  0  0  0
  1  3  1  0  0  0  0
  1  7  1  0  0  0  0
  1  2  2  0  0  0  0
 37 38  1  0  0  0  0
 38 46  1  0  0  0  0
 38 39  2  0  0  0  0
  8  9  1  0  0  0  0
  9 17  1  0  0  0  0
  9 10  2  0  0  0  0
 18 19  1  0  0  0  0
 19 36  1  0  0  0  0
 19 20  2  0  0  0  0
 37 40  1  0  0  0  0
  8 11  1  0  0  0  0
 22 23  1  0  0  0  0
 22 24  1  0  0  0  0
 46 47  1  0  0  0  0
 18 21  1  0  0  0  0
 21 22  1  0  0  0  0
 36 37  1  0  0  0  0
  7  8  1  0  0  0  0
 17 18  1  0  0  0  0
  3  4  1  0  0  0  0
  3  5  1  0  0  0  0
  3  6  1  0  0  0  0
 40 43  1  0  0  0  0
 40 44  1  0  0  0  0
 40 45  1  0  0  0  0
 11 14  1  0  0  0  0
 11 15  1  0  0  0  0
 11 16  1  0  0  0  0
 23 30  1  0  0  0  0
 23 31  1  0  0  0  0
 23 32  1  0  0  0  0
 24 33  1  0  0  0  0
 24 34  1  0  0  0  0
 24 35  1  0  0  0  0
 47 49  1  0  0  0  0
 47 50  1  0  0  0  0
 47 51  1  0  0  0  0
 21 27  1  0  0  0  0
 21 28  1  0  0  0  0
 37 42  1  0  0  0  0
  8 13  1  0  0  0  0
 18 26  1  0  0  0  0
 22 29  1  0  0  0  0
 46 48  1  0  0  0  0
  7 12  1  0  0  0  0
 36 41  1  0  0  0  0
 17 25  1  0  0  0  0
M  END
$$$$

  -OEChem-05262214473D

 51 50  0     1  0  0  0  0  0999 V2000
    3.4018   -1.2440   -3.0186 C   0  0  0  0  0  0  0  0  0  0  0  0
    3.2697   -2.0909   -2.1427 O   0  0  0  0  0  0  0  0  0  0  0  0
    4.6845   -1.1645   -3.7779 C   0  0  0  0  0  0  0  0  0  0  0  0
    5.4123   -0.4862   -3.3041 H   0  0  0  0  0  0  0  0  0  0  0  0
    5.1949   -2.1387   -3.8443 H   0  0  0  0  0  0  0  0  0  0  0  0
    4.5953   -0.8128   -4.8182 H   0  0  0  0  0  0  0  0  0  0  0  0
    2.4540   -0.3103   -3.4040 N   0  0  0  0  0  0  0  0  0  0  0  0
    1.1494   -0.2128   -2.8039 C   0  0  2  0  0  0  0  0  0  0  0  0
    1.3350    0.0367   -1.3130 C   0  0  0  0  0  0  0  0  0  0  0  0
    2.3625   -0.2586   -0.7063 O   0  0  0  0  0  0  0  0  0  0  0  0
    0.3331   -1.4728   -3.0467 C   0  0  0  0  0  0  0  0  0  0  0  0
    2.6924    0.3404   -4.1502 H   0  0  0  0  0  0  0  0  0  0  0  0
    0.6550    0.6514   -3.2607 H   0  0  0  0  0  0  0  0  0  0  0  0
    0.8129   -2.3494   -2.5963 H   0  0  0  0  0  0  0  0  0  0  0  0
   -0.6690   -1.3857   -2.6142 H   0  0  0  0  0  0  0  0  0  0  0  0
    0.2259   -1.6670   -4.1194 H   0  0  0  0  0  0  0  0  0  0  0  0
    0.2019    0.5893   -0.7269 N   0  0  0  0  0  0  0  0  0  0  0  0
    0.1242    0.9059    0.6756 C   0  0  2  0  0  0  0  0  0  0  0  0
   -0.4109   -0.3331    1.3867 C   0  0  0  0  0  0  0  0  0  0  0  0
    0.3199   -1.1981    1.8652 O   0  0  0  0  0  0  0  0  0  0  0  0
   -0.7867    2.1094    0.9494 C   0  0  0  0  0  0  0  0  0  0  0  0
   -0.2742    3.4503    0.3854 C   0  0  0  0  0  0  0  0  0  0  0  0
   -1.3341    4.5360    0.5919 C   0  0  0  0  0  0  0  0  0  0  0  0
    0.0869    3.3586   -1.0978 C   0  0  0  0  0  0  0  0  0  0  0  0
   -0.5975    0.8179   -1.3140 H   0  0  0  0  0  0  0  0  0  0  0  0
    1.1468    1.0939    1.0179 H   0  0  0  0  0  0  0  0  0  0  0  0
   -0.9202    2.2130    2.0355 H   0  0  0  0  0  0  0  0  0  0  0  0
   -1.7871    1.9084    0.5436 H   0  0  0  0  0  0  0  0  0  0  0  0
    0.6223    3.7545    0.9393 H   0  0  0  0  0  0  0  0  0  0  0  0
   -2.2573    4.2852    0.0588 H   0  0  0  0  0  0  0  0  0  0  0  0
   -0.9823    5.5007    0.2113 H   0  0  0  0  0  0  0  0  0  0  0  0
   -1.5777    4.6579    1.6529 H   0  0  0  0  0  0  0  0  0  0  0  0
   -0.7775    3.0568   -1.6990 H   0  0  0  0  0  0  0  0  0  0  0  0
    0.4370    4.3266   -1.4725 H   0  0  0  0  0  0  0  0  0  0  0  0
    0.8911    2.6370   -1.2688 H   0  0  0  0  0  0  0  0  0  0  0  0
   -1.7966   -0.3299    1.4664 N   0  0  0  0  0  0  0  0  0  0  0  0
   -2.5556   -1.3754    2.1141 C   0  0  2  0  0  0  0  0  0  0  0  0
   -1.8044   -1.7918    3.3718 C   0  0  0  0  0  0  0  0  0  0  0  0
   -0.5990   -1.6065    3.5254 O   0  0  0  0  0  0  0  0  0  0  0  0
   -2.7643   -2.5629    1.1873 C   0  0  0  0  0  0  0  0  0  0  0  0
   -2.3158    0.4441    1.0627 H   0  0  0  0  0  0  0  0  0  0  0  0
   -3.5212   -0.9392    2.3923 H   0  0  0  0  0  0  0  0  0  0  0  0
   -1.8078   -3.0132    0.8977 H   0  0  0  0  0  0  0  0  0  0  0  0
   -3.3638   -3.3421    1.6695 H   0  0  0  0  0  0  0  0  0  0  0  0
   -3.2783   -2.2558    0.2701 H   0  0  0  0  0  0  0  0  0  0  0  0
   -2.6299   -2.4336    4.2844 N   0  0  0  0  0  0  0  0  0  0  0  0
   -2.1504   -2.9354    5.5509 C   0  0  0  0  0  0  0  0  0  0  0  0
   -3.6210   -2.5268    4.0822 H   0  0  0  0  0  0  0  0  0  0  0  0
   -1.8530   -3.9886    5.4398 H   0  0  0  0  0  0  0  0  0  0  0  0
   -1.2830   -2.3419    5.8756 H   0  0  0  0  0  0  0  0  0  0  0  0
   -2.9499   -2.8576    6.3024 H   0  0  0  0  0  0  0  0  0  0  0  0
  1  3  1  0  0  0  0
  1  7  1  0  0  0  0
  1  2  2  0  0  0  0
 37 38  1  0  0  0  0
 38 46  1  0  0  0  0
 38 39  2  0  0  0  0
  8  9  1  0  0  0  0
  9 17  1  0  0  0  0
  9 10  2  0  0  0  0
 18 19  1  0  0  0  0
 19 36  1  0  0  0  0
 19 20  2  0  0  0  0
 37 40  1  0  0  0  0
  8 11  1  0  0  0  0
 22 23  1  0  0  0  0
 22 24  1  0  0  0  0
 46 47  1  0  0  0  0
 18 21  1  0  0  0  0
 21 22  1  0  0  0  0
 36 37  1  0  0  0  0
  7  8  1  0  0  0  0
 17 18  1  0  0  0  0
  3  4  1  0  0  0  0
  3  5  1  0  0  0  0
  3  6  1  0  0  0  0
 40 43  1  0  0  0  0
 40 44  1  0  0  0  0
 40 45  1  0  0  0  0
 11 14  1  0  0  0  0
 11 15  1  0  0  0  0
 11 16  1  0  0  0  0
 23 30  1  0  0  0  0
 23 31  1  0  0  0  0
 23 32  1  0  0  0  0
 24 33  1  0  0  0  0
 24 34  1  0  0  0  0
 24 35  1  0  0  0  0
 47 49  1  0  0  0  0
 47 50  1  0  0  0  0
 47 51  1  0  0  0  0
 21 27  1  0  0  0  0
 21 28  1  0  0  0  0
 37 42  1  0  0  0  0
  8 13  1  0  0  0  0
 18 26  1  0  0  0  0
 22 29  1  0  0  0  0
 46 48  1  0  0  0  0
  7 12  1  0  0  0  0
 36 41  1  0  0  0  0
 17 25  1  0  0  0  0
M  END
$$$$

  -OEChem-05262214473D

 51 50  0     1  0  0  0  0  0999 V2000
    3.4018   -1.2440   -3.0186 C   0  0  0  0  0  0  0  0  0  0  0  0
    3.2697   -2.0909   -2.1427 O   0  0  0  0  0  0  0  0  0  0  0  0
    4.6845   -1.1645   -3.7779 C   0  0  0  0  0  0  0  0  0  0  0  0
    5.4123   -0.4862   -3.3041 H   0  0  0  0  0  0  0  0  0  0  0  0
    5.1949   -2.1387   -3.8443 H   0  0  0  0  0  0  0  0  0  0  0  0
    4.5953   -0.8128   -4.8182 H   0  0  0  0  0  0  0  0  0  0  0  0
    2.4540   -0.3103   -3.4040 N   0  0  0  0  0  0  0  0  0  0  0  0
    1.1494   -0.2128   -2.8039 C   0  0  2  0  0  0  0  0  0  0  0  0
    1.3350    0.0367   -1.3130 C   0  0  0  0  0  0  0  0  0  0  0  0
    2.3625   -0.2586   -0.7063 O   0  0  0  0  0  0  0  0  0  0  0  0
    0.3331   -1.4728   -3.0467 C   0  0  0  0  0  0  0  0  0  0  0  0
    2.6924    0.3404   -4.1502 H   0  0  0  0  0  0  0  0  0  0  0  0
    0.6550    0.6514   -3.2607 H   0  0  0  0  0  0  0  0  0  0  0  0
    0.8129   -2.3494   -2.5963 H   0  0  0  0  0  0  0  0  0  0  0  0
   -0.6690   -1.3857   -2.6142 H   0  0  0  0  0  0  0  0  0  0  0  0
    0.2259   -1.6670   -4.1194 H   0  0  0  0  0  0  0  0  0  0  0  0
    0.2019    0.5893   -0.7269 N   0  0  0  0  0  0  0  0  0  0  0  0
    0.1242    0.9059    0.6756 C   0  0  2  0  0  0  0  0  0  0  0  0
   -0.4109   -0.3331    1.3867 C   0  0  0  0  0  0  0  0  0  0  0  0
    0.2908   -1.0555    2.0917 O   0  0  0  0  0  0  0  0  0  0  0  0
   -0.7867    2.1094    0.9494 C   0  0  0  0  0  0  0  0  0  0  0  0
   -0.2742    3.4503    0.3854 C   0  0  0  0  0  0  0  0  0  0  0  0
   -1.3341    4.5360    0.5919 C   0  0  0  0  0  0  0  0  0  0  0  0
    0.0869    3.3586   -1.0978 C   0  0  0  0  0  0  0  0  0  0  0  0
   -0.5975    0.8179   -1.3140 H   0  0  0  0  0  0  0  0  0  0  0  0
    1.1468    1.0939    1.0179 H   0  0  0  0  0  0  0  0  0  0  0  0
   -0.9202    2.2130    2.0355 H   0  0  0  0  0  0  0  0  0  0  0  0
   -1.7871    1.9084    0.5436 H   0  0  0  0  0  0  0  0  0  0  0  0
    0.6223    3.7545    0.9393 H   0  0  0  0  0  0  0  0  0  0  0  0
   -2.2573    4.2852    0.0588 H   0  0  0  0  0  0  0  0  0  0  0  0
   -0.9823    5.5007    0.2113 H   0  0  0  0  0  0  0  0  0  0  0  0
   -1.5777    4.6579    1.6529 H   0  0  0  0  0  0  0  0  0  0  0  0
   -0.7775    3.0568   -1.6990 H   0  0  0  0  0  0  0  0  0  0  0  0
    0.4370    4.3266   -1.4725 H   0  0  0  0  0  0  0  0  0  0  0  0
    0.8911    2.6370   -1.2688 H   0  0  0  0  0  0  0  0  0  0  0  0
   -1.7728   -0.5044    1.1804 N   0  0  0  0  0  0  0  0  0  0  0  0
   -2.5329   -1.5862    1.7638 C   0  0  2  0  0  0  0  0  0  0  0  0
   -2.0293   -1.8020    3.1849 C   0  0  0  0  0  0  0  0  0  0  0  0
   -0.9136   -1.4497    3.5619 O   0  0  0  0  0  0  0  0  0  0  0  0
   -2.4036   -2.8594    0.9422 C   0  0  0  0  0  0  0  0  0  0  0  0
   -2.2752    0.1616    0.6010 H   0  0  0  0  0  0  0  0  0  0  0  0
   -3.5780   -1.2593    1.7918 H   0  0  0  0  0  0  0  0  0  0  0  0
   -1.3632   -3.2023    0.9027 H   0  0  0  0  0  0  0  0  0  0  0  0
   -3.0028   -3.6701    1.3697 H   0  0  0  0  0  0  0  0  0  0  0  0
   -2.7384   -2.6943   -0.0876 H   0  0  0  0  0  0  0  0  0  0  0  0
   -2.9559   -2.4728    3.9707 N   0  0  0  0  0  0  0  0  0  0  0  0
   -2.7083   -2.8076    5.3537 C   0  0  0  0  0  0  0  0  0  0  0  0
   -3.8633   -2.7099    3.5808 H   0  0  0  0  0  0  0  0  0  0  0  0
   -2.2790   -3.8185    5.4155 H   0  0  0  0  0  0  0  0  0  0  0  0
   -2.0028   -2.0827    5.7857 H   0  0  0  0  0  0  0  0  0  0  0  0
   -3.6547   -2.7765    5.9134 H   0  0  0  0  0  0  0  0  0  0  0  0
  1  3  1  0  0  0  0
  1  7  1  0  0  0  0
  1  2  2  0  0  0  0
 37 38  1  0  0  0  0
 38 46  1  0  0  0  0
 38 39  2  0  0  0  0
  8  9  1  0  0  0  0
  9 17  1  0  0  0  0
  9 10  2  0  0  0  0
 18 19  1  0  0  0  0
 19 36  1  0  0  0  0
 19 20  2  0  0  0  0
 37 40  1  0  0  0  0
  8 11  1  0  0  0  0
 22 23  1  0  0  0  0
 22 24  1  0  0  0  0
 46 47  1  0  0  0  0
 18 21  1  0  0  0  0
 21 22  1  0  0  0  0
 36 37  1  0  0  0  0
  7  8  1  0  0  0  0
 17 18  1  0  0  0  0
  3  4  1  0  0  0  0
  3  5  1  0  0  0  0
  3  6  1  0  0  0  0
 40 43  1  0  0  0  0
 40 44  1  0  0  0  0
 40 45  1  0  0  0  0
 11 14  1  0  0  0  0
 11 15  1  0  0  0  0
 11 16  1  0  0  0  0
 23 30  1  0  0  0  0
 23 31  1  0  0  0  0
 23 32  1  0  0  0  0
 24 33  1  0  0  0  0
 24 34  1  0  0  0  0
 24 35  1  0  0  0  0
 47 49  1  0  0  0  0
 47 50  1  0  0  0  0
 47 51  1  0  0  0  0
 21 27  1  0  0  0  0
 21 28  1  0  0  0  0
 37 42  1  0  0  0  0
  8 13  1  0  0  0  0
 18 26  1  0  0  0  0
 22 29  1  0  0  0  0
 46 48  1  0  0  0  0
  7 12  1  0  0  0  0
 36 41  1  0  0  0  0
 17 25  1  0  0  0  0
M  END
$$$$

  -OEChem-05262214473D

 51 50  0     1  0  0  0  0  0999 V2000
    3.4018   -1.2440   -3.0186 C   0  0  0  0  0  0  0  0  0  0  0  0
    3.2697   -2.0909   -2.1427 O   0  0  0  0  0  0  0  0  0  0  0  0
    4.6845   -1.1645   -3.7779 C   0  0  0  0  0  0  0  0  0  0  0  0
    5.4123   -0.4862   -3.3041 H   0  0  0  0  0  0  0  0  0  0  0  0
    5.1949   -2.1387   -3.8443 H   0  0  0  0  0  0  0  0  0  0  0  0
    4.5953   -0.8128   -4.8182 H   0  0  0  0  0  0  0  0  0  0  0  0
    2.4540   -0.3103   -3.4040 N   0  0  0  0  0  0  0  0  0  0  0  0
    1.1494   -0.2128   -2.8039 C   0  0  2  0  0  0  0  0  0  0  0  0
    1.3350    0.0367   -1.3130 C   0  0  0  0  0  0  0  0  0  0  0  0
    2.3625   -0.2586   -0.7063 O   0  0  0  0  0  0  0  0  0  0  0  0
    0.3331   -1.4728   -3.0467 C   0  0  0  0  0  0  0  0  0  0  0  0
    2.6924    0.3404   -4.1502 H   0  0  0  0  0  0  0  0  0  0  0  0
    0.6550    0.6514   -3.2607 H   0  0  0  0  0  0  0  0  0  0  0  0
    0.8129   -2.3494   -2.5963 H   0  0  0  0  0  0  0  0  0  0  0  0
   -0.6690   -1.3857   -2.6142 H   0  0  0  0  0  0  0  0  0  0  0  0
    0.2259   -1.6670   -4.1194 H   0  0  0  0  0  0  0  0  0  0  0  0
    0.2019    0.5893   -0.7269 N   0  0  0  0  0  0  0  0  0  0  0  0
    0.1242    0.9059    0.6756 C   0  0  2  0  0  0  0  0  0  0  0  0
   -0.4109   -0.3331    1.3867 C   0  0  0  0  0  0  0  0  0  0  0  0
    0.1978   -0.9008    2.2914 O   0  0  0  0  0  0  0  0  0  0  0  0
   -0.7867    2.1094    0.9494 C   0  0  0  0  0  0  0  0  0  0  0  0
   -0.2742    3.4503    0.3854 C   0  0  0  0  0  0  0  0  0  0  0  0
   -1.3341    4.5360    0.5919 C   0  0  0  0  0  0  0  0  0  0  0  0
    0.0869    3.3586   -1.0978 C   0  0  0  0  0  0  0  0  0  0  0  0
   -0.5975    0.8179   -1.3140 H   0  0  0  0  0  0  0  0  0  0  0  0
    1.1468    1.0939    1.0179 H   0  0  0  0  0  0  0  0  0  0  0  0
   -0.9202    2.2130    2.0355 H   0  0  0  0  0  0  0  0  0  0  0  0
   -1.7871    1.9084    0.5436 H   0  0  0  0  0  0  0  0  0  0  0  0
    0.6223    3.7545    0.9393 H   0  0  0  0  0  0  0  0  0  0  0  0
   -2.2573    4.2852    0.0588 H   0  0  0  0  0  0  0  0  0  0  0  0
   -0.9823    5.5007    0.2113 H   0  0  0  0  0  0  0  0  0  0  0  0
   -1.5777    4.6579    1.6529 H   0  0  0  0  0  0  0  0  0  0  0  0
   -0.7775    3.0568   -1.6990 H   0  0  0  0  0  0  0  0  0  0  0  0
    0.4370    4.3266   -1.4725 H   0  0  0  0  0  0  0  0  0  0  0  0
    0.8911    2.6370   -1.2688 H   0  0  0  0  0  0  0  0  0  0  0  0
   -1.6686   -0.6960    0.9250 N   0  0  0  0  0  0  0  0  0  0  0  0
   -2.4119   -1.8189    1.4494 C   0  0  2  0  0  0  0  0  0  0  0  0
   -2.2060   -1.8559    2.9580 C   0  0  0  0  0  0  0  0  0  0  0  0
   -1.2441   -1.3328    3.5167 O   0  0  0  0  0  0  0  0  0  0  0  0
   -1.9679   -3.1244    0.8082 C   0  0  0  0  0  0  0  0  0  0  0  0
   -2.1048   -0.1484    0.1891 H   0  0  0  0  0  0  0  0  0  0  0  0
   -3.4681   -1.6298    1.2289 H   0  0  0  0  0  0  0  0  0  0  0  0
   -0.9120   -3.3308    1.0182 H   0  0  0  0  0  0  0  0  0  0  0  0
   -2.5515   -3.9705    1.1857 H   0  0  0  0  0  0  0  0  0  0  0  0
   -2.0888   -3.0851   -0.2798 H   0  0  0  0  0  0  0  0  0  0  0  0
   -3.2001   -2.5785    3.6028 N   0  0  0  0  0  0  0  0  0  0  0  0
   -3.2212   -2.7695    5.0343 C   0  0  0  0  0  0  0  0  0  0  0  0
   -3.9700   -2.9615    3.0622 H   0  0  0  0  0  0  0  0  0  0  0  0
   -2.7059   -3.7078    5.2872 H   0  0  0  0  0  0  0  0  0  0  0  0
   -2.7103   -1.9273    5.5240 H   0  0  0  0  0  0  0  0  0  0  0  0
   -4.2635   -2.8185    5.3822 H   0  0  0  0  0  0  0  0  0  0  0  0
  1  3  1  0  0  0  0
  1  7  1  0  0  0  0
  1  2  2  0  0  0  0
 37 38  1  0  0  0  0
 38 46  1  0  0  0  0
 38 39  2  0  0  0  0
  8  9  1  0  0  0  0
  9 17  1  0  0  0  0
  9 10  2  0  0  0  0
 18 19  1  0  0  0  0
 19 36  1  0  0  0  0
 19 20  2  0  0  0  0
 37 40  1  0  0  0  0
  8 11  1  0  0  0  0
 22 23  1  0  0  0  0
 22 24  1  0  0  0  0
 46 47  1  0  0  0  0
 18 21  1  0  0  0  0
 21 22  1  0  0  0  0
 36 37  1  0  0  0  0
  7  8  1  0  0  0  0
 17 18  1  0  0  0  0
  3  4  1  0  0  0  0
  3  5  1  0  0  0  0
  3  6  1  0  0  0  0
 40 43  1  0  0  0  0
 40 44  1  0  0  0  0
 40 45  1  0  0  0  0
 11 14  1  0  0  0  0
 11 15  1  0  0  0  0
 11 16  1  0  0  0  0
 23 30  1  0  0  0  0
 23 31  1  0  0  0  0
 23 32  1  0  0  0  0
 24 33  1  0  0  0  0
 24 34  1  0  0  0  0
 24 35  1  0  0  0  0
 47 49  1  0  0  0  0
 47 50  1  0  0  0  0
 47 51  1  0  0  0  0
 21 27  1  0  0  0  0
 21 28  1  0  0  0  0
 37 42  1  0  0  0  0
  8 13  1  0  0  0  0
 18 26  1  0  0  0  0
 22 29  1  0  0  0  0
 46 48  1  0  0  0  0
  7 12  1  0  0  0  0
 36 41  1  0  0  0  0
 17 25  1  0  0  0  0
M  END
$$$$

  -OEChem-05262214473D

 51 50  0     1  0  0  0  0  0999 V2000
    3.4018   -1.2440   -3.0186 C   0  0  0  0  0  0  0  0  0  0  0  0
    3.2697   -2.0909   -2.1427 O   0  0  0  0  0  0  0  0  0  0  0  0
    4.6845   -1.1645   -3.7779 C   0  0  0  0  0  0  0  0  0  0  0  0
    5.4123   -0.4862   -3.3041 H   0  0  0  0  0  0  0  0  0  0  0  0
    5.1949   -2.1387   -3.8443 H   0  0  0  0  0  0  0  0  0  0  0  0
    4.5953   -0.8128   -4.8182 H   0  0  0  0  0  0  0  0  0  0  0  0
    2.4540   -0.3103   -3.4040 N   0  0  0  0  0  0  0  0  0  0  0  0
    1.1494   -0.2128   -2.8039 C   0  0  2  0  0  0  0  0  0  0  0  0
    1.3350    0.0367   -1.3130 C   0  0  0  0  0  0  0  0  0  0  0  0
    2.3625   -0.2586   -0.7063 O   0  0  0  0  0  0  0  0  0  0  0  0
    0.3331   -1.4728   -3.0467 C   0  0  0  0  0  0  0  0  0  0  0  0
    2.6924    0.3404   -4.1502 H   0  0  0  0  0  0  0  0  0  0  0  0
    0.6550    0.6514   -3.2607 H   0  0  0  0  0  0  0  0  0  0  0  0
    0.8129   -2.3494   -2.5963 H   0  0  0  0  0  0  0  0  0  0  0  0
   -0.6690   -1.3857   -2.6142 H   0  0  0  0  0  0  0  0  0  0  0  0
    0.2259   -1.6670   -4.1194 H   0  0  0  0  0  0  0  0  0  0  0  0
    0.2019    0.5893   -0.7269 N   0  0  0  0  0  0  0  0  0  0  0  0
    0.1242    0.9059    0.6756 C   0  0  2  0  0  0  0  0  0  0  0  0
   -0.4109   -0.3331    1.3867 C   0  0  0  0  0  0  0  0  0  0  0  0
    0.0474   -0.7444    2.4506 O   0  0  0  0  0  0  0  0  0  0  0  0
   -0.7867    2.1094    0.9494 C   0  0  0  0  0  0  0  0  0  0  0  0
   -0.2742    3.4503    0.3854 C   0  0  0  0  0  0  0  0  0  0  0  0
   -1.3341    4.5360    0.5919 C   0  0  0  0  0  0  0  0  0  0  0  0
    0.0869    3.3586   -1.0978 C   0  0  0  0  0  0  0  0  0  0  0  0
   -0.5975    0.8179   -1.3140 H   0  0  0  0  0  0  0  0  0  0  0  0
    1.1468    1.0939    1.0179 H   0  0  0  0  0  0  0  0  0  0  0  0
   -0.9202    2.2130    2.0355 H   0  0  0  0  0  0  0  0  0  0  0  0
   -1.7871    1.9084    0.5436 H   0  0  0  0  0  0  0  0  0  0  0  0
    0.6223    3.7545    0.9393 H   0  0  0  0  0  0  0  0  0  0  0  0
   -2.2573    4.2852    0.0588 H   0  0  0  0  0  0  0  0  0  0  0  0
   -0.9823    5.5007    0.2113 H   0  0  0  0  0  0  0  0  0  0  0  0
   -1.5777    4.6579    1.6529 H   0  0  0  0  0  0  0  0  0  0  0  0
   -0.7775    3.0568   -1.6990 H   0  0  0  0  0  0  0  0  0  0  0  0
    0.4370    4.3266   -1.4725 H   0  0  0  0  0  0  0  0  0  0  0  0
    0.8911    2.6370   -1.2688 H   0  0  0  0  0  0  0  0  0  0  0  0
   -1.4911   -0.8916    0.7175 N   0  0  0  0  0  0  0  0  0  0  0  0
   -2.2008   -2.0576    1.1923 C   0  0  2  0  0  0  0  0  0  0  0  0
   -2.3225   -1.9498    2.7066 C   0  0  0  0  0  0  0  0  0  0  0  0
   -1.5679   -1.2640    3.3931 O   0  0  0  0  0  0  0  0  0  0  0  0
   -1.4868   -3.3401    0.7944 C   0  0  0  0  0  0  0  0  0  0  0  0
   -1.8163   -0.4646   -0.1448 H   0  0  0  0  0  0  0  0  0  0  0  0
   -3.1988   -2.0256    0.7419 H   0  0  0  0  0  0  0  0  0  0  0  0
   -0.4850   -3.3901    1.2363 H   0  0  0  0  0  0  0  0  0  0  0  0
   -2.0406   -4.2231    1.1301 H   0  0  0  0  0  0  0  0  0  0  0  0
   -1.3737   -3.4017   -0.2934 H   0  0  0  0  0  0  0  0  0  0  0  0
   -3.3458   -2.7435    3.2057 N   0  0  0  0  0  0  0  0  0  0  0  0
   -3.6540   -2.8235    4.6145 C   0  0  0  0  0  0  0  0  0  0  0  0
   -3.9336   -3.2645    2.5617 H   0  0  0  0  0  0  0  0  0  0  0  0
   -3.1046   -3.6641    5.0634 H   0  0  0  0  0  0  0  0  0  0  0  0
   -3.3576   -1.8864    5.1084 H   0  0  0  0  0  0  0  0  0  0  0  0
   -4.7349   -2.9807    4.7449 H   0  0  0  0  0  0  0  0  0  0  0  0
  1  3  1  0  0  0  0
  1  7  1  0  0  0  0
  1  2  2  0  0  0  0
 37 38  1  0  0  0  0
 38 46  1  0  0  0  0
 38 39  2  0  0  0  0
  8  9  1  0  0  0  0
  9 17  1  0  0  0  0
  9 10  2  0  0  0  0
 18 19  1  0  0  0  0
 19 36  1  0  0  0  0
 19 20  2  0  0  0  0
 37 40  1  0  0  0  0
  8 11  1  0  0  0  0
 22 23  1  0  0  0  0
 22 24  1  0  0  0  0
 46 47  1  0  0  0  0
 18 21  1  0  0  0  0
 21 22  1  0  0  0  0
 36 37  1  0  0  0  0
  7  8  1  0  0  0  0
 17 18  1  0  0  0  0
  3  4  1  0  0  0  0
  3  5  1  0  0  0  0
  3  6  1  0  0  0  0
 40 43  1  0  0  0  0
 40 44  1  0  0  0  0
 40 45  1  0  0  0  0
 11 14  1  0  0  0  0
 11 15  1  0  0  0  0
 11 16  1  0  0  0  0
 23 30  1  0  0  0  0
 23 31  1  0  0  0  0
 23 32  1  0  0  0  0
 24 33  1  0  0  0  0
 24 34  1  0  0  0  0
 24 35  1  0  0  0  0
 47 49  1  0  0  0  0
 47 50  1  0  0  0  0
 47 51  1  0  0  0  0
 21 27  1  0  0  0  0
 21 28  1  0  0  0  0
 37 42  1  0  0  0  0
  8 13  1  0  0  0  0
 18 26  1  0  0  0  0
 22 29  1  0  0  0  0
 46 48  1  0  0  0  0
  7 12  1  0  0  0  0
 36 41  1  0  0  0  0
 17 25  1  0  0  0  0
M  END
$$$$

  -OEChem-05262214473D

 51 50  0     1  0  0  0  0  0999 V2000
    3.4018   -1.2440   -3.0186 C   0  0  0  0  0  0  0  0  0  0  0  0
    3.2697   -2.0909   -2.1427 O   0  0  0  0  0  0  0  0  0  0  0  0
    4.6845   -1.1645   -3.7779 C   0  0  0  0  0  0  0  0  0  0  0  0
    5.4123   -0.4862   -3.3041 H   0  0  0  0  0  0  0  0  0  0  0  0
    5.1949   -2.1387   -3.8443 H   0  0  0  0  0  0  0  0  0  0  0  0
    4.5953   -0.8128   -4.8182 H   0  0  0  0  0  0  0  0  0  0  0  0
    2.4540   -0.3103   -3.4040 N   0  0  0  0  0  0  0  0  0  0  0  0
    1.1494   -0.2128   -2.8039 C   0  0  2  0  0  0  0  0  0  0  0  0
    1.3350    0.0367   -1.3130 C   0  0  0  0  0  0  0  0  0  0  0  0
    2.3625   -0.2586   -0.7063 O   0  0  0  0  0  0  0  0  0  0  0  0
    0.3331   -1.4728   -3.0467 C   0  0  0  0  0  0  0  0  0  0  0  0
    2.6924    0.3404   -4.1502 H   0  0  0  0  0  0  0  0  0  0  0  0
    0.6550    0.6514   -3.2607 H   0  0  0  0  0  0  0  0  0  0  0  0
    0.8129   -2.3494   -2.5963 H   0  0  0  0  0  0  0  0  0  0  0  0
   -0.6690   -1.3857   -2.6142 H   0  0  0  0  0  0  0  0  0  0  0  0
    0.2259   -1.6670   -4.1194 H   0  0  0  0  0  0  0  0  0  0  0  0
    0.2019    0.5893   -0.7269 N   0  0  0  0  0  0  0  0  0  0  0  0
    0.1242    0.9059    0.6756 C   0  0  2  0  0  0  0  0  0  0  0  0
   -0.4109   -0.3331    1.3867 C   0  0  0  0  0  0  0  0  0  0  0  0
   -0.1503   -0.5970    2.5587 O   0  0  0  0  0  0  0  0  0  0  0  0
   -0.7867    2.1094    0.9494 C   0  0  0  0  0  0  0  0  0  0  0  0
   -0.2742    3.4503    0.3854 C   0  0  0  0  0  0  0  0  0  0  0  0
   -1.3341    4.5360    0.5919 C   0  0  0  0  0  0  0  0  0  0  0  0
    0.0869    3.3586   -1.0978 C   0  0  0  0  0  0  0  0  0  0  0  0
   -0.5975    0.8179   -1.3140 H   0  0  0  0  0  0  0  0  0  0  0  0
    1.1468    1.0939    1.0179 H   0  0  0  0  0  0  0  0  0  0  0  0
   -0.9202    2.2130    2.0355 H   0  0  0  0  0  0  0  0  0  0  0  0
   -1.7871    1.9084    0.5436 H   0  0  0  0  0  0  0  0  0  0  0  0
    0.6223    3.7545    0.9393 H   0  0  0  0  0  0  0  0  0  0  0  0
   -2.2573    4.2852    0.0588 H   0  0  0  0  0  0  0  0  0  0  0  0
   -0.9823    5.5007    0.2113 H   0  0  0  0  0  0  0  0  0  0  0  0
   -1.5777    4.6579    1.6529 H   0  0  0  0  0  0  0  0  0  0  0  0
   -0.7775    3.0568   -1.6990 H   0  0  0  0  0  0  0  0  0  0  0  0
    0.4370    4.3266   -1.4725 H   0  0  0  0  0  0  0  0  0  0  0  0
    0.8911    2.6370   -1.2688 H   0  0  0  0  0  0  0  0  0  0  0  0
   -1.2525   -1.0781    0.5722 N   0  0  0  0  0  0  0  0  0  0  0  0
   -1.9140   -2.2861    1.0100 C   0  0  2  0  0  0  0  0  0  0  0  0
   -2.3709   -2.0775    2.4478 C   0  0  0  0  0  0  0  0  0  0  0  0
   -1.8630   -1.2477    3.1993 O   0  0  0  0  0  0  0  0  0  0  0  0
   -0.9933   -3.4916    0.9017 C   0  0  0  0  0  0  0  0  0  0  0  0
   -1.4292   -0.7655   -0.3779 H   0  0  0  0  0  0  0  0  0  0  0  0
   -2.7886   -2.4196    0.3640 H   0  0  0  0  0  0  0  0  0  0  0  0
   -0.1112   -3.3760    1.5421 H   0  0  0  0  0  0  0  0  0  0  0  0
   -1.5050   -4.4104    1.2067 H   0  0  0  0  0  0  0  0  0  0  0  0
   -0.6420   -3.6225   -0.1275 H   0  0  0  0  0  0  0  0  0  0  0  0
   -3.3833   -2.9564    2.8065 N   0  0  0  0  0  0  0  0  0  0  0  0
   -3.9773   -2.9660    4.1229 C   0  0  0  0  0  0  0  0  0  0  0  0
   -3.7567   -3.5982    2.1133 H   0  0  0  0  0  0  0  0  0  0  0  0
   -3.4479   -3.6903    4.7594 H   0  0  0  0  0  0  0  0  0  0  0  0
   -3.9003   -1.9626    4.5671 H   0  0  0  0  0  0  0  0  0  0  0  0
   -5.0366   -3.2521    4.0450 H   0  0  0  0  0  0  0  0  0  0  0  0
  1  3  1  0  0  0  0
  1  7  1  0  0  0  0
  1  2  2  0  0  0  0
 37 38  1  0  0  0  0
 38 46  1  0  0  0  0
 38 39  2  0  0  0  0
  8  9  1  0  0  0  0
  9 17  1  0  0  0  0
  9 10  2  0  0  0  0
 18 19  1  0  0  0  0
 19 36  1  0  0  0  0
 19 20  2  0  0  0  0
 37 40  1  0  0  0  0
  8 11  1  0  0  0  0
 22 23  1  0  0  0  0
 22 24  1  0  0  0  0
 46 47  1  0  0  0  0
 18 21  1  0  0  0  0
 21 22  1  0  0  0  0
 36 37  1  0  0  0  0
  7  8  1  0  0  0  0
 17 18  1  0  0  0  0
  3  4  1  0  0  0  0
  3  5  1  0  0  0  0
  3  6  1  0  0  0  0
 40 43  1  0  0  0  0
 40 44  1  0  0  0  0
 40 45  1  0  0  0  0
 11 14  1  0  0  0  0
 11 15  1  0  0  0  0
 11 16  1  0  0  0  0
 23 30  1  0  0  0  0
 23 31  1  0  0  0  0
 23 32  1  0  0  0  0
 24 33  1  0  0  0  0
 24 34  1  0  0  0  0
 24 35  1  0  0  0  0
 47 49  1  0  0  0  0
 47 50  1  0  0  0  0
 47 51  1  0  0  0  0
 21 27  1  0  0  0  0
 21 28  1  0  0  0  0
 37 42  1  0  0  0  0
  8 13  1  0  0  0  0
 18 26  1  0  0  0  0
 22 29  1  0  0  0  0
 46 48  1  0  0  0  0
  7 12  1  0  0  0  0
 36 41  1  0  0  0  0
 17 25  1  0  0  0  0
M  END
$$$$

  -OEChem-05262214473D

 51 50  0     1  0  0  0  0  0999 V2000
    3.4018   -1.2440   -3.0186 C   0  0  0  0  0  0  0  0  0  0  0  0
    3.2697   -2.0909   -2.1427 O   0  0  0  0  0  0  0  0  0  0  0  0
    4.6845   -1.1645   -3.7779 C   0  0  0  0  0  0  0  0  0  0  0  0
    5.4123   -0.4862   -3.3041 H   0  0  0  0  0  0  0  0  0  0  0  0
    5.1949   -2.1387   -3.8443 H   0  0  0  0  0  0  0  0  0  0  0  0
    4.5953   -0.8128   -4.8182 H   0  0  0  0  0  0  0  0  0  0  0  0
    2.4540   -0.3103   -3.4040 N   0  0  0  0  0  0  0  0  0  0  0  0
    1.1494   -0.2128   -2.8039 C   0  0  2  0  0  0  0  0  0  0  0  0
    1.3350    0.0367   -1.3130 C   0  0  0  0  0  0  0  0  0  0  0  0
    2.3625   -0.2586   -0.7063 O   0  0  0  0  0  0  0  0  0  0  0  0
    0.3331   -1.4728   -3.0467 C   0  0  0  0  0  0  0  0  0  0  0  0
    2.6924    0.3404   -4.1502 H   0  0  0  0  0  0  0  0  0  0  0  0
    0.6550    0.6514   -3.2607 H   0  0  0  0  0  0  0  0  0  0  0  0
    0.8129   -2.3494   -2.5963 H   0  0  0  0  0  0  0  0  0  0  0  0
   -0.6690   -1.3857   -2.6142 H   0  0  0  0  0  0  0  0  0  0  0  0
    0.2259   -1.6670   -4.1194 H   0  0  0  0  0  0  0  0  0  0  0  0
    0.2019    0.5893   -0.7269 N   0  0  0  0  0  0  0  0  0  0  0  0
    0.1242    0.9059    0.6756 C   0  0  2  0  0  0  0  0  0  0  0  0
   -0.4109   -0.3331    1.3867 C   0  0  0  0  0  0  0  0  0  0  0  0
   -0.3817   -0.4687    2.6081 O   0  0  0  0  0  0  0  0  0  0  0  0
   -0.7867    2.1094    0.9494 C   0  0  0  0  0  0  0  0  0  0  0  0
   -0.2742    3.4503    0.3854 C   0  0  0  0  0  0  0  0  0  0  0  0
   -1.3341    4.5360    0.5919 C   0  0  0  0  0  0  0  0  0  0  0  0
    0.0869    3.3586   -1.0978 C   0  0  0  0  0  0  0  0  0  0  0  0
   -0.5975    0.8179   -1.3140 H   0  0  0  0  0  0  0  0  0  0  0  0
    1.1468    1.0939    1.0179 H   0  0  0  0  0  0  0  0  0  0  0  0
   -0.9202    2.2130    2.0355 H   0  0  0  0  0  0  0  0  0  0  0  0
   -1.7871    1.9084    0.5436 H   0  0  0  0  0  0  0  0  0  0  0  0
    0.6223    3.7545    0.9393 H   0  0  0  0  0  0  0  0  0  0  0  0
   -2.2573    4.2852    0.0588 H   0  0  0  0  0  0  0  0  0  0  0  0
   -0.9823    5.5007    0.2113 H   0  0  0  0  0  0  0  0  0  0  0  0
   -1.5777    4.6579    1.6529 H   0  0  0  0  0  0  0  0  0  0  0  0
   -0.7775    3.0568   -1.6990 H   0  0  0  0  0  0  0  0  0  0  0  0
    0.4370    4.3266   -1.4725 H   0  0  0  0  0  0  0  0  0  0  0  0
    0.8911    2.6370   -1.2688 H   0  0  0  0  0  0  0  0  0  0  0  0
   -0.9689   -1.2426    0.4989 N   0  0  0  0  0  0  0  0  0  0  0  0
   -1.5712   -2.4887    0.9149 C   0  0  2  0  0  0  0  0  0  0  0  0
   -2.3478   -2.2301    2.1993 C   0  0  0  0  0  0  0  0  0  0  0  0
   -2.1093   -1.2853    2.9486 O   0  0  0  0  0  0  0  0  0  0  0  0
   -0.5208   -3.5686    1.1229 C   0  0  0  0  0  0  0  0  0  0  0  0
   -0.9701   -1.0307   -0.4944 H   0  0  0  0  0  0  0  0  0  0  0  0
   -2.2655   -2.7850    0.1210 H   0  0  0  0  0  0  0  0  0  0  0  0
    0.1839   -3.2896    1.9147 H   0  0  0  0  0  0  0  0  0  0  0  0
   -0.9811   -4.5197    1.4104 H   0  0  0  0  0  0  0  0  0  0  0  0
    0.0566   -3.7324    0.2066 H   0  0  0  0  0  0  0  0  0  0  0  0
   -3.3098   -3.2029    2.4323 N   0  0  0  0  0  0  0  0  0  0  0  0
   -4.1691   -3.1873    3.5931 C   0  0  0  0  0  0  0  0  0  0  0  0
   -3.4513   -3.9399    1.7478 H   0  0  0  0  0  0  0  0  0  0  0  0
   -3.7125   -3.7846    4.3960 H   0  0  0  0  0  0  0  0  0  0  0  0
   -4.3015   -2.1509    3.9372 H   0  0  0  0  0  0  0  0  0  0  0  0
   -5.1482   -3.6142    3.3301 H   0  0  0  0  0  0  0  0  0  0  0  0
  1  3  1  0  0  0  0
  1  7  1  0  0  0  0
  1  2  2  0  0  0  0
 37 38  1  0  0  0  0
 38 46  1  0  0  0  0
 38 39  2  0  0  0  0
  8  9  1  0  0  0  0
  9 17  1  0  0  0  0
  9 10  2  0  0  0  0
 18 19  1  0  0  0  0
 19 36  1  0  0  0  0
 19 20  2  0  0  0  0
 37 40  1  0  0  0  0
  8 11  1  0  0  0  0
 22 23  1  0  0  0  0
 22 24  1  0  0  0  0
 46 47  1  0  0  0  0
 18 21  1  0  0  0  0
 21 22  1  0  0  0  0
 36 37  1  0  0  0  0
  7  8  1  0  0  0  0
 17 18  1  0  0  0  0
  3  4  1  0  0  0  0
  3  5  1  0  0  0  0
  3  6  1  0  0  0  0
 40 43  1  0  0  0  0
 40 44  1  0  0  0  0
 40 45  1  0  0  0  0
 11 14  1  0  0  0  0
 11 15  1  0  0  0  0
 11 16  1  0  0  0  0
 23 30  1  0  0  0  0
 23 31  1  0  0  0  0
 23 32  1  0  0  0  0
 24 33  1  0  0  0  0
 24 34  1  0  0  0  0
 24 35  1  0  0  0  0
 47 49  1  0  0  0  0
 47 50  1  0  0  0  0
 47 51  1  0  0  0  0
 21 27  1  0  0  0  0
 21 28  1  0  0  0  0
 37 42  1  0  0  0  0
  8 13  1  0  0  0  0
 18 26  1  0  0  0  0
 22 29  1  0  0  0  0
 46 48  1  0  0  0  0
  7 12  1  0  0  0  0
 36 41  1  0  0  0  0
 17 25  1  0  0  0  0
M  END
$$$$

  -OEChem-05262214473D

 51 50  0     1  0  0  0  0  0999 V2000
    3.4018   -1.2440   -3.0186 C   0  0  0  0  0  0  0  0  0  0  0  0
    3.2697   -2.0909   -2.1427 O   0  0  0  0  0  0  0  0  0  0  0  0
    4.6845   -1.1645   -3.7779 C   0  0  0  0  0  0  0  0  0  0  0  0
    5.4123   -0.4862   -3.3041 H   0  0  0  0  0  0  0  0  0  0  0  0
    5.1949   -2.1387   -3.8443 H   0  0  0  0  0  0  0  0  0  0  0  0
    4.5953   -0.8128   -4.8182 H   0  0  0  0  0  0  0  0  0  0  0  0
    2.4540   -0.3103   -3.4040 N   0  0  0  0  0  0  0  0  0  0  0  0
    1.1494   -0.2128   -2.8039 C   0  0  2  0  0  0  0  0  0  0  0  0
    1.3350    0.0367   -1.3130 C   0  0  0  0  0  0  0  0  0  0  0  0
    2.3625   -0.2586   -0.7063 O   0  0  0  0  0  0  0  0  0  0  0  0
    0.3331   -1.4728   -3.0467 C   0  0  0  0  0  0  0  0  0  0  0  0
    2.6924    0.3404   -4.1502 H   0  0  0  0  0  0  0  0  0  0  0  0
    0.6550    0.6514   -3.2607 H   0  0  0  0  0  0  0  0  0  0  0  0
    0.8129   -2.3494   -2.5963 H   0  0  0  0  0  0  0  0  0  0  0  0
   -0.6690   -1.3857   -2.6142 H   0  0  0  0  0  0  0  0  0  0  0  0
    0.2259   -1.6670   -4.1194 H   0  0  0  0  0  0  0  0  0  0  0  0
    0.2019    0.5893   -0.7269 N   0  0  0  0  0  0  0  0  0  0  0  0
    0.1242    0.9059    0.6756 C   0  0  2  0  0  0  0  0  0  0  0  0
   -0.4109   -0.3331    1.3867 C   0  0  0  0  0  0  0  0  0  0  0  0
   -0.6311   -0.3682    2.5956 O   0  0  0  0  0  0  0  0  0  0  0  0
   -0.7867    2.1094    0.9494 C   0  0  0  0  0  0  0  0  0  0  0  0
   -0.2742    3.4503    0.3854 C   0  0  0  0  0  0  0  0  0  0  0  0
   -1.3341    4.5360    0.5919 C   0  0  0  0  0  0  0  0  0  0  0  0
    0.0869    3.3586   -1.0978 C   0  0  0  0  0  0  0  0  0  0  0  0
   -0.5975    0.8179   -1.3140 H   0  0  0  0  0  0  0  0  0  0  0  0
    1.1468    1.0939    1.0179 H   0  0  0  0  0  0  0  0  0  0  0  0
   -0.9202    2.2130    2.0355 H   0  0  0  0  0  0  0  0  0  0  0  0
   -1.7871    1.9084    0.5436 H   0  0  0  0  0  0  0  0  0  0  0  0
    0.6223    3.7545    0.9393 H   0  0  0  0  0  0  0  0  0  0  0  0
   -2.2573    4.2852    0.0588 H   0  0  0  0  0  0  0  0  0  0  0  0
   -0.9823    5.5007    0.2113 H   0  0  0  0  0  0  0  0  0  0  0  0
   -1.5777    4.6579    1.6529 H   0  0  0  0  0  0  0  0  0  0  0  0
   -0.7775    3.0568   -1.6990 H   0  0  0  0  0  0  0  0  0  0  0  0
    0.4370    4.3266   -1.4725 H   0  0  0  0  0  0  0  0  0  0  0  0
    0.8911    2.6370   -1.2688 H   0  0  0  0  0  0  0  0  0  0  0  0
   -0.6598   -1.3739    0.5027 N   0  0  0  0  0  0  0  0  0  0  0  0
   -1.1956   -2.6517    0.9136 C   0  0  2  0  0  0  0  0  0  0  0  0
   -2.2548   -2.3973    1.9779 C   0  0  0  0  0  0  0  0  0  0  0  0
   -2.2900   -1.3740    2.6581 O   0  0  0  0  0  0  0  0  0  0  0  0
   -0.1017   -3.5660    1.4429 C   0  0  0  0  0  0  0  0  0  0  0  0
   -0.4701   -1.2420   -0.4863 H   0  0  0  0  0  0  0  0  0  0  0  0
   -1.6649   -3.0969    0.0295 H   0  0  0  0  0  0  0  0  0  0  0  0
    0.3802   -3.1366    2.3289 H   0  0  0  0  0  0  0  0  0  0  0  0
   -0.5048   -4.5437    1.7271 H   0  0  0  0  0  0  0  0  0  0  0  0
    0.6743   -3.7239    0.6862 H   0  0  0  0  0  0  0  0  0  0  0  0
   -3.1305   -3.4661    2.1087 N   0  0  0  0  0  0  0  0  0  0  0  0
   -4.2163   -3.4722    3.0610 C   0  0  0  0  0  0  0  0  0  0  0  0
   -3.0382   -4.2663    1.4899 H   0  0  0  0  0  0  0  0  0  0  0  0
   -3.8804   -3.9406    3.9979 H   0  0  0  0  0  0  0  0  0  0  0  0
   -4.5340   -2.4383    3.2614 H   0  0  0  0  0  0  0  0  0  0  0  0
   -5.0620   -4.0423    2.6489 H   0  0  0  0  0  0  0  0  0  0  0  0
  1  3  1  0  0  0  0
  1  7  1  0  0  0  0
  1  2  2  0  0  0  0
 37 38  1  0  0  0  0
 38 46  1  0  0  0  0
 38 39  2  0  0  0  0
  8  9  1  0  0  0  0
  9 17  1  0  0  0  0
  9 10  2  0  0  0  0
 18 19  1  0  0  0  0
 19 36  1  0  0  0  0
 19 20  2  0  0  0  0
 37 40  1  0  0  0  0
  8 11  1  0  0  0  0
 22 23  1  0  0  0  0
 22 24  1  0  0  0  0
 46 47  1  0  0  0  0
 18 21  1  0  0  0  0
 21 22  1  0  0  0  0
 36 37  1  0  0  0  0
  7  8  1  0  0  0  0
 17 18  1  0  0  0  0
  3  4  1  0  0  0  0
  3  5  1  0  0  0  0
  3  6  1  0  0  0  0
 40 43  1  0  0  0  0
 40 44  1  0  0  0  0
 40 45  1  0  0  0  0
 11 14  1  0  0  0  0
 11 15  1  0  0  0  0
 11 16  1  0  0  0  0
 23 30  1  0  0  0  0
 23 31  1  0  0  0  0
 23 32  1  0  0  0  0
 24 33  1  0  0  0  0
 24 34  1  0  0  0  0
 24 35  1  0  0  0  0
 47 49  1  0  0  0  0
 47 50  1  0  0  0  0
 47 51  1  0  0  0  0
 21 27  1  0  0  0  0
 21 28  1  0  0  0  0
 37 42  1  0  0  0  0
  8 13  1  0  0  0  0
 18 26  1  0  0  0  0
 22 29  1  0  0  0  0
 46 48  1  0  0  0  0
  7 12  1  0  0  0  0
 36 41  1  0  0  0  0
 17 25  1  0  0  0  0
M  END
$$$$

  -OEChem-05262214473D

 51 50  0     1  0  0  0  0  0999 V2000
    3.4018   -1.2440   -3.0186 C   0  0  0  0  0  0  0  0  0  0  0  0
    3.2697   -2.0909   -2.1427 O   0  0  0  0  0  0  0  0  0  0  0  0
    4.6845   -1.1645   -3.7779 C   0  0  0  0  0  0  0  0  0  0  0  0
    5.4123   -0.4862   -3.3041 H   0  0  0  0  0  0  0  0  0  0  0  0
    5.1949   -2.1387   -3.8443 H   0  0  0  0  0  0  0  0  0  0  0  0
    4.5953   -0.8128   -4.8182 H   0  0  0  0  0  0  0  0  0  0  0  0
    2.4540   -0.3103   -3.4040 N   0  0  0  0  0  0  0  0  0  0  0  0
    1.1494   -0.2128   -2.8039 C   0  0  2  0  0  0  0  0  0  0  0  0
    1.3350    0.0367   -1.3130 C   0  0  0  0  0  0  0  0  0  0  0  0
    2.3625   -0.2586   -0.7063 O   0  0  0  0  0  0  0  0  0  0  0  0
    0.3331   -1.4728   -3.0467 C   0  0  0  0  0  0  0  0  0  0  0  0
    2.6924    0.3404   -4.1502 H   0  0  0  0  0  0  0  0  0  0  0  0
    0.6550    0.6514   -3.2607 H   0  0  0  0  0  0  0  0  0  0  0  0
    0.8129   -2.3494   -2.5963 H   0  0  0  0  0  0  0  0  0  0  0  0
   -0.6690   -1.3857   -2.6142 H   0  0  0  0  0  0  0  0  0  0  0  0
    0.2259   -1.6670   -4.1194 H   0  0  0  0  0  0  0  0  0  0  0  0
    0.2019    0.5893   -0.7269 N   0  0  0  0  0  0  0  0  0  0  0  0
    0.1242    0.9059    0.6756 C   0  0  2  0  0  0  0  0  0  0  0  0
   -0.4109   -0.3331    1.3867 C   0  0  0  0  0  0  0  0  0  0  0  0
   -0.8815   -0.3023    2.5219 O   0  0  0  0  0  0  0  0  0  0  0  0
   -0.7867    2.1094    0.9494 C   0  0  0  0  0  0  0  0  0  0  0  0
   -0.2742    3.4503    0.3854 C   0  0  0  0  0  0  0  0  0  0  0  0
   -1.3341    4.5360    0.5919 C   0  0  0  0  0  0  0  0  0  0  0  0
    0.0869    3.3586   -1.0978 C   0  0  0  0  0  0  0  0  0  0  0  0
   -0.5975    0.8179   -1.3140 H   0  0  0  0  0  0  0  0  0  0  0  0
    1.1468    1.0939    1.0179 H   0  0  0  0  0  0  0  0  0  0  0  0
   -0.9202    2.2130    2.0355 H   0  0  0  0  0  0  0  0  0  0  0  0
   -1.7871    1.9084    0.5436 H   0  0  0  0  0  0  0  0  0  0  0  0
    0.6223    3.7545    0.9393 H   0  0  0  0  0  0  0  0  0  0  0  0
   -2.2573    4.2852    0.0588 H   0  0  0  0  0  0  0  0  0  0  0  0
   -0.9823    5.5007    0.2113 H   0  0  0  0  0  0  0  0  0  0  0  0
   -1.5777    4.6579    1.6529 H   0  0  0  0  0  0  0  0  0  0  0  0
   -0.7775    3.0568   -1.6990 H   0  0  0  0  0  0  0  0  0  0  0  0
    0.4370    4.3266   -1.4725 H   0  0  0  0  0  0  0  0  0  0  0  0
    0.8911    2.6370   -1.2688 H   0  0  0  0  0  0  0  0  0  0  0  0
   -0.3461   -1.4631    0.5833 N   0  0  0  0  0  0  0  0  0  0  0  0
   -0.8128   -2.7640    1.0060 C   0  0  2  0  0  0  0  0  0  0  0  0
   -2.0983   -2.5677    1.7988 C   0  0  0  0  0  0  0  0  0  0  0  0
   -2.3927   -1.5078    2.3476 O   0  0  0  0  0  0  0  0  0  0  0  0
    0.2356   -3.4838    1.8399 C   0  0  0  0  0  0  0  0  0  0  0  0
    0.0367   -1.3850   -0.3543 H   0  0  0  0  0  0  0  0  0  0  0  0
   -1.0280   -3.3340    0.0956 H   0  0  0  0  0  0  0  0  0  0  0  0
    0.4642   -2.9276    2.7563 H   0  0  0  0  0  0  0  0  0  0  0  0
   -0.1083   -4.4806    2.1353 H   0  0  0  0  0  0  0  0  0  0  0  0
    1.1692   -3.5977    1.2785 H   0  0  0  0  0  0  0  0  0  0  0  0
   -2.8574   -3.7280    1.8577 N   0  0  0  0  0  0  0  0  0  0  0  0
   -4.1156   -3.8015    2.5631 C   0  0  0  0  0  0  0  0  0  0  0  0
   -2.5456   -4.5551    1.3573 H   0  0  0  0  0  0  0  0  0  0  0  0
   -3.9400   -4.1476    3.5923 H   0  0  0  0  0  0  0  0  0  0  0  0
   -4.5818   -2.8054    2.5859 H   0  0  0  0  0  0  0  0  0  0  0  0
   -4.7839   -4.5073    2.0480 H   0  0  0  0  0  0  0  0  0  0  0  0
  1  3  1  0  0  0  0
  1  7  1  0  0  0  0
  1  2  2  0  0  0  0
 37 38  1  0  0  0  0
 38 46  1  0  0  0  0
 38 39  2  0  0  0  0
  8  9  1  0  0  0  0
  9 17  1  0  0  0  0
  9 10  2  0  0  0  0
 18 19  1  0  0  0  0
 19 36  1  0  0  0  0
 19 20  2  0  0  0  0
 37 40  1  0  0  0  0
  8 11  1  0  0  0  0
 22 23  1  0  0  0  0
 22 24  1  0  0  0  0
 46 47  1  0  0  0  0
 18 21  1  0  0  0  0
 21 22  1  0  0  0  0
 36 37  1  0  0  0  0
  7  8  1  0  0  0  0
 17 18  1  0  0  0  0
  3  4  1  0  0  0  0
  3  5  1  0  0  0  0
  3  6  1  0  0  0  0
 40 43  1  0  0  0  0
 40 44  1  0  0  0  0
 40 45  1  0  0  0  0
 11 14  1  0  0  0  0
 11 15  1  0  0  0  0
 11 16  1  0  0  0  0
 23 30  1  0  0  0  0
 23 31  1  0  0  0  0
 23 32  1  0  0  0  0
 24 33  1  0  0  0  0
 24 34  1  0  0  0  0
 24 35  1  0  0  0  0
 47 49  1  0  0  0  0
 47 50  1  0  0  0  0
 47 51  1  0  0  0  0
 21 27  1  0  0  0  0
 21 28  1  0  0  0  0
 37 42  1  0  0  0  0
  8 13  1  0  0  0  0
 18 26  1  0  0  0  0
 22 29  1  0  0  0  0
 46 48  1  0  0  0  0
  7 12  1  0  0  0  0
 36 41  1  0  0  0  0
 17 25  1  0  0  0  0
M  END
$$$$

  -OEChem-05262214473D

 51 50  0     1  0  0  0  0  0999 V2000
    3.4018   -1.2440   -3.0186 C   0  0  0  0  0  0  0  0  0  0  0  0
    3.2697   -2.0909   -2.1427 O   0  0  0  0  0  0  0  0  0  0  0  0
    4.6845   -1.1645   -3.7779 C   0  0  0  0  0  0  0  0  0  0  0  0
    5.4123   -0.4862   -3.3041 H   0  0  0  0  0  0  0  0  0  0  0  0
    5.1949   -2.1387   -3.8443 H   0  0  0  0  0  0  0  0  0  0  0  0
    4.5953   -0.8128   -4.8182 H   0  0  0  0  0  0  0  0  0  0  0  0
    2.4540   -0.3103   -3.4040 N   0  0  0  0  0  0  0  0  0  0  0  0
    1.1494   -0.2128   -2.8039 C   0  0  2  0  0  0  0  0  0  0  0  0
    1.3350    0.0367   -1.3130 C   0  0  0  0  0  0  0  0  0  0  0  0
    2.3625   -0.2586   -0.7063 O   0  0  0  0  0  0  0  0  0  0  0  0
    0.3331   -1.4728   -3.0467 C   0  0  0  0  0  0  0  0  0  0  0  0
    2.6924    0.3404   -4.1502 H   0  0  0  0  0  0  0  0  0  0  0  0
    0.6550    0.6514   -3.2607 H   0  0  0  0  0  0  0  0  0  0  0  0
    0.8129   -2.3494   -2.5963 H   0  0  0  0  0  0  0  0  0  0  0  0
   -0.6690   -1.3857   -2.6142 H   0  0  0  0  0  0  0  0  0  0  0  0
    0.2259   -1.6670   -4.1194 H   0  0  0  0  0  0  0  0  0  0  0  0
    0.2019    0.5893   -0.7269 N   0  0  0  0  0  0  0  0  0  0  0  0
    0.1242    0.9059    0.6756 C   0  0  2  0  0  0  0  0  0  0  0  0
   -0.4109   -0.3331    1.3867 C   0  0  0  0  0  0  0  0  0  0  0  0
   -1.1158   -0.2756    2.3921 O   0  0  0  0  0  0  0  0  0  0  0  0
   -0.7867    2.1094    0.9494 C   0  0  0  0  0  0  0  0  0  0  0  0
   -0.2742    3.4503    0.3854 C   0  0  0  0  0  0  0  0  0  0  0  0
   -1.3341    4.5360    0.5919 C   0  0  0  0  0  0  0  0  0  0  0  0
    0.0869    3.3586   -1.0978 C   0  0  0  0  0  0  0  0  0  0  0  0
   -0.5975    0.8179   -1.3140 H   0  0  0  0  0  0  0  0  0  0  0  0
    1.1468    1.0939    1.0179 H   0  0  0  0  0  0  0  0  0  0  0  0
   -0.9202    2.2130    2.0355 H   0  0  0  0  0  0  0  0  0  0  0  0
   -1.7871    1.9084    0.5436 H   0  0  0  0  0  0  0  0  0  0  0  0
    0.6223    3.7545    0.9393 H   0  0  0  0  0  0  0  0  0  0  0  0
   -2.2573    4.2852    0.0588 H   0  0  0  0  0  0  0  0  0  0  0  0
   -0.9823    5.5007    0.2113 H   0  0  0  0  0  0  0  0  0  0  0  0
   -1.5777    4.6579    1.6529 H   0  0  0  0  0  0  0  0  0  0  0  0
   -0.7775    3.0568   -1.6990 H   0  0  0  0  0  0  0  0  0  0  0  0
    0.4370    4.3266   -1.4725 H   0  0  0  0  0  0  0  0  0  0  0  0
    0.8911    2.6370   -1.2688 H   0  0  0  0  0  0  0  0  0  0  0  0
   -0.0494   -1.5042    0.7351 N   0  0  0  0  0  0  0  0  0  0  0  0
   -0.4490   -2.8178    1.1859 C   0  0  2  0  0  0  0  0  0  0  0  0
   -1.8889   -2.7296    1.6742 C   0  0  0  0  0  0  0  0  0  0  0  0
   -2.4105   -1.6777    2.0381 O   0  0  0  0  0  0  0  0  0  0  0  0
    0.4680   -3.3277    2.2868 C   0  0  0  0  0  0  0  0  0  0  0  0
    0.5157   -1.4500   -0.1072 H   0  0  0  0  0  0  0  0  0  0  0  0
   -0.3980   -3.4802    0.3149 H   0  0  0  0  0  0  0  0  0  0  0  0
    0.4303   -2.6768    3.1679 H   0  0  0  0  0  0  0  0  0  0  0  0
    0.1812   -4.3347    2.6073 H   0  0  0  0  0  0  0  0  0  0  0  0
    1.5075   -3.3623    1.9433 H   0  0  0  0  0  0  0  0  0  0  0  0
   -2.5093   -3.9709    1.6965 N   0  0  0  0  0  0  0  0  0  0  0  0
   -3.8740   -4.1526    2.1331 C   0  0  0  0  0  0  0  0  0  0  0  0
   -2.0071   -4.7867    1.3589 H   0  0  0  0  0  0  0  0  0  0  0  0
   -3.8873   -4.3917    3.2068 H   0  0  0  0  0  0  0  0  0  0  0  0
   -4.4416   -3.2270    1.9567 H   0  0  0  0  0  0  0  0  0  0  0  0
   -4.3328   -4.9774    1.5683 H   0  0  0  0  0  0  0  0  0  0  0  0
  1  3  1  0  0  0  0
  1  7  1  0  0  0  0
  1  2  2  0  0  0  0
 37 38  1  0  0  0  0
 38 46  1  0  0  0  0
 38 39  2  0  0  0  0
  8  9  1  0  0  0  0
  9 17  1  0  0  0  0
  9 10  2  0  0  0  0
 18 19  1  0  0  0  0
 19 36  1  0  0  0  0
 19 20  2  0  0  0  0
 37 40  1  0  0  0  0
  8 11  1  0  0  0  0
 22 23  1  0  0  0  0
 22 24  1  0  0  0  0
 46 47  1  0  0  0  0
 18 21  1  0  0  0  0
 21 22  1  0  0  0  0
 36 37  1  0  0  0  0
  7  8  1  0  0  0  0
 17 18  1  0  0  0  0
  3  4  1  0  0  0  0
  3  5  1  0  0  0  0
  3  6  1  0  0  0  0
 40 43  1  0  0  0  0
 40 44  1  0  0  0  0
 40 45  1  0  0  0  0
 11 14  1  0  0  0  0
 11 15  1  0  0  0  0
 11 16  1  0  0  0  0
 23 30  1  0  0  0  0
 23 31  1  0  0  0  0
 23 32  1  0  0  0  0
 24 33  1  0  0  0  0
 24 34  1  0  0  0  0
 24 35  1  0  0  0  0
 47 49  1  0  0  0  0
 47 50  1  0  0  0  0
 47 51  1  0  0  0  0
 21 27  1  0  0  0  0
 21 28  1  0  0  0  0
 37 42  1  0  0  0  0
  8 13  1  0  0  0  0
 18 26  1  0  0  0  0
 22 29  1  0  0  0  0
 46 48  1  0  0  0  0
  7 12  1  0  0  0  0
 36 41  1  0  0  0  0
 17 25  1  0  0  0  0
M  END
$$$$

  -OEChem-05262214473D

 51 50  0     1  0  0  0  0  0999 V2000
    3.4018   -1.2440   -3.0186 C   0  0  0  0  0  0  0  0  0  0  0  0
    3.2697   -2.0909   -2.1427 O   0  0  0  0  0  0  0  0  0  0  0  0
    4.6845   -1.1645   -3.7779 C   0  0  0  0  0  0  0  0  0  0  0  0
    5.4123   -0.4862   -3.3041 H   0  0  0  0  0  0  0  0  0  0  0  0
    5.1949   -2.1387   -3.8443 H   0  0  0  0  0  0  0  0  0  0  0  0
    4.5953   -0.8128   -4.8182 H   0  0  0  0  0  0  0  0  0  0  0  0
    2.4540   -0.3103   -3.4040 N   0  0  0  0  0  0  0  0  0  0  0  0
    1.1494   -0.2128   -2.8039 C   0  0  2  0  0  0  0  0  0  0  0  0
    1.3350    0.0367   -1.3130 C   0  0  0  0  0  0  0  0  0  0  0  0
    2.3625   -0.2586   -0.7063 O   0  0  0  0  0  0  0  0  0  0  0  0
    0.3331   -1.4728   -3.0467 C   0  0  0  0  0  0  0  0  0  0  0  0
    2.6924    0.3404   -4.1502 H   0  0  0  0  0  0  0  0  0  0  0  0
    0.6550    0.6514   -3.2607 H   0  0  0  0  0  0  0  0  0  0  0  0
    0.8129   -2.3494   -2.5963 H   0  0  0  0  0  0  0  0  0  0  0  0
   -0.6690   -1.3857   -2.6142 H   0  0  0  0  0  0  0  0  0  0  0  0
    0.2259   -1.6670   -4.1194 H   0  0  0  0  0  0  0  0  0  0  0  0
    0.2019    0.5893   -0.7269 N   0  0  0  0  0  0  0  0  0  0  0  0
    0.1242    0.9059    0.6756 C   0  0  2  0  0  0  0  0  0  0  0  0
   -0.4109   -0.3331    1.3867 C   0  0  0  0  0  0  0  0  0  0  0  0
   -1.3181   -0.2899    2.2151 O   0  0  0  0  0  0  0  0  0  0  0  0
   -0.7867    2.1094    0.9494 C   0  0  0  0  0  0  0  0  0  0  0  0
   -0.2742    3.4503    0.3854 C   0  0  0  0  0  0  0  0  0  0  0  0
   -1.3341    4.5360    0.5919 C   0  0  0  0  0  0  0  0  0  0  0  0
    0.0869    3.3586   -1.0978 C   0  0  0  0  0  0  0  0  0  0  0  0
   -0.5975    0.8179   -1.3140 H   0  0  0  0  0  0  0  0  0  0  0  0
    1.1468    1.0939    1.0179 H   0  0  0  0  0  0  0  0  0  0  0  0
   -0.9202    2.2130    2.0355 H   0  0  0  0  0  0  0  0  0  0  0  0
   -1.7871    1.9084    0.5436 H   0  0  0  0  0  0  0  0  0  0  0  0
    0.6223    3.7545    0.9393 H   0  0  0  0  0  0  0  0  0  0  0  0
   -2.2573    4.2852    0.0588 H   0  0  0  0  0  0  0  0  0  0  0  0
   -0.9823    5.5007    0.2113 H   0  0  0  0  0  0  0  0  0  0  0  0
   -1.5777    4.6579    1.6529 H   0  0  0  0  0  0  0  0  0  0  0  0
   -0.7775    3.0568   -1.6990 H   0  0  0  0  0  0  0  0  0  0  0  0
    0.4370    4.3266   -1.4725 H   0  0  0  0  0  0  0  0  0  0  0  0
    0.8911    2.6370   -1.2688 H   0  0  0  0  0  0  0  0  0  0  0  0
    0.2104   -1.4942    0.9479 N   0  0  0  0  0  0  0  0  0  0  0  0
   -0.1289   -2.8096    1.4411 C   0  0  2  0  0  0  0  0  0  0  0  0
   -1.6409   -2.8721    1.6125 C   0  0  0  0  0  0  0  0  0  0  0  0
   -2.3422   -1.8721    1.7510 O   0  0  0  0  0  0  0  0  0  0  0  0
    0.5797   -3.1083    2.7531 C   0  0  0  0  0  0  0  0  0  0  0  0
    0.9343   -1.4326    0.2381 H   0  0  0  0  0  0  0  0  0  0  0  0
    0.1820   -3.5255    0.6724 H   0  0  0  0  0  0  0  0  0  0  0  0
    0.2808   -2.4012    3.5355 H   0  0  0  0  0  0  0  0  0  0  0  0
    0.3441   -4.1161    3.1108 H   0  0  0  0  0  0  0  0  0  0  0  0
    1.6661   -3.0337    2.6351 H   0  0  0  0  0  0  0  0  0  0  0  0
   -2.1099   -4.1781    1.6359 N   0  0  0  0  0  0  0  0  0  0  0  0
   -3.5079   -4.5016    1.8005 C   0  0  0  0  0  0  0  0  0  0  0  0
   -1.4594   -4.9453    1.4947 H   0  0  0  0  0  0  0  0  0  0  0  0
   -3.7259   -4.6560    2.8676 H   0  0  0  0  0  0  0  0  0  0  0  0
   -4.1232   -3.6745    1.4166 H   0  0  0  0  0  0  0  0  0  0  0  0
   -3.7396   -5.4207    1.2423 H   0  0  0  0  0  0  0  0  0  0  0  0
  1  3  1  0  0  0  0
  1  7  1  0  0  0  0
  1  2  2  0  0  0  0
 37 38  1  0  0  0  0
 38 46  1  0  0  0  0
 38 39  2  0  0  0  0
  8  9  1  0  0  0  0
  9 17  1  0  0  0  0
  9 10  2  0  0  0  0
 18 19  1  0  0  0  0
 19 36  1  0  0  0  0
 19 20  2  0  0  0  0
 37 40  1  0  0  0  0
  8 11  1  0  0  0  0
 22 23  1  0  0  0  0
 22 24  1  0  0  0  0
 46 47  1  0  0  0  0
 18 21  1  0  0  0  0
 21 22  1  0  0  0  0
 36 37  1  0  0  0  0
  7  8  1  0  0  0  0
 17 18  1  0  0  0  0
  3  4  1  0  0  0  0
  3  5  1  0  0  0  0
  3  6  1  0  0  0  0
 40 43  1  0  0  0  0
 40 44  1  0  0  0  0
 40 45  1  0  0  0  0
 11 14  1  0  0  0  0
 11 15  1  0  0  0  0
 11 16  1  0  0  0  0
 23 30  1  0  0  0  0
 23 31  1  0  0  0  0
 23 32  1  0  0  0  0
 24 33  1  0  0  0  0
 24 34  1  0  0  0  0
 24 35  1  0  0  0  0
 47 49  1  0  0  0  0
 47 50  1  0  0  0  0
 47 51  1  0  0  0  0
 21 27  1  0  0  0  0
 21 28  1  0  0  0  0
 37 42  1  0  0  0  0
  8 13  1  0  0  0  0
 18 26  1  0  0  0  0
 22 29  1  0  0  0  0
 46 48  1  0  0  0  0
  7 12  1  0  0  0  0
 36 41  1  0  0  0  0
 17 25  1  0  0  0  0
M  END
$$$$

  -OEChem-05262214473D

 51 50  0     1  0  0  0  0  0999 V2000
    3.4018   -1.2440   -3.0186 C   0  0  0  0  0  0  0  0  0  0  0  0
    3.2697   -2.0909   -2.1427 O   0  0  0  0  0  0  0  0  0  0  0  0
    4.6845   -1.1645   -3.7779 C   0  0  0  0  0  0  0  0  0  0  0  0
    5.4123   -0.4862   -3.3041 H   0  0  0  0  0  0  0  0  0  0  0  0
    5.1949   -2.1387   -3.8443 H   0  0  0  0  0  0  0  0  0  0  0  0
    4.5953   -0.8128   -4.8182 H   0  0  0  0  0  0  0  0  0  0  0  0
    2.4540   -0.3103   -3.4040 N   0  0  0  0  0  0  0  0  0  0  0  0
    1.1494   -0.2128   -2.8039 C   0  0  2  0  0  0  0  0  0  0  0  0
    1.3350    0.0367   -1.3130 C   0  0  0  0  0  0  0  0  0  0  0  0
    2.3625   -0.2586   -0.7063 O   0  0  0  0  0  0  0  0  0  0  0  0
    0.3331   -1.4728   -3.0467 C   0  0  0  0  0  0  0  0  0  0  0  0
    2.6924    0.3404   -4.1502 H   0  0  0  0  0  0  0  0  0  0  0  0
    0.6550    0.6514   -3.2607 H   0  0  0  0  0  0  0  0  0  0  0  0
    0.8129   -2.3494   -2.5963 H   0  0  0  0  0  0  0  0  0  0  0  0
   -0.6690   -1.3857   -2.6142 H   0  0  0  0  0  0  0  0  0  0  0  0
    0.2259   -1.6670   -4.1194 H   0  0  0  0  0  0  0  0  0  0  0  0
    0.2019    0.5893   -0.7269 N   0  0  0  0  0  0  0  0  0  0  0  0
    0.1242    0.9059    0.6756 C   0  0  2  0  0  0  0  0  0  0  0  0
   -0.4109   -0.3331    1.3867 C   0  0  0  0  0  0  0  0  0  0  0  0
   -1.4746   -0.3441    2.0028 O   0  0  0  0  0  0  0  0  0  0  0  0
   -0.7867    2.1094    0.9494 C   0  0  0  0  0  0  0  0  0  0  0  0
   -0.2742    3.4503    0.3854 C   0  0  0  0  0  0  0  0  0  0  0  0
   -1.3341    4.5360    0.5919 C   0  0  0  0  0  0  0  0  0  0  0  0
    0.0869    3.3586   -1.0978 C   0  0  0  0  0  0  0  0  0  0  0  0
   -0.5975    0.8179   -1.3140 H   0  0  0  0  0  0  0  0  0  0  0  0
    1.1468    1.0939    1.0179 H   0  0  0  0  0  0  0  0  0  0  0  0
   -0.9202    2.2130    2.0355 H   0  0  0  0  0  0  0  0  0  0  0  0
   -1.7871    1.9084    0.5436 H   0  0  0  0  0  0  0  0  0  0  0  0
    0.6223    3.7545    0.9393 H   0  0  0  0  0  0  0  0  0  0  0  0
   -2.2573    4.2852    0.0588 H   0  0  0  0  0  0  0  0  0  0  0  0
   -0.9823    5.5007    0.2113 H   0  0  0  0  0  0  0  0  0  0  0  0
   -1.5777    4.6579    1.6529 H   0  0  0  0  0  0  0  0  0  0  0  0
   -0.7775    3.0568   -1.6990 H   0  0  0  0  0  0  0  0  0  0  0  0
    0.4370    4.3266   -1.4725 H   0  0  0  0  0  0  0  0  0  0  0  0
    0.8911    2.6370   -1.2688 H   0  0  0  0  0  0  0  0  0  0  0  0
    0.4153   -1.4339    1.2071 N   0  0  0  0  0  0  0  0  0  0  0  0
    0.1257   -2.7399    1.7541 C   0  0  2  0  0  0  0  0  0  0  0  0
   -1.3712   -2.9854    1.6180 C   0  0  0  0  0  0  0  0  0  0  0  0
   -2.1924   -2.0776    1.5056 O   0  0  0  0  0  0  0  0  0  0  0  0
    0.5631   -2.8406    3.2071 C   0  0  0  0  0  0  0  0  0  0  0  0
    1.2639   -1.3340    0.6580 H   0  0  0  0  0  0  0  0  0  0  0  0
    0.6726   -3.4668    1.1437 H   0  0  0  0  0  0  0  0  0  0  0  0
    0.0259   -2.1197    3.8342 H   0  0  0  0  0  0  0  0  0  0  0  0
    0.3691   -3.8395    3.6115 H   0  0  0  0  0  0  0  0  0  0  0  0
    1.6343   -2.6344    3.3068 H   0  0  0  0  0  0  0  0  0  0  0  0
   -1.6864   -4.3356    1.6802 N   0  0  0  0  0  0  0  0  0  0  0  0
   -3.0422   -4.8247    1.5879 C   0  0  0  0  0  0  0  0  0  0  0  0
   -0.9397   -5.0201    1.7555 H   0  0  0  0  0  0  0  0  0  0  0  0
   -3.4668   -4.9227    2.5979 H   0  0  0  0  0  0  0  0  0  0  0  0
   -3.6480   -4.1173    1.0026 H   0  0  0  0  0  0  0  0  0  0  0  0
   -3.0446   -5.8068    1.0924 H   0  0  0  0  0  0  0  0  0  0  0  0
  1  3  1  0  0  0  0
  1  7  1  0  0  0  0
  1  2  2  0  0  0  0
 37 38  1  0  0  0  0
 38 46  1  0  0  0  0
 38 39  2  0  0  0  0
  8  9  1  0  0  0  0
  9 17  1  0  0  0  0
  9 10  2  0  0  0  0
 18 19  1  0  0  0  0
 19 36  1  0  0  0  0
 19 20  2  0  0  0  0
 37 40  1  0  0  0  0
  8 11  1  0  0  0  0
 22 23  1  0  0  0  0
 22 24  1  0  0  0  0
 46 47  1  0  0  0  0
 18 21  1  0  0  0  0
 21 22  1  0  0  0  0
 36 37  1  0  0  0  0
  7  8  1  0  0  0  0
 17 18  1  0  0  0  0
  3  4  1  0  0  0  0
  3  5  1  0  0  0  0
  3  6  1  0  0  0  0
 40 43  1  0  0  0  0
 40 44  1  0  0  0  0
 40 45  1  0  0  0  0
 11 14  1  0  0  0  0
 11 15  1  0  0  0  0
 11 16  1  0  0  0  0
 23 30  1  0  0  0  0
 23 31  1  0  0  0  0
 23 32  1  0  0  0  0
 24 33  1  0  0  0  0
 24 34  1  0  0  0  0
 24 35  1  0  0  0  0
 47 49  1  0  0  0  0
 47 50  1  0  0  0  0
 47 51  1  0  0  0  0
 21 27  1  0  0  0  0
 21 28  1  0  0  0  0
 37 42  1  0  0  0  0
  8 13  1  0  0  0  0
 18 26  1  0  0  0  0
 22 29  1  0  0  0  0
 46 48  1  0  0  0  0
  7 12  1  0  0  0  0
 36 41  1  0  0  0  0
 17 25  1  0  0  0  0
M  END
$$$$

  -OEChem-05262214473D

 51 50  0     1  0  0  0  0  0999 V2000
    3.4018   -1.2440   -3.0186 C   0  0  0  0  0  0  0  0  0  0  0  0
    3.2697   -2.0909   -2.1427 O   0  0  0  0  0  0  0  0  0  0  0  0
    4.6845   -1.1645   -3.7779 C   0  0  0  0  0  0  0  0  0  0  0  0
    5.4123   -0.4862   -3.3041 H   0  0  0  0  0  0  0  0  0  0  0  0
    5.1949   -2.1387   -3.8443 H   0  0  0  0  0  0  0  0  0  0  0  0
    4.5953   -0.8128   -4.8182 H   0  0  0  0  0  0  0  0  0  0  0  0
    2.4540   -0.3103   -3.4040 N   0  0  0  0  0  0  0  0  0  0  0  0
    1.1494   -0.2128   -2.8039 C   0  0  2  0  0  0  0  0  0  0  0  0
    1.3350    0.0367   -1.3130 C   0  0  0  0  0  0  0  0  0  0  0  0
    2.3625   -0.2586   -0.7063 O   0  0  0  0  0  0  0  0  0  0  0  0
    0.3331   -1.4728   -3.0467 C   0  0  0  0  0  0  0  0  0  0  0  0
    2.6924    0.3404   -4.1502 H   0  0  0  0  0  0  0  0  0  0  0  0
    0.6550    0.6514   -3.2607 H   0  0  0  0  0  0  0  0  0  0  0  0
    0.8129   -2.3494   -2.5963 H   0  0  0  0  0  0  0  0  0  0  0  0
   -0.6690   -1.3857   -2.6142 H   0  0  0  0  0  0  0  0  0  0  0  0
    0.2259   -1.6670   -4.1194 H   0  0  0  0  0  0  0  0  0  0  0  0
    0.2019    0.5893   -0.7269 N   0  0  0  0  0  0  0  0  0  0  0  0
    0.1242    0.9059    0.6756 C   0  0  2  0  0  0  0  0  0  0  0  0
   -0.4109   -0.3331    1.3867 C   0  0  0  0  0  0  0  0  0  0  0  0
   -1.5745   -0.4347    1.7699 O   0  0  0  0  0  0  0  0  0  0  0  0
   -0.7867    2.1094    0.9494 C   0  0  0  0  0  0  0  0  0  0  0  0
   -0.2742    3.4503    0.3854 C   0  0  0  0  0  0  0  0  0  0  0  0
   -1.3341    4.5360    0.5919 C   0  0  0  0  0  0  0  0  0  0  0  0
    0.0869    3.3586   -1.0978 C   0  0  0  0  0  0  0  0  0  0  0  0
   -0.5975    0.8179   -1.3140 H   0  0  0  0  0  0  0  0  0  0  0  0
    1.1468    1.0939    1.0179 H   0  0  0  0  0  0  0  0  0  0  0  0
   -0.9202    2.2130    2.0355 H   0  0  0  0  0  0  0  0  0  0  0  0
   -1.7871    1.9084    0.5436 H   0  0  0  0  0  0  0  0  0  0  0  0
    0.6223    3.7545    0.9393 H   0  0  0  0  0  0  0  0  0  0  0  0
   -2.2573    4.2852    0.0588 H   0  0  0  0  0  0  0  0  0  0  0  0
   -0.9823    5.5007    0.2113 H   0  0  0  0  0  0  0  0  0  0  0  0
   -1.5777    4.6579    1.6529 H   0  0  0  0  0  0  0  0  0  0  0  0
   -0.7775    3.0568   -1.6990 H   0  0  0  0  0  0  0  0  0  0  0  0
    0.4370    4.3266   -1.4725 H   0  0  0  0  0  0  0  0  0  0  0  0
    0.8911    2.6370   -1.2688 H   0  0  0  0  0  0  0  0  0  0  0  0
    0.5515   -1.3274    1.4951 N   0  0  0  0  0  0  0  0  0  0  0  0
    0.2974   -2.6134    2.1036 C   0  0  2  0  0  0  0  0  0  0  0  0
   -1.0982   -3.0618    1.6903 C   0  0  0  0  0  0  0  0  0  0  0  0
   -1.9713   -2.2803    1.3187 O   0  0  0  0  0  0  0  0  0  0  0  0
    0.4194   -2.5428    3.6179 C   0  0  0  0  0  0  0  0  0  0  0  0
    1.4821   -1.1608    1.1239 H   0  0  0  0  0  0  0  0  0  0  0  0
    1.0403   -3.3082    1.6968 H   0  0  0  0  0  0  0  0  0  0  0  0
   -0.3171   -1.8515    4.0435 H   0  0  0  0  0  0  0  0  0  0  0  0
    0.2547   -3.5239    4.0754 H   0  0  0  0  0  0  0  0  0  0  0  0
    1.4141   -2.1916    3.9127 H   0  0  0  0  0  0  0  0  0  0  0  0
   -1.2676   -4.4326    1.8264 N   0  0  0  0  0  0  0  0  0  0  0  0
   -2.5087   -5.1000    1.5097 C   0  0  0  0  0  0  0  0  0  0  0  0
   -0.4835   -5.0059    2.1234 H   0  0  0  0  0  0  0  0  0  0  0  0
   -3.1277   -5.1735    2.4160 H   0  0  0  0  0  0  0  0  0  0  0  0
   -3.0486   -4.5253    0.7427 H   0  0  0  0  0  0  0  0  0  0  0  0
   -2.2951   -6.1096    1.1288 H   0  0  0  0  0  0  0  0  0  0  0  0
  1  3  1  0  0  0  0
  1  7  1  0  0  0  0
  1  2  2  0  0  0  0
 37 38  1  0  0  0  0
 38 46  1  0  0  0  0
 38 39  2  0  0  0  0
  8  9  1  0  0  0  0
  9 17  1  0  0  0  0
  9 10  2  0  0  0  0
 18 19  1  0  0  0  0
 19 36  1  0  0  0  0
 19 20  2  0  0  0  0
 37 40  1  0  0  0  0
  8 11  1  0  0  0  0
 22 23  1  0  0  0  0
 22 24  1  0  0  0  0
 46 47  1  0  0  0  0
 18 21  1  0  0  0  0
 21 22  1  0  0  0  0
 36 37  1  0  0  0  0
  7  8  1  0  0  0  0
 17 18  1  0  0  0  0
  3  4  1  0  0  0  0
  3  5  1  0  0  0  0
  3  6  1  0  0  0  0
 40 43  1  0  0  0  0
 40 44  1  0  0  0  0
 40 45  1  0  0  0  0
 11 14  1  0  0  0  0
 11 15  1  0  0  0  0
 11 16  1  0  0  0  0
 23 30  1  0  0  0  0
 23 31  1  0  0  0  0
 23 32  1  0  0  0  0
 24 33  1  0  0  0  0
 24 34  1  0  0  0  0
 24 35  1  0  0  0  0
 47 49  1  0  0  0  0
 47 50  1  0  0  0  0
 47 51  1  0  0  0  0
 21 27  1  0  0  0  0
 21 28  1  0  0  0  0
 37 42  1  0  0  0  0
  8 13  1  0  0  0  0
 18 26  1  0  0  0  0
 22 29  1  0  0  0  0
 46 48  1  0  0  0  0
  7 12  1  0  0  0  0
 36 41  1  0  0  0  0
 17 25  1  0  0  0  0
M  END
$$$$

  -OEChem-05262214473D

 51 50  0     1  0  0  0  0  0999 V2000
    3.4018   -1.2440   -3.0186 C   0  0  0  0  0  0  0  0  0  0  0  0
    3.2697   -2.0909   -2.1427 O   0  0  0  0  0  0  0  0  0  0  0  0
    4.6845   -1.1645   -3.7779 C   0  0  0  0  0  0  0  0  0  0  0  0
    5.4123   -0.4862   -3.3041 H   0  0  0  0  0  0  0  0  0  0  0  0
    5.1949   -2.1387   -3.8443 H   0  0  0  0  0  0  0  0  0  0  0  0
    4.5953   -0.8128   -4.8182 H   0  0  0  0  0  0  0  0  0  0  0  0
    2.4540   -0.3103   -3.4040 N   0  0  0  0  0  0  0  0  0  0  0  0
    1.1494   -0.2128   -2.8039 C   0  0  2  0  0  0  0  0  0  0  0  0
    1.3350    0.0367   -1.3130 C   0  0  0  0  0  0  0  0  0  0  0  0
    2.3625   -0.2586   -0.7063 O   0  0  0  0  0  0  0  0  0  0  0  0
    0.3331   -1.4728   -3.0467 C   0  0  0  0  0  0  0  0  0  0  0  0
    2.6924    0.3404   -4.1502 H   0  0  0  0  0  0  0  0  0  0  0  0
    0.6550    0.6514   -3.2607 H   0  0  0  0  0  0  0  0  0  0  0  0
    0.8129   -2.3494   -2.5963 H   0  0  0  0  0  0  0  0  0  0  0  0
   -0.6690   -1.3857   -2.6142 H   0  0  0  0  0  0  0  0  0  0  0  0
    0.2259   -1.6670   -4.1194 H   0  0  0  0  0  0  0  0  0  0  0  0
    0.2019    0.5893   -0.7269 N   0  0  0  0  0  0  0  0  0  0  0  0
    0.1242    0.9059    0.6756 C   0  0  2  0  0  0  0  0  0  0  0  0
   -0.4109   -0.3331    1.3867 C   0  0  0  0  0  0  0  0  0  0  0  0
   -1.6112   -0.5553    1.5320 O   0  0  0  0  0  0  0  0  0  0  0  0
   -0.7867    2.1094    0.9494 C   0  0  0  0  0  0  0  0  0  0  0  0
   -0.2742    3.4503    0.3854 C   0  0  0  0  0  0  0  0  0  0  0  0
   -1.3341    4.5360    0.5919 C   0  0  0  0  0  0  0  0  0  0  0  0
    0.0869    3.3586   -1.0978 C   0  0  0  0  0  0  0  0  0  0  0  0
   -0.5975    0.8179   -1.3140 H   0  0  0  0  0  0  0  0  0  0  0  0
    1.1468    1.0939    1.0179 H   0  0  0  0  0  0  0  0  0  0  0  0
   -0.9202    2.2130    2.0355 H   0  0  0  0  0  0  0  0  0  0  0  0
   -1.7871    1.9084    0.5436 H   0  0  0  0  0  0  0  0  0  0  0  0
    0.6223    3.7545    0.9393 H   0  0  0  0  0  0  0  0  0  0  0  0
   -2.2573    4.2852    0.0588 H   0  0  0  0  0  0  0  0  0  0  0  0
   -0.9823    5.5007    0.2113 H   0  0  0  0  0  0  0  0  0  0  0  0
   -1.5777    4.6579    1.6529 H   0  0  0  0  0  0  0  0  0  0  0  0
   -0.7775    3.0568   -1.6990 H   0  0  0  0  0  0  0  0  0  0  0  0
    0.4370    4.3266   -1.4725 H   0  0  0  0  0  0  0  0  0  0  0  0
    0.8911    2.6370   -1.2688 H   0  0  0  0  0  0  0  0  0  0  0  0
    0.6096   -1.1820    1.7922 N   0  0  0  0  0  0  0  0  0  0  0  0
    0.3745   -2.4388    2.4659 C   0  0  2  0  0  0  0  0  0  0  0  0
   -0.8404   -3.0961    1.8245 C   0  0  0  0  0  0  0  0  0  0  0  0
   -1.6939   -2.4664    1.2031 O   0  0  0  0  0  0  0  0  0  0  0  0
    0.1582   -2.2352    3.9574 C   0  0  0  0  0  0  0  0  0  0  0  0
    1.5741   -0.9249    1.6041 H   0  0  0  0  0  0  0  0  0  0  0  0
    1.2600   -3.0603    2.2940 H   0  0  0  0  0  0  0  0  0  0  0  0
   -0.7247   -1.6147    4.1493 H   0  0  0  0  0  0  0  0  0  0  0  0
    0.0086   -3.1908    4.4707 H   0  0  0  0  0  0  0  0  0  0  0  0
    1.0207   -1.7354    4.4115 H   0  0  0  0  0  0  0  0  0  0  0  0
   -0.8821   -4.4625    2.0643 N   0  0  0  0  0  0  0  0  0  0  0  0
   -1.9437   -5.3086    1.5714 C   0  0  0  0  0  0  0  0  0  0  0  0
   -0.1219   -4.9038    2.5733 H   0  0  0  0  0  0  0  0  0  0  0  0
   -2.7317   -5.3913    2.3344 H   0  0  0  0  0  0  0  0  0  0  0  0
   -2.3657   -4.8707    0.6547 H   0  0  0  0  0  0  0  0  0  0  0  0
   -1.5423   -6.3083    1.3490 H   0  0  0  0  0  0  0  0  0  0  0  0
  1  3  1  0  0  0  0
  1  7  1  0  0  0  0
  1  2  2  0  0  0  0
 37 38  1  0  0  0  0
 38 46  1  0  0  0  0
 38 39  2  0  0  0  0
  8  9  1  0  0  0  0
  9 17  1  0  0  0  0
  9 10  2  0  0  0  0
 18 19  1  0  0  0  0
 19 36  1  0  0  0  0
 19 20  2  0  0  0  0
 37 40  1  0  0  0  0
  8 11  1  0  0  0  0
 22 23  1  0  0  0  0
 22 24  1  0  0  0  0
 46 47  1  0  0  0  0
 18 21  1  0  0  0  0
 21 22  1  0  0  0  0
 36 37  1  0  0  0  0
  7  8  1  0  0  0  0
 17 18  1  0  0  0  0
  3  4  1  0  0  0  0
  3  5  1  0  0  0  0
  3  6  1  0  0  0  0
 40 43  1  0  0  0  0
 40 44  1  0  0  0  0
 40 45  1  0  0  0  0
 11 14  1  0  0  0  0
 11 15  1  0  0  0  0
 11 16  1  0  0  0  0
 23 30  1  0  0  0  0
 23 31  1  0  0  0  0
 23 32  1  0  0  0  0
 24 33  1  0  0  0  0
 24 34  1  0  0  0  0
 24 35  1  0  0  0  0
 47 49  1  0  0  0  0
 47 50  1  0  0  0  0
 47 51  1  0  0  0  0
 21 27  1  0  0  0  0
 21 28  1  0  0  0  0
 37 42  1  0  0  0  0
  8 13  1  0  0  0  0
 18 26  1  0  0  0  0
 22 29  1  0  0  0  0
 46 48  1  0  0  0  0
  7 12  1  0  0  0  0
 36 41  1  0  0  0  0
 17 25  1  0  0  0  0
M  END
$$$$

  -OEChem-05262214473D

 51 50  0     1  0  0  0  0  0999 V2000
    3.4018   -1.2440   -3.0186 C   0  0  0  0  0  0  0  0  0  0  0  0
    3.2697   -2.0909   -2.1427 O   0  0  0  0  0  0  0  0  0  0  0  0
    4.6845   -1.1645   -3.7779 C   0  0  0  0  0  0  0  0  0  0  0  0
    5.4123   -0.4862   -3.3041 H   0  0  0  0  0  0  0  0  0  0  0  0
    5.1949   -2.1387   -3.8443 H   0  0  0  0  0  0  0  0  0  0  0  0
    4.5953   -0.8128   -4.8182 H   0  0  0  0  0  0  0  0  0  0  0  0
    2.4540   -0.3103   -3.4040 N   0  0  0  0  0  0  0  0  0  0  0  0
    1.1494   -0.2128   -2.8039 C   0  0  2  0  0  0  0  0  0  0  0  0
    1.3350    0.0367   -1.3130 C   0  0  0  0  0  0  0  0  0  0  0  0
    2.3625   -0.2586   -0.7063 O   0  0  0  0  0  0  0  0  0  0  0  0
    0.3331   -1.4728   -3.0467 C   0  0  0  0  0  0  0  0  0  0  0  0
    2.6924    0.3404   -4.1502 H   0  0  0  0  0  0  0  0  0  0  0  0
    0.6550    0.6514   -3.2607 H   0  0  0  0  0  0  0  0  0  0  0  0
    0.8129   -2.3494   -2.5963 H   0  0  0  0  0  0  0  0  0  0  0  0
   -0.6690   -1.3857   -2.6142 H   0  0  0  0  0  0  0  0  0  0  0  0
    0.2259   -1.6670   -4.1194 H   0  0  0  0  0  0  0  0  0  0  0  0
    0.2019    0.5893   -0.7269 N   0  0  0  0  0  0  0  0  0  0  0  0
    0.1242    0.9059    0.6756 C   0  0  2  0  0  0  0  0  0  0  0  0
   -0.4109   -0.3331    1.3867 C   0  0  0  0  0  0  0  0  0  0  0  0
   -1.5820   -0.6979    1.3056 O   0  0  0  0  0  0  0  0  0  0  0  0
   -0.7867    2.1094    0.9494 C   0  0  0  0  0  0  0  0  0  0  0  0
   -0.2742    3.4503    0.3854 C   0  0  0  0  0  0  0  0  0  0  0  0
   -1.3341    4.5360    0.5919 C   0  0  0  0  0  0  0  0  0  0  0  0
    0.0869    3.3586   -1.0978 C   0  0  0  0  0  0  0  0  0  0  0  0
   -0.5975    0.8179   -1.3140 H   0  0  0  0  0  0  0  0  0  0  0  0
    1.1468    1.0939    1.0179 H   0  0  0  0  0  0  0  0  0  0  0  0
   -0.9202    2.2130    2.0355 H   0  0  0  0  0  0  0  0  0  0  0  0
   -1.7871    1.9084    0.5436 H   0  0  0  0  0  0  0  0  0  0  0  0
    0.6223    3.7545    0.9393 H   0  0  0  0  0  0  0  0  0  0  0  0
   -2.2573    4.2852    0.0588 H   0  0  0  0  0  0  0  0  0  0  0  0
   -0.9823    5.5007    0.2113 H   0  0  0  0  0  0  0  0  0  0  0  0
   -1.5777    4.6579    1.6529 H   0  0  0  0  0  0  0  0  0  0  0  0
   -0.7775    3.0568   -1.6990 H   0  0  0  0  0  0  0  0  0  0  0  0
    0.4370    4.3266   -1.4725 H   0  0  0  0  0  0  0  0  0  0  0  0
    0.8911    2.6370   -1.2688 H   0  0  0  0  0  0  0  0  0  0  0  0
    0.5858   -1.0076    2.0783 N   0  0  0  0  0  0  0  0  0  0  0  0
    0.3517   -2.2280    2.8161 C   0  0  2  0  0  0  0  0  0  0  0  0
   -0.6156   -3.0860    2.0113 C   0  0  0  0  0  0  0  0  0  0  0  0
   -1.3793   -2.6232    1.1666 O   0  0  0  0  0  0  0  0  0  0  0  0
   -0.2025   -1.9387    4.2025 C   0  0  0  0  0  0  0  0  0  0  0  0
    1.5335   -0.6424    2.0659 H   0  0  0  0  0  0  0  0  0  0  0  0
    1.3169   -2.7402    2.8945 H   0  0  0  0  0  0  0  0  0  0  0  0
   -1.1693   -1.4256    4.1442 H   0  0  0  0  0  0  0  0  0  0  0  0
   -0.3524   -2.8628    4.7706 H   0  0  0  0  0  0  0  0  0  0  0  0
    0.4807   -1.2970    4.7692 H   0  0  0  0  0  0  0  0  0  0  0  0
   -0.5561   -4.4232    2.3780 N   0  0  0  0  0  0  0  0  0  0  0  0
   -1.3858   -5.4363    1.7686 C   0  0  0  0  0  0  0  0  0  0  0  0
    0.1205   -4.7207    3.0747 H   0  0  0  0  0  0  0  0  0  0  0  0
   -2.3057   -5.5614    2.3587 H   0  0  0  0  0  0  0  0  0  0  0  0
   -1.6460   -5.1299    0.7447 H   0  0  0  0  0  0  0  0  0  0  0  0
   -0.8375   -6.3894    1.7380 H   0  0  0  0  0  0  0  0  0  0  0  0
  1  3  1  0  0  0  0
  1  7  1  0  0  0  0
  1  2  2  0  0  0  0
 37 38  1  0  0  0  0
 38 46  1  0  0  0  0
 38 39  2  0  0  0  0
  8  9  1  0  0  0  0
  9 17  1  0  0  0  0
  9 10  2  0  0  0  0
 18 19  1  0  0  0  0
 19 36  1  0  0  0  0
 19 20  2  0  0  0  0
 37 40  1  0  0  0  0
  8 11  1  0  0  0  0
 22 23  1  0  0  0  0
 22 24  1  0  0  0  0
 46 47  1  0  0  0  0
 18 21  1  0  0  0  0
 21 22  1  0  0  0  0
 36 37  1  0  0  0  0
  7  8  1  0  0  0  0
 17 18  1  0  0  0  0
  3  4  1  0  0  0  0
  3  5  1  0  0  0  0
  3  6  1  0  0  0  0
 40 43  1  0  0  0  0
 40 44  1  0  0  0  0
 40 45  1  0  0  0  0
 11 14  1  0  0  0  0
 11 15  1  0  0  0  0
 11 16  1  0  0  0  0
 23 30  1  0  0  0  0
 23 31  1  0  0  0  0
 23 32  1  0  0  0  0
 24 33  1  0  0  0  0
 24 34  1  0  0  0  0
 24 35  1  0  0  0  0
 47 49  1  0  0  0  0
 47 50  1  0  0  0  0
 47 51  1  0  0  0  0
 21 27  1  0  0  0  0
 21 28  1  0  0  0  0
 37 42  1  0  0  0  0
  8 13  1  0  0  0  0
 18 26  1  0  0  0  0
 22 29  1  0  0  0  0
 46 48  1  0  0  0  0
  7 12  1  0  0  0  0
 36 41  1  0  0  0  0
 17 25  1  0  0  0  0
M  END
$$$$

  -OEChem-05262214473D

 51 50  0     1  0  0  0  0  0999 V2000
    3.4018   -1.2440   -3.0186 C   0  0  0  0  0  0  0  0  0  0  0  0
    3.2697   -2.0909   -2.1427 O   0  0  0  0  0  0  0  0  0  0  0  0
    4.6845   -1.1645   -3.7779 C   0  0  0  0  0  0  0  0  0  0  0  0
    5.4123   -0.4862   -3.3041 H   0  0  0  0  0  0  0  0  0  0  0  0
    5.1949   -2.1387   -3.8443 H   0  0  0  0  0  0  0  0  0  0  0  0
    4.5953   -0.8128   -4.8182 H   0  0  0  0  0  0  0  0  0  0  0  0
    2.4540   -0.3103   -3.4040 N   0  0  0  0  0  0  0  0  0  0  0  0
    1.1494   -0.2128   -2.8039 C   0  0  2  0  0  0  0  0  0  0  0  0
    1.3350    0.0367   -1.3130 C   0  0  0  0  0  0  0  0  0  0  0  0
    2.3625   -0.2586   -0.7063 O   0  0  0  0  0  0  0  0  0  0  0  0
    0.3331   -1.4728   -3.0467 C   0  0  0  0  0  0  0  0  0  0  0  0
    2.6924    0.3404   -4.1502 H   0  0  0  0  0  0  0  0  0  0  0  0
    0.6550    0.6514   -3.2607 H   0  0  0  0  0  0  0  0  0  0  0  0
    0.8129   -2.3494   -2.5963 H   0  0  0  0  0  0  0  0  0  0  0  0
   -0.6690   -1.3857   -2.6142 H   0  0  0  0  0  0  0  0  0  0  0  0
    0.2259   -1.6670   -4.1194 H   0  0  0  0  0  0  0  0  0  0  0  0
    0.2019    0.5893   -0.7269 N   0  0  0  0  0  0  0  0  0  0  0  0
    0.1242    0.9059    0.6756 C   0  0  2  0  0  0  0  0  0  0  0  0
   -0.4109   -0.3331    1.3867 C   0  0  0  0  0  0  0  0  0  0  0  0
   -1.4891   -0.8526    1.1059 O   0  0  0  0  0  0  0  0  0  0  0  0
   -0.7867    2.1094    0.9494 C   0  0  0  0  0  0  0  0  0  0  0  0
   -0.2742    3.4503    0.3854 C   0  0  0  0  0  0  0  0  0  0  0  0
   -1.3341    4.5360    0.5919 C   0  0  0  0  0  0  0  0  0  0  0  0
    0.0869    3.3586   -1.0978 C   0  0  0  0  0  0  0  0  0  0  0  0
   -0.5975    0.8179   -1.3140 H   0  0  0  0  0  0  0  0  0  0  0  0
    1.1468    1.0939    1.0179 H   0  0  0  0  0  0  0  0  0  0  0  0
   -0.9202    2.2130    2.0355 H   0  0  0  0  0  0  0  0  0  0  0  0
   -1.7871    1.9084    0.5436 H   0  0  0  0  0  0  0  0  0  0  0  0
    0.6223    3.7545    0.9393 H   0  0  0  0  0  0  0  0  0  0  0  0
   -2.2573    4.2852    0.0588 H   0  0  0  0  0  0  0  0  0  0  0  0
   -0.9823    5.5007    0.2113 H   0  0  0  0  0  0  0  0  0  0  0  0
   -1.5777    4.6579    1.6529 H   0  0  0  0  0  0  0  0  0  0  0  0
   -0.7775    3.0568   -1.6990 H   0  0  0  0  0  0  0  0  0  0  0  0
    0.4370    4.3266   -1.4725 H   0  0  0  0  0  0  0  0  0  0  0  0
    0.8911    2.6370   -1.2688 H   0  0  0  0  0  0  0  0  0  0  0  0
    0.4816   -0.8160    2.3337 N   0  0  0  0  0  0  0  0  0  0  0  0
    0.2307   -1.9953    3.1305 C   0  0  2  0  0  0  0  0  0  0  0  0
   -0.4388   -3.0321    2.2382 C   0  0  0  0  0  0  0  0  0  0  0  0
   -1.0488   -2.7401    1.2117 O   0  0  0  0  0  0  0  0  0  0  0  0
   -0.6382   -1.6737    4.3365 C   0  0  0  0  0  0  0  0  0  0  0  0
    1.3631   -0.3324    2.4778 H   0  0  0  0  0  0  0  0  0  0  0  0
    1.2069   -2.3697    3.4574 H   0  0  0  0  0  0  0  0  0  0  0  0
   -1.6205   -1.2971    4.0288 H   0  0  0  0  0  0  0  0  0  0  0  0
   -0.8037   -2.5623    4.9546 H   0  0  0  0  0  0  0  0  0  0  0  0
   -0.1689   -0.9062    4.9614 H   0  0  0  0  0  0  0  0  0  0  0  0
   -0.3120   -4.3175    2.7459 N   0  0  0  0  0  0  0  0  0  0  0  0
   -0.8729   -5.4745    2.0880 C   0  0  0  0  0  0  0  0  0  0  0  0
    0.2271   -4.4691    3.5933 H   0  0  0  0  0  0  0  0  0  0  0  0
   -1.8788   -5.6720    2.4870 H   0  0  0  0  0  0  0  0  0  0  0  0
   -0.9384   -5.2853    1.0064 H   0  0  0  0  0  0  0  0  0  0  0  0
   -0.2287   -6.3475    2.2692 H   0  0  0  0  0  0  0  0  0  0  0  0
  1  3  1  0  0  0  0
  1  7  1  0  0  0  0
  1  2  2  0  0  0  0
 37 38  1  0  0  0  0
 38 46  1  0  0  0  0
 38 39  2  0  0  0  0
  8  9  1  0  0  0  0
  9 17  1  0  0  0  0
  9 10  2  0  0  0  0
 18 19  1  0  0  0  0
 19 36  1  0  0  0  0
 19 20  2  0  0  0  0
 37 40  1  0  0  0  0
  8 11  1  0  0  0  0
 22 23  1  0  0  0  0
 22 24  1  0  0  0  0
 46 47  1  0  0  0  0
 18 21  1  0  0  0  0
 21 22  1  0  0  0  0
 36 37  1  0  0  0  0
  7  8  1  0  0  0  0
 17 18  1  0  0  0  0
  3  4  1  0  0  0  0
  3  5  1  0  0  0  0
  3  6  1  0  0  0  0
 40 43  1  0  0  0  0
 40 44  1  0  0  0  0
 40 45  1  0  0  0  0
 11 14  1  0  0  0  0
 11 15  1  0  0  0  0
 11 16  1  0  0  0  0
 23 30  1  0  0  0  0
 23 31  1  0  0  0  0
 23 32  1  0  0  0  0
 24 33  1  0  0  0  0
 24 34  1  0  0  0  0
 24 35  1  0  0  0  0
 47 49  1  0  0  0  0
 47 50  1  0  0  0  0
 47 51  1  0  0  0  0
 21 27  1  0  0  0  0
 21 28  1  0  0  0  0
 37 42  1  0  0  0  0
  8 13  1  0  0  0  0
 18 26  1  0  0  0  0
 22 29  1  0  0  0  0
 46 48  1  0  0  0  0
  7 12  1  0  0  0  0
 36 41  1  0  0  0  0
 17 25  1  0  0  0  0
M  END
$$$$

  -OEChem-05262214473D

 51 50  0     1  0  0  0  0  0999 V2000
    3.4018   -1.2440   -3.0186 C   0  0  0  0  0  0  0  0  0  0  0  0
    3.2697   -2.0909   -2.1427 O   0  0  0  0  0  0  0  0  0  0  0  0
    4.6845   -1.1645   -3.7779 C   0  0  0  0  0  0  0  0  0  0  0  0
    5.4123   -0.4862   -3.3041 H   0  0  0  0  0  0  0  0  0  0  0  0
    5.1949   -2.1387   -3.8443 H   0  0  0  0  0  0  0  0  0  0  0  0
    4.5953   -0.8128   -4.8182 H   0  0  0  0  0  0  0  0  0  0  0  0
    2.4540   -0.3103   -3.4040 N   0  0  0  0  0  0  0  0  0  0  0  0
    1.1494   -0.2128   -2.8039 C   0  0  2  0  0  0  0  0  0  0  0  0
    1.3350    0.0367   -1.3130 C   0  0  0  0  0  0  0  0  0  0  0  0
    2.3625   -0.2586   -0.7063 O   0  0  0  0  0  0  0  0  0  0  0  0
    0.3331   -1.4728   -3.0467 C   0  0  0  0  0  0  0  0  0  0  0  0
    2.6924    0.3404   -4.1502 H   0  0  0  0  0  0  0  0  0  0  0  0
    0.6550    0.6514   -3.2607 H   0  0  0  0  0  0  0  0  0  0  0  0
    0.8129   -2.3494   -2.5963 H   0  0  0  0  0  0  0  0  0  0  0  0
   -0.6690   -1.3857   -2.6142 H   0  0  0  0  0  0  0  0  0  0  0  0
    0.2259   -1.6670   -4.1194 H   0  0  0  0  0  0  0  0  0  0  0  0
    0.2019    0.5893   -0.7269 N   0  0  0  0  0  0  0  0  0  0  0  0
    0.1242    0.9059    0.6756 C   0  0  2  0  0  0  0  0  0  0  0  0
   -0.4109   -0.3331    1.3867 C   0  0  0  0  0  0  0  0  0  0  0  0
   -1.3386   -1.0090    0.9466 O   0  0  0  0  0  0  0  0  0  0  0  0
   -0.7867    2.1094    0.9494 C   0  0  0  0  0  0  0  0  0  0  0  0
   -0.2742    3.4503    0.3854 C   0  0  0  0  0  0  0  0  0  0  0  0
   -1.3341    4.5360    0.5919 C   0  0  0  0  0  0  0  0  0  0  0  0
    0.0869    3.3586   -1.0978 C   0  0  0  0  0  0  0  0  0  0  0  0
   -0.5975    0.8179   -1.3140 H   0  0  0  0  0  0  0  0  0  0  0  0
    1.1468    1.0939    1.0179 H   0  0  0  0  0  0  0  0  0  0  0  0
   -0.9202    2.2130    2.0355 H   0  0  0  0  0  0  0  0  0  0  0  0
   -1.7871    1.9084    0.5436 H   0  0  0  0  0  0  0  0  0  0  0  0
    0.6223    3.7545    0.9393 H   0  0  0  0  0  0  0  0  0  0  0  0
   -2.2573    4.2852    0.0588 H   0  0  0  0  0  0  0  0  0  0  0  0
   -0.9823    5.5007    0.2113 H   0  0  0  0  0  0  0  0  0  0  0  0
   -1.5777    4.6579    1.6529 H   0  0  0  0  0  0  0  0  0  0  0  0
   -0.7775    3.0568   -1.6990 H   0  0  0  0  0  0  0  0  0  0  0  0
    0.4370    4.3266   -1.4725 H   0  0  0  0  0  0  0  0  0  0  0  0
    0.8911    2.6370   -1.2688 H   0  0  0  0  0  0  0  0  0  0  0  0
    0.3041   -0.6203    2.5411 N   0  0  0  0  0  0  0  0  0  0  0  0
    0.0196   -1.7566    3.3877 C   0  0  2  0  0  0  0  0  0  0  0  0
   -0.3223   -2.9381    2.4896 C   0  0  0  0  0  0  0  0  0  0  0  0
   -0.7250   -2.8089    1.3354 O   0  0  0  0  0  0  0  0  0  0  0  0
   -1.1192   -1.4580    4.3503 C   0  0  0  0  0  0  0  0  0  0  0  0
    1.0746   -0.0162    2.8116 H   0  0  0  0  0  0  0  0  0  0  0  0
    0.9376   -1.9739    3.9444 H   0  0  0  0  0  0  0  0  0  0  0  0
   -2.0476   -1.2378    3.8107 H   0  0  0  0  0  0  0  0  0  0  0  0
   -1.3146   -2.3098    5.0101 H   0  0  0  0  0  0  0  0  0  0  0  0
   -0.8839   -0.5896    4.9750 H   0  0  0  0  0  0  0  0  0  0  0  0
   -0.1662   -4.1526    3.1430 N   0  0  0  0  0  0  0  0  0  0  0  0
   -0.4401   -5.4205    2.5078 C   0  0  0  0  0  0  0  0  0  0  0  0
    0.1907   -4.1662    4.0939 H   0  0  0  0  0  0  0  0  0  0  0  0
   -1.4801   -5.7158    2.7108 H   0  0  0  0  0  0  0  0  0  0  0  0
   -0.2912   -5.3262    1.4220 H   0  0  0  0  0  0  0  0  0  0  0  0
    0.2426   -6.1852    2.9065 H   0  0  0  0  0  0  0  0  0  0  0  0
  1  3  1  0  0  0  0
  1  7  1  0  0  0  0
  1  2  2  0  0  0  0
 37 38  1  0  0  0  0
 38 46  1  0  0  0  0
 38 39  2  0  0  0  0
  8  9  1  0  0  0  0
  9 17  1  0  0  0  0
  9 10  2  0  0  0  0
 18 19  1  0  0  0  0
 19 36  1  0  0  0  0
 19 20  2  0  0  0  0
 37 40  1  0  0  0  0
  8 11  1  0  0  0  0
 22 23  1  0  0  0  0
 22 24  1  0  0  0  0
 46 47  1  0  0  0  0
 18 21  1  0  0  0  0
 21 22  1  0  0  0  0
 36 37  1  0  0  0  0
  7  8  1  0  0  0  0
 17 18  1  0  0  0  0
  3  4  1  0  0  0  0
  3  5  1  0  0  0  0
  3  6  1  0  0  0  0
 40 43  1  0  0  0  0
 40 44  1  0  0  0  0
 40 45  1  0  0  0  0
 11 14  1  0  0  0  0
 11 15  1  0  0  0  0
 11 16  1  0  0  0  0
 23 30  1  0  0  0  0
 23 31  1  0  0  0  0
 23 32  1  0  0  0  0
 24 33  1  0  0  0  0
 24 34  1  0  0  0  0
 24 35  1  0  0  0  0
 47 49  1  0  0  0  0
 47 50  1  0  0  0  0
 47 51  1  0  0  0  0
 21 27  1  0  0  0  0
 21 28  1  0  0  0  0
 37 42  1  0  0  0  0
  8 13  1  0  0  0  0
 18 26  1  0  0  0  0
 22 29  1  0  0  0  0
 46 48  1  0  0  0  0
  7 12  1  0  0  0  0
 36 41  1  0  0  0  0
 17 25  1  0  0  0  0
M  END
$$$$

  -OEChem-05262214473D

 51 50  0     1  0  0  0  0  0999 V2000
    3.4018   -1.2440   -3.0186 C   0  0  0  0  0  0  0  0  0  0  0  0
    3.2697   -2.0909   -2.1427 O   0  0  0  0  0  0  0  0  0  0  0  0
    4.6845   -1.1645   -3.7779 C   0  0  0  0  0  0  0  0  0  0  0  0
    5.4123   -0.4862   -3.3041 H   0  0  0  0  0  0  0  0  0  0  0  0
    5.1949   -2.1387   -3.8443 H   0  0  0  0  0  0  0  0  0  0  0  0
    4.5953   -0.8128   -4.8182 H   0  0  0  0  0  0  0  0  0  0  0  0
    2.4540   -0.3103   -3.4040 N   0  0  0  0  0  0  0  0  0  0  0  0
    1.1494   -0.2128   -2.8039 C   0  0  2  0  0  0  0  0  0  0  0  0
    1.3350    0.0367   -1.3130 C   0  0  0  0  0  0  0  0  0  0  0  0
    2.3625   -0.2586   -0.7063 O   0  0  0  0  0  0  0  0  0  0  0  0
    0.3331   -1.4728   -3.0467 C   0  0  0  0  0  0  0  0  0  0  0  0
    2.6924    0.3404   -4.1502 H   0  0  0  0  0  0  0  0  0  0  0  0
    0.6550    0.6514   -3.2607 H   0  0  0  0  0  0  0  0  0  0  0  0
    0.8129   -2.3494   -2.5963 H   0  0  0  0  0  0  0  0  0  0  0  0
   -0.6690   -1.3857   -2.6142 H   0  0  0  0  0  0  0  0  0  0  0  0
    0.2259   -1.6670   -4.1194 H   0  0  0  0  0  0  0  0  0  0  0  0
    0.2019    0.5893   -0.7269 N   0  0  0  0  0  0  0  0  0  0  0  0
    0.1242    0.9059    0.6756 C   0  0  2  0  0  0  0  0  0  0  0  0
   -0.4109   -0.3331    1.3867 C   0  0  0  0  0  0  0  0  0  0  0  0
   -1.1410   -1.1564    0.8385 O   0  0  0  0  0  0  0  0  0  0  0  0
   -0.7867    2.1094    0.9494 C   0  0  0  0  0  0  0  0  0  0  0  0
   -0.2742    3.4503    0.3854 C   0  0  0  0  0  0  0  0  0  0  0  0
   -1.3341    4.5360    0.5919 C   0  0  0  0  0  0  0  0  0  0  0  0
    0.0869    3.3586   -1.0978 C   0  0  0  0  0  0  0  0  0  0  0  0
   -0.5975    0.8179   -1.3140 H   0  0  0  0  0  0  0  0  0  0  0  0
    1.1468    1.0939    1.0179 H   0  0  0  0  0  0  0  0  0  0  0  0
   -0.9202    2.2130    2.0355 H   0  0  0  0  0  0  0  0  0  0  0  0
   -1.7871    1.9084    0.5436 H   0  0  0  0  0  0  0  0  0  0  0  0
    0.6223    3.7545    0.9393 H   0  0  0  0  0  0  0  0  0  0  0  0
   -2.2573    4.2852    0.0588 H   0  0  0  0  0  0  0  0  0  0  0  0
   -0.9823    5.5007    0.2113 H   0  0  0  0  0  0  0  0  0  0  0  0
   -1.5777    4.6579    1.6529 H   0  0  0  0  0  0  0  0  0  0  0  0
   -0.7775    3.0568   -1.6990 H   0  0  0  0  0  0  0  0  0  0  0  0
    0.4370    4.3266   -1.4725 H   0  0  0  0  0  0  0  0  0  0  0  0
    0.8911    2.6370   -1.2688 H   0  0  0  0  0  0  0  0  0  0  0  0
    0.0655   -0.4338    2.6864 N   0  0  0  0  0  0  0  0  0  0  0  0
   -0.2671   -1.5281    3.5700 C   0  0  2  0  0  0  0  0  0  0  0  0
   -0.2740   -2.8105    2.7484 C   0  0  0  0  0  0  0  0  0  0  0  0
   -0.4299   -2.8252    1.5292 O   0  0  0  0  0  0  0  0  0  0  0  0
   -1.6128   -1.3065    4.2429 C   0  0  0  0  0  0  0  0  0  0  0  0
    0.6875    0.2847    3.0448 H   0  0  0  0  0  0  0  0  0  0  0  0
    0.5274   -1.5799    4.3223 H   0  0  0  0  0  0  0  0  0  0  0  0
   -2.4214   -1.2519    3.5049 H   0  0  0  0  0  0  0  0  0  0  0  0
   -1.8502   -2.1224    4.9335 H   0  0  0  0  0  0  0  0  0  0  0  0
   -1.6157   -0.3688    4.8091 H   0  0  0  0  0  0  0  0  0  0  0  0
   -0.1288   -3.9396    3.5422 N   0  0  0  0  0  0  0  0  0  0  0  0
   -0.1168   -5.2780    2.9994 C   0  0  0  0  0  0  0  0  0  0  0  0
    0.0138   -3.8325    4.5422 H   0  0  0  0  0  0  0  0  0  0  0  0
   -1.1367   -5.6896    3.0148 H   0  0  0  0  0  0  0  0  0  0  0  0
    0.2516   -5.2500    1.9632 H   0  0  0  0  0  0  0  0  0  0  0  0
    0.5444   -5.9138    3.6065 H   0  0  0  0  0  0  0  0  0  0  0  0
  1  3  1  0  0  0  0
  1  7  1  0  0  0  0
  1  2  2  0  0  0  0
 37 38  1  0  0  0  0
 38 46  1  0  0  0  0
 38 39  2  0  0  0  0
  8  9  1  0  0  0  0
  9 17  1  0  0  0  0
  9 10  2  0  0  0  0
 18 19  1  0  0  0  0
 19 36  1  0  0  0  0
 19 20  2  0  0  0  0
 37 40  1  0  0  0  0
  8 11  1  0  0  0  0
 22 23  1  0  0  0  0
 22 24  1  0  0  0  0
 46 47  1  0  0  0  0
 18 21  1  0  0  0  0
 21 22  1  0  0  0  0
 36 37  1  0  0  0  0
  7  8  1  0  0  0  0
 17 18  1  0  0  0  0
  3  4  1  0  0  0  0
  3  5  1  0  0  0  0
  3  6  1  0  0  0  0
 40 43  1  0  0  0  0
 40 44  1  0  0  0  0
 40 45  1  0  0  0  0
 11 14  1  0  0  0  0
 11 15  1  0  0  0  0
 11 16  1  0  0  0  0
 23 30  1  0  0  0  0
 23 31  1  0  0  0  0
 23 32  1  0  0  0  0
 24 33  1  0  0  0  0
 24 34  1  0  0  0  0
 24 35  1  0  0  0  0
 47 49  1  0  0  0  0
 47 50  1  0  0  0  0
 47 51  1  0  0  0  0
 21 27  1  0  0  0  0
 21 28  1  0  0  0  0
 37 42  1  0  0  0  0
  8 13  1  0  0  0  0
 18 26  1  0  0  0  0
 22 29  1  0  0  0  0
 46 48  1  0  0  0  0
  7 12  1  0  0  0  0
 36 41  1  0  0  0  0
 17 25  1  0  0  0  0
M  END
$$$$

  -OEChem-05262214473D

 51 50  0     1  0  0  0  0  0999 V2000
    3.4018   -1.2440   -3.0186 C   0  0  0  0  0  0  0  0  0  0  0  0
    3.2697   -2.0909   -2.1427 O   0  0  0  0  0  0  0  0  0  0  0  0
    4.6845   -1.1645   -3.7779 C   0  0  0  0  0  0  0  0  0  0  0  0
    5.4123   -0.4862   -3.3041 H   0  0  0  0  0  0  0  0  0  0  0  0
    5.1949   -2.1387   -3.8443 H   0  0  0  0  0  0  0  0  0  0  0  0
    4.5953   -0.8128   -4.8182 H   0  0  0  0  0  0  0  0  0  0  0  0
    2.4540   -0.3103   -3.4040 N   0  0  0  0  0  0  0  0  0  0  0  0
    1.1494   -0.2128   -2.8039 C   0  0  2  0  0  0  0  0  0  0  0  0
    1.3350    0.0367   -1.3130 C   0  0  0  0  0  0  0  0  0  0  0  0
    2.3625   -0.2586   -0.7063 O   0  0  0  0  0  0  0  0  0  0  0  0
    0.3331   -1.4728   -3.0467 C   0  0  0  0  0  0  0  0  0  0  0  0
    2.6924    0.3404   -4.1502 H   0  0  0  0  0  0  0  0  0  0  0  0
    0.6550    0.6514   -3.2607 H   0  0  0  0  0  0  0  0  0  0  0  0
    0.8129   -2.3494   -2.5963 H   0  0  0  0  0  0  0  0  0  0  0  0
   -0.6690   -1.3857   -2.6142 H   0  0  0  0  0  0  0  0  0  0  0  0
    0.2259   -1.6670   -4.1194 H   0  0  0  0  0  0  0  0  0  0  0  0
    0.2019    0.5893   -0.7269 N   0  0  0  0  0  0  0  0  0  0  0  0
    0.1242    0.9059    0.6756 C   0  0  2  0  0  0  0  0  0  0  0  0
   -0.4109   -0.3331    1.3867 C   0  0  0  0  0  0  0  0  0  0  0  0
   -0.9095   -1.2847    0.7891 O   0  0  0  0  0  0  0  0  0  0  0  0
   -0.7867    2.1094    0.9494 C   0  0  0  0  0  0  0  0  0  0  0  0
   -0.2742    3.4503    0.3854 C   0  0  0  0  0  0  0  0  0  0  0  0
   -1.3341    4.5360    0.5919 C   0  0  0  0  0  0  0  0  0  0  0  0
    0.0869    3.3586   -1.0978 C   0  0  0  0  0  0  0  0  0  0  0  0
   -0.5975    0.8179   -1.3140 H   0  0  0  0  0  0  0  0  0  0  0  0
    1.1468    1.0939    1.0179 H   0  0  0  0  0  0  0  0  0  0  0  0
   -0.9202    2.2130    2.0355 H   0  0  0  0  0  0  0  0  0  0  0  0
   -1.7871    1.9084    0.5436 H   0  0  0  0  0  0  0  0  0  0  0  0
    0.6223    3.7545    0.9393 H   0  0  0  0  0  0  0  0  0  0  0  0
   -2.2573    4.2852    0.0588 H   0  0  0  0  0  0  0  0  0  0  0  0
   -0.9823    5.5007    0.2113 H   0  0  0  0  0  0  0  0  0  0  0  0
   -1.5777    4.6579    1.6529 H   0  0  0  0  0  0  0  0  0  0  0  0
   -0.7775    3.0568   -1.6990 H   0  0  0  0  0  0  0  0  0  0  0  0
    0.4370    4.3266   -1.4725 H   0  0  0  0  0  0  0  0  0  0  0  0
    0.8911    2.6370   -1.2688 H   0  0  0  0  0  0  0  0  0  0  0  0
   -0.2180   -0.2693    2.7597 N   0  0  0  0  0  0  0  0  0  0  0  0
   -0.6100   -1.3255    3.6650 C   0  0  2  0  0  0  0  0  0  0  0  0
   -0.2971   -2.6579    2.9969 C   0  0  0  0  0  0  0  0  0  0  0  0
   -0.1836   -2.7876    1.7798 O   0  0  0  0  0  0  0  0  0  0  0  0
   -2.0852   -1.2294    4.0217 C   0  0  0  0  0  0  0  0  0  0  0  0
    0.2284    0.5499    3.1613 H   0  0  0  0  0  0  0  0  0  0  0  0
    0.0043   -1.2145    4.5653 H   0  0  0  0  0  0  0  0  0  0  0  0
   -2.7165   -1.3383    3.1322 H   0  0  0  0  0  0  0  0  0  0  0  0
   -2.3740   -2.0131    4.7299 H   0  0  0  0  0  0  0  0  0  0  0  0
   -2.3142   -0.2589    4.4750 H   0  0  0  0  0  0  0  0  0  0  0  0
   -0.2022   -3.6931    3.9164 N   0  0  0  0  0  0  0  0  0  0  0  0
    0.0750   -5.0567    3.5292 C   0  0  0  0  0  0  0  0  0  0  0  0
   -0.2916   -3.4908    4.9077 H   0  0  0  0  0  0  0  0  0  0  0  0
   -0.8721   -5.5953    3.3782 H   0  0  0  0  0  0  0  0  0  0  0  0
    0.6528   -5.0617    2.5932 H   0  0  0  0  0  0  0  0  0  0  0  0
    0.6559   -5.5517    4.3214 H   0  0  0  0  0  0  0  0  0  0  0  0
  1  3  1  0  0  0  0
  1  7  1  0  0  0  0
  1  2  2  0  0  0  0
 37 38  1  0  0  0  0
 38 46  1  0  0  0  0
 38 39  2  0  0  0  0
  8  9  1  0  0  0  0
  9 17  1  0  0  0  0
  9 10  2  0  0  0  0
 18 19  1  0  0  0  0
 19 36  1  0  0  0  0
 19 20  2  0  0  0  0
 37 40  1  0  0  0  0
  8 11  1  0  0  0  0
 22 23  1  0  0  0  0
 22 24  1  0  0  0  0
 46 47  1  0  0  0  0
 18 21  1  0  0  0  0
 21 22  1  0  0  0  0
 36 37  1  0  0  0  0
  7  8  1  0  0  0  0
 17 18  1  0  0  0  0
  3  4  1  0  0  0  0
  3  5  1  0  0  0  0
  3  6  1  0  0  0  0
 40 43  1  0  0  0  0
 40 44  1  0  0  0  0
 40 45  1  0  0  0  0
 11 14  1  0  0  0  0
 11 15  1  0  0  0  0
 11 16  1  0  0  0  0
 23 30  1  0  0  0  0
 23 31  1  0  0  0  0
 23 32  1  0  0  0  0
 24 33  1  0  0  0  0
 24 34  1  0  0  0  0
 24 35  1  0  0  0  0
 47 49  1  0  0  0  0
 47 50  1  0  0  0  0
 47 51  1  0  0  0  0
 21 27  1  0  0  0  0
 21 28  1  0  0  0  0
 37 42  1  0  0  0  0
  8 13  1  0  0  0  0
 18 26  1  0  0  0  0
 22 29  1  0  0  0  0
 46 48  1  0  0  0  0
  7 12  1  0  0  0  0
 36 41  1  0  0  0  0
 17 25  1  0  0  0  0
M  END
$$$$

  -OEChem-05262214473D

 51 50  0     1  0  0  0  0  0999 V2000
    3.4018   -1.2440   -3.0186 C   0  0  0  0  0  0  0  0  0  0  0  0
    3.2697   -2.0909   -2.1427 O   0  0  0  0  0  0  0  0  0  0  0  0
    4.6845   -1.1645   -3.7779 C   0  0  0  0  0  0  0  0  0  0  0  0
    5.4123   -0.4862   -3.3041 H   0  0  0  0  0  0  0  0  0  0  0  0
    5.1949   -2.1387   -3.8443 H   0  0  0  0  0  0  0  0  0  0  0  0
    4.5953   -0.8128   -4.8182 H   0  0  0  0  0  0  0  0  0  0  0  0
    2.4540   -0.3103   -3.4040 N   0  0  0  0  0  0  0  0  0  0  0  0
    1.1494   -0.2128   -2.8039 C   0  0  2  0  0  0  0  0  0  0  0  0
    1.3350    0.0367   -1.3130 C   0  0  0  0  0  0  0  0  0  0  0  0
    2.3625   -0.2586   -0.7063 O   0  0  0  0  0  0  0  0  0  0  0  0
    0.3331   -1.4728   -3.0467 C   0  0  0  0  0  0  0  0  0  0  0  0
    2.6924    0.3404   -4.1502 H   0  0  0  0  0  0  0  0  0  0  0  0
    0.6550    0.6514   -3.2607 H   0  0  0  0  0  0  0  0  0  0  0  0
    0.8129   -2.3494   -2.5963 H   0  0  0  0  0  0  0  0  0  0  0  0
   -0.6690   -1.3857   -2.6142 H   0  0  0  0  0  0  0  0  0  0  0  0
    0.2259   -1.6670   -4.1194 H   0  0  0  0  0  0  0  0  0  0  0  0
    0.2019    0.5893   -0.7269 N   0  0  0  0  0  0  0  0  0  0  0  0
    0.1242    0.9059    0.6756 C   0  0  2  0  0  0  0  0  0  0  0  0
   -0.0407   -0.4125    1.4251 C   0  0  0  0  0  0  0  0  0  0  0  0
   -0.0480   -1.5056    0.8628 O   0  0  0  0  0  0  0  0  0  0  0  0
   -1.0446    1.8470    0.9944 C   0  0  0  0  0  0  0  0  0  0  0  0
   -0.9191    3.2613    0.3923 C   0  0  0  0  0  0  0  0  0  0  0  0
   -2.2058    4.0494    0.6534 C   0  0  0  0  0  0  0  0  0  0  0  0
   -0.6289    3.2320   -1.1089 C   0  0  0  0  0  0  0  0  0  0  0  0
   -0.5975    0.8179   -1.3140 H   0  0  0  0  0  0  0  0  0  0  0  0
    1.0835    1.3525    0.9560 H   0  0  0  0  0  0  0  0  0  0  0  0
   -1.1399    1.9367    2.0857 H   0  0  0  0  0  0  0  0  0  0  0  0
   -1.9826    1.3921    0.6493 H   0  0  0  0  0  0  0  0  0  0  0  0
   -0.0994    3.7931    0.8905 H   0  0  0  0  0  0  0  0  0  0  0  0
   -3.0637    3.5630    0.1771 H   0  0  0  0  0  0  0  0  0  0  0  0
   -2.1305    5.0633    0.2464 H   0  0  0  0  0  0  0  0  0  0  0  0
   -2.4134    4.1287    1.7260 H   0  0  0  0  0  0  0  0  0  0  0  0
   -1.4209    2.7096   -1.6562 H   0  0  0  0  0  0  0  0  0  0  0  0
   -0.5557    4.2487   -1.5100 H   0  0  0  0  0  0  0  0  0  0  0  0
    0.3208    2.7325   -1.3219 H   0  0  0  0  0  0  0  0  0  0  0  0
   -0.1268   -0.2238    2.7975 N   0  0  0  0  0  0  0  0  0  0  0  0
   -0.2608   -1.3111    3.7402 C   0  0  2  0  0  0  0  0  0  0  0  0
    0.6252   -2.4559    3.2667 C   0  0  0  0  0  0  0  0  0  0  0  0
    0.9885   -2.5844    2.0994 O   0  0  0  0  0  0  0  0  0  0  0  0
   -1.7084   -1.7600    3.8650 C   0  0  0  0  0  0  0  0  0  0  0  0
   -0.0851    0.7189    3.1731 H   0  0  0  0  0  0  0  0  0  0  0  0
    0.1043   -0.9406    4.7043 H   0  0  0  0  0  0  0  0  0  0  0  0
   -2.0917   -2.1345    2.9088 H   0  0  0  0  0  0  0  0  0  0  0  0
   -1.8123   -2.5644    4.6006 H   0  0  0  0  0  0  0  0  0  0  0  0
   -2.3489   -0.9279    4.1768 H   0  0  0  0  0  0  0  0  0  0  0  0
    0.9269   -3.3408    4.2924 N   0  0  0  0  0  0  0  0  0  0  0  0
    1.7425   -4.5161    4.0934 C   0  0  0  0  0  0  0  0  0  0  0  0
    0.5987   -3.1455    5.2336 H   0  0  0  0  0  0  0  0  0  0  0  0
    1.0970   -5.3761    3.8619 H   0  0  0  0  0  0  0  0  0  0  0  0
    2.4366   -4.3433    3.2577 H   0  0  0  0  0  0  0  0  0  0  0  0
    2.3156   -4.7239    5.0090 H   0  0  0  0  0  0  0  0  0  0  0  0
  1  3  1  0  0  0  0
  1  7  1  0  0  0  0
  1  2  2  0  0  0  0
 37 38  1  0  0  0  0
 38 46  1  0  0  0  0
 38 39  2  0  0  0  0
  8  9  1  0  0  0  0
  9 17  1  0  0  0  0
  9 10  2  0  0  0  0
 18 19  1  0  0  0  0
 19 36  1  0  0  0  0
 19 20  2  0  0  0  0
 37 40  1  0  0  0  0
  8 11  1  0  0  0  0
 22 23  1  0  0  0  0
 22 24  1  0  0  0  0
 46 47  1  0  0  0  0
 18 21  1  0  0  0  0
 21 22  1  0  0  0  0
 36 37  1  0  0  0  0
  7  8  1  0  0  0  0
 17 18  1  0  0  0  0
  3  4  1  0  0  0  0
  3  5  1  0  0  0  0
  3  6  1  0  0  0  0
 40 43  1  0  0  0  0
 40 44  1  0  0  0  0
 40 45  1  0  0  0  0
 11 14  1  0  0  0  0
 11 15  1  0  0  0  0
 11 16  1  0  0  0  0
 23 30  1  0  0  0  0
 23 31  1  0  0  0  0
 23 32  1  0  0  0  0
 24 33  1  0  0  0  0
 24 34  1  0  0  0  0
 24 35  1  0  0  0  0
 47 49  1  0  0  0  0
 47 50  1  0  0  0  0
 47 51  1  0  0  0  0
 21 27  1  0  0  0  0
 21 28  1  0  0  0  0
 37 42  1  0  0  0  0
  8 13  1  0  0  0  0
 18 26  1  0  0  0  0
 22 29  1  0  0  0  0
 46 48  1  0  0  0  0
  7 12  1  0  0  0  0
 36 41  1  0  0  0  0
 17 25  1  0  0  0  0
M  END
$$$$

  -OEChem-05262214473D

 51 50  0     1  0  0  0  0  0999 V2000
    3.4018   -1.2440   -3.0186 C   0  0  0  0  0  0  0  0  0  0  0  0
    3.2697   -2.0909   -2.1427 O   0  0  0  0  0  0  0  0  0  0  0  0
    4.6845   -1.1645   -3.7779 C   0  0  0  0  0  0  0  0  0  0  0  0
    5.4123   -0.4862   -3.3041 H   0  0  0  0  0  0  0  0  0  0  0  0
    5.1949   -2.1387   -3.8443 H   0  0  0  0  0  0  0  0  0  0  0  0
    4.5953   -0.8128   -4.8182 H   0  0  0  0  0  0  0  0  0  0  0  0
    2.4540   -0.3103   -3.4040 N   0  0  0  0  0  0  0  0  0  0  0  0
    1.1494   -0.2128   -2.8039 C   0  0  2  0  0  0  0  0  0  0  0  0
    1.3350    0.0367   -1.3130 C   0  0  0  0  0  0  0  0  0  0  0  0
    2.3625   -0.2586   -0.7063 O   0  0  0  0  0  0  0  0  0  0  0  0
    0.3331   -1.4728   -3.0467 C   0  0  0  0  0  0  0  0  0  0  0  0
    2.6924    0.3404   -4.1502 H   0  0  0  0  0  0  0  0  0  0  0  0
    0.6550    0.6514   -3.2607 H   0  0  0  0  0  0  0  0  0  0  0  0
    0.8129   -2.3494   -2.5963 H   0  0  0  0  0  0  0  0  0  0  0  0
   -0.6690   -1.3857   -2.6142 H   0  0  0  0  0  0  0  0  0  0  0  0
    0.2259   -1.6670   -4.1194 H   0  0  0  0  0  0  0  0  0  0  0  0
    0.2019    0.5893   -0.7269 N   0  0  0  0  0  0  0  0  0  0  0  0
    0.1242    0.9059    0.6756 C   0  0  2  0  0  0  0  0  0  0  0  0
   -0.0407   -0.4125    1.4251 C   0  0  0  0  0  0  0  0  0  0  0  0
    0.2145   -1.5048    0.9221 O   0  0  0  0  0  0  0  0  0  0  0  0
   -1.0446    1.8470    0.9944 C   0  0  0  0  0  0  0  0  0  0  0  0
   -0.9191    3.2613    0.3923 C   0  0  0  0  0  0  0  0  0  0  0  0
   -2.2058    4.0494    0.6534 C   0  0  0  0  0  0  0  0  0  0  0  0
   -0.6289    3.2320   -1.1089 C   0  0  0  0  0  0  0  0  0  0  0  0
   -0.5975    0.8179   -1.3140 H   0  0  0  0  0  0  0  0  0  0  0  0
    1.0835    1.3525    0.9560 H   0  0  0  0  0  0  0  0  0  0  0  0
   -1.1399    1.9367    2.0857 H   0  0  0  0  0  0  0  0  0  0  0  0
   -1.9826    1.3921    0.6493 H   0  0  0  0  0  0  0  0  0  0  0  0
   -0.0994    3.7931    0.8905 H   0  0  0  0  0  0  0  0  0  0  0  0
   -3.0637    3.5630    0.1771 H   0  0  0  0  0  0  0  0  0  0  0  0
   -2.1305    5.0633    0.2464 H   0  0  0  0  0  0  0  0  0  0  0  0
   -2.4134    4.1287    1.7260 H   0  0  0  0  0  0  0  0  0  0  0  0
   -1.4209    2.7096   -1.6562 H   0  0  0  0  0  0  0  0  0  0  0  0
   -0.5557    4.2487   -1.5100 H   0  0  0  0  0  0  0  0  0  0  0  0
    0.3208    2.7325   -1.3219 H   0  0  0  0  0  0  0  0  0  0  0  0
   -0.4567   -0.2182    2.7349 N   0  0  0  0  0  0  0  0  0  0  0  0
   -0.6640   -1.3008    3.6696 C   0  0  2  0  0  0  0  0  0  0  0  0
    0.4408   -2.3266    3.4536 C   0  0  0  0  0  0  0  0  0  0  0  0
    1.0711   -2.4224    2.4025 O   0  0  0  0  0  0  0  0  0  0  0  0
   -2.0353   -1.9328    3.4891 C   0  0  0  0  0  0  0  0  0  0  0  0
   -0.6180    0.7270    3.0700 H   0  0  0  0  0  0  0  0  0  0  0  0
   -0.5745   -0.8729    4.6741 H   0  0  0  0  0  0  0  0  0  0  0  0
   -2.1436   -2.3669    2.4885 H   0  0  0  0  0  0  0  0  0  0  0  0
   -2.2019   -2.7340    4.2167 H   0  0  0  0  0  0  0  0  0  0  0  0
   -2.8278   -1.1872    3.6154 H   0  0  0  0  0  0  0  0  0  0  0  0
    0.6108   -3.1508    4.5572 N   0  0  0  0  0  0  0  0  0  0  0  0
    1.5896   -4.2122    4.5942 C   0  0  0  0  0  0  0  0  0  0  0  0
    0.0573   -2.9872    5.3930 H   0  0  0  0  0  0  0  0  0  0  0  0
    1.1246   -5.1521    4.2619 H   0  0  0  0  0  0  0  0  0  0  0  0
    2.4273   -3.9618    3.9267 H   0  0  0  0  0  0  0  0  0  0  0  0
    1.9626   -4.3312    5.6221 H   0  0  0  0  0  0  0  0  0  0  0  0
  1  3  1  0  0  0  0
  1  7  1  0  0  0  0
  1  2  2  0  0  0  0
 37 38  1  0  0  0  0
 38 46  1  0  0  0  0
 38 39  2  0  0  0  0
  8  9  1  0  0  0  0
  9 17  1  0  0  0  0
  9 10  2  0  0  0  0
 18 19  1  0  0  0  0
 19 36  1  0  0  0  0
 19 20  2  0  0  0  0
 37 40  1  0  0  0  0
  8 11  1  0  0  0  0
 22 23  1  0  0  0  0
 22 24  1  0  0  0  0
 46 47  1  0  0  0  0
 18 21  1  0  0  0  0
 21 22  1  0  0  0  0
 36 37  1  0  0  0  0
  7  8  1  0  0  0  0
 17 18  1  0  0  0  0
  3  4  1  0  0  0  0
  3  5  1  0  0  0  0
  3  6  1  0  0  0  0
 40 43  1  0  0  0  0
 40 44  1  0  0  0  0
 40 45  1  0  0  0  0
 11 14  1  0  0  0  0
 11 15  1  0  0  0  0
 11 16  1  0  0  0  0
 23 30  1  0  0  0  0
 23 31  1  0  0  0  0
 23 32  1  0  0  0  0
 24 33  1  0  0  0  0
 24 34  1  0  0  0  0
 24 35  1  0  0  0  0
 47 49  1  0  0  0  0
 47 50  1  0  0  0  0
 47 51  1  0  0  0  0
 21 27  1  0  0  0  0
 21 28  1  0  0  0  0
 37 42  1  0  0  0  0
  8 13  1  0  0  0  0
 18 26  1  0  0  0  0
 22 29  1  0  0  0  0
 46 48  1  0  0  0  0
  7 12  1  0  0  0  0
 36 41  1  0  0  0  0
 17 25  1  0  0  0  0
M  END
$$$$

  -OEChem-05262214473D

 51 50  0     1  0  0  0  0  0999 V2000
    3.4018   -1.2440   -3.0186 C   0  0  0  0  0  0  0  0  0  0  0  0
    3.2697   -2.0909   -2.1427 O   0  0  0  0  0  0  0  0  0  0  0  0
    4.6845   -1.1645   -3.7779 C   0  0  0  0  0  0  0  0  0  0  0  0
    5.4123   -0.4862   -3.3041 H   0  0  0  0  0  0  0  0  0  0  0  0
    5.1949   -2.1387   -3.8443 H   0  0  0  0  0  0  0  0  0  0  0  0
    4.5953   -0.8128   -4.8182 H   0  0  0  0  0  0  0  0  0  0  0  0
    2.4540   -0.3103   -3.4040 N   0  0  0  0  0  0  0  0  0  0  0  0
    1.1494   -0.2128   -2.8039 C   0  0  2  0  0  0  0  0  0  0  0  0
    1.3350    0.0367   -1.3130 C   0  0  0  0  0  0  0  0  0  0  0  0
    2.3625   -0.2586   -0.7063 O   0  0  0  0  0  0  0  0  0  0  0  0
    0.3331   -1.4728   -3.0467 C   0  0  0  0  0  0  0  0  0  0  0  0
    2.6924    0.3404   -4.1502 H   0  0  0  0  0  0  0  0  0  0  0  0
    0.6550    0.6514   -3.2607 H   0  0  0  0  0  0  0  0  0  0  0  0
    0.8129   -2.3494   -2.5963 H   0  0  0  0  0  0  0  0  0  0  0  0
   -0.6690   -1.3857   -2.6142 H   0  0  0  0  0  0  0  0  0  0  0  0
    0.2259   -1.6670   -4.1194 H   0  0  0  0  0  0  0  0  0  0  0  0
    0.2019    0.5893   -0.7269 N   0  0  0  0  0  0  0  0  0  0  0  0
    0.1242    0.9059    0.6756 C   0  0  2  0  0  0  0  0  0  0  0  0
   -0.0407   -0.4125    1.4251 C   0  0  0  0  0  0  0  0  0  0  0  0
    0.4548   -1.4689    1.0380 O   0  0  0  0  0  0  0  0  0  0  0  0
   -1.0446    1.8470    0.9944 C   0  0  0  0  0  0  0  0  0  0  0  0
   -0.9191    3.2613    0.3923 C   0  0  0  0  0  0  0  0  0  0  0  0
   -2.2058    4.0494    0.6534 C   0  0  0  0  0  0  0  0  0  0  0  0
   -0.6289    3.2320   -1.1089 C   0  0  0  0  0  0  0  0  0  0  0  0
   -0.5975    0.8179   -1.3140 H   0  0  0  0  0  0  0  0  0  0  0  0
    1.0835    1.3525    0.9560 H   0  0  0  0  0  0  0  0  0  0  0  0
   -1.1399    1.9367    2.0857 H   0  0  0  0  0  0  0  0  0  0  0  0
   -1.9826    1.3921    0.6493 H   0  0  0  0  0  0  0  0  0  0  0  0
   -0.0994    3.7931    0.8905 H   0  0  0  0  0  0  0  0  0  0  0  0
   -3.0637    3.5630    0.1771 H   0  0  0  0  0  0  0  0  0  0  0  0
   -2.1305    5.0633    0.2464 H   0  0  0  0  0  0  0  0  0  0  0  0
   -2.4134    4.1287    1.7260 H   0  0  0  0  0  0  0  0  0  0  0  0
   -1.4209    2.7096   -1.6562 H   0  0  0  0  0  0  0  0  0  0  0  0
   -0.5557    4.2487   -1.5100 H   0  0  0  0  0  0  0  0  0  0  0  0
    0.3208    2.7325   -1.3219 H   0  0  0  0  0  0  0  0  0  0  0  0
   -0.7622   -0.2564    2.6005 N   0  0  0  0  0  0  0  0  0  0  0  0
   -1.0389   -1.3441    3.5110 C   0  0  2  0  0  0  0  0  0  0  0  0
    0.2045   -2.2199    3.5892 C   0  0  0  0  0  0  0  0  0  0  0  0
    1.0624   -2.2469    2.7092 O   0  0  0  0  0  0  0  0  0  0  0  0
   -2.2451   -2.1518    3.0577 C   0  0  0  0  0  0  0  0  0  0  0  0
   -1.1108    0.6641    2.8511 H   0  0  0  0  0  0  0  0  0  0  0  0
   -1.2321   -0.8947    4.4912 H   0  0  0  0  0  0  0  0  0  0  0  0
   -2.0703   -2.6098    2.0773 H   0  0  0  0  0  0  0  0  0  0  0  0
   -2.4708   -2.9580    3.7635 H   0  0  0  0  0  0  0  0  0  0  0  0
   -3.1318   -1.5143    2.9733 H   0  0  0  0  0  0  0  0  0  0  0  0
    0.2222   -3.0000    4.7370 N   0  0  0  0  0  0  0  0  0  0  0  0
    1.2912   -3.9242    5.0352 C   0  0  0  0  0  0  0  0  0  0  0  0
   -0.5215   -2.8987    5.4214 H   0  0  0  0  0  0  0  0  0  0  0  0
    1.0333   -4.9211    4.6482 H   0  0  0  0  0  0  0  0  0  0  0  0
    2.2202   -3.5757    4.5603 H   0  0  0  0  0  0  0  0  0  0  0  0
    1.4346   -3.9796    6.1244 H   0  0  0  0  0  0  0  0  0  0  0  0
  1  3  1  0  0  0  0
  1  7  1  0  0  0  0
  1  2  2  0  0  0  0
 37 38  1  0  0  0  0
 38 46  1  0  0  0  0
 38 39  2  0  0  0  0
  8  9  1  0  0  0  0
  9 17  1  0  0  0  0
  9 10  2  0  0  0  0
 18 19  1  0  0  0  0
 19 36  1  0  0  0  0
 19 20  2  0  0  0  0
 37 40  1  0  0  0  0
  8 11  1  0  0  0  0
 22 23  1  0  0  0  0
 22 24  1  0  0  0  0
 46 47  1  0  0  0  0
 18 21  1  0  0  0  0
 21 22  1  0  0  0  0
 36 37  1  0  0  0  0
  7  8  1  0  0  0  0
 17 18  1  0  0  0  0
  3  4  1  0  0  0  0
  3  5  1  0  0  0  0
  3  6  1  0  0  0  0
 40 43  1  0  0  0  0
 40 44  1  0  0  0  0
 40 45  1  0  0  0  0
 11 14  1  0  0  0  0
 11 15  1  0  0  0  0
 11 16  1  0  0  0  0
 23 30  1  0  0  0  0
 23 31  1  0  0  0  0
 23 32  1  0  0  0  0
 24 33  1  0  0  0  0
 24 34  1  0  0  0  0
 24 35  1  0  0  0  0
 47 49  1  0  0  0  0
 47 50  1  0  0  0  0
 47 51  1  0  0  0  0
 21 27  1  0  0  0  0
 21 28  1  0  0  0  0
 37 42  1  0  0  0  0
  8 13  1  0  0  0  0
 18 26  1  0  0  0  0
 22 29  1  0  0  0  0
 46 48  1  0  0  0  0
  7 12  1  0  0  0  0
 36 41  1  0  0  0  0
 17 25  1  0  0  0  0
M  END
$$$$

  -OEChem-05262214473D

 51 50  0     1  0  0  0  0  0999 V2000
    3.4018   -1.2440   -3.0186 C   0  0  0  0  0  0  0  0  0  0  0  0
    3.2697   -2.0909   -2.1427 O   0  0  0  0  0  0  0  0  0  0  0  0
    4.6845   -1.1645   -3.7779 C   0  0  0  0  0  0  0  0  0  0  0  0
    5.4123   -0.4862   -3.3041 H   0  0  0  0  0  0  0  0  0  0  0  0
    5.1949   -2.1387   -3.8443 H   0  0  0  0  0  0  0  0  0  0  0  0
    4.5953   -0.8128   -4.8182 H   0  0  0  0  0  0  0  0  0  0  0  0
    2.4540   -0.3103   -3.4040 N   0  0  0  0  0  0  0  0  0  0  0  0
    1.1494   -0.2128   -2.8039 C   0  0  2  0  0  0  0  0  0  0  0  0
    1.3350    0.0367   -1.3130 C   0  0  0  0  0  0  0  0  0  0  0  0
    2.3625   -0.2586   -0.7063 O   0  0  0  0  0  0  0  0  0  0  0  0
    0.3331   -1.4728   -3.0467 C   0  0  0  0  0  0  0  0  0  0  0  0
    2.6924    0.3404   -4.1502 H   0  0  0  0  0  0  0  0  0  0  0  0
    0.6550    0.6514   -3.2607 H   0  0  0  0  0  0  0  0  0  0  0  0
    0.8129   -2.3494   -2.5963 H   0  0  0  0  0  0  0  0  0  0  0  0
   -0.6690   -1.3857   -2.6142 H   0  0  0  0  0  0  0  0  0  0  0  0
    0.2259   -1.6670   -4.1194 H   0  0  0  0  0  0  0  0  0  0  0  0
    0.2019    0.5893   -0.7269 N   0  0  0  0  0  0  0  0  0  0  0  0
    0.1242    0.9059    0.6756 C   0  0  2  0  0  0  0  0  0  0  0  0
   -0.0407   -0.4125    1.4251 C   0  0  0  0  0  0  0  0  0  0  0  0
    0.6564   -1.4004    1.2028 O   0  0  0  0  0  0  0  0  0  0  0  0
   -1.0446    1.8470    0.9944 C   0  0  0  0  0  0  0  0  0  0  0  0
   -0.9191    3.2613    0.3923 C   0  0  0  0  0  0  0  0  0  0  0  0
   -2.2058    4.0494    0.6534 C   0  0  0  0  0  0  0  0  0  0  0  0
   -0.6289    3.2320   -1.1089 C   0  0  0  0  0  0  0  0  0  0  0  0
   -0.5975    0.8179   -1.3140 H   0  0  0  0  0  0  0  0  0  0  0  0
    1.0835    1.3525    0.9560 H   0  0  0  0  0  0  0  0  0  0  0  0
   -1.1399    1.9367    2.0857 H   0  0  0  0  0  0  0  0  0  0  0  0
   -1.9826    1.3921    0.6493 H   0  0  0  0  0  0  0  0  0  0  0  0
   -0.0994    3.7931    0.8905 H   0  0  0  0  0  0  0  0  0  0  0  0
   -3.0637    3.5630    0.1771 H   0  0  0  0  0  0  0  0  0  0  0  0
   -2.1305    5.0633    0.2464 H   0  0  0  0  0  0  0  0  0  0  0  0
   -2.4134    4.1287    1.7260 H   0  0  0  0  0  0  0  0  0  0  0  0
   -1.4209    2.7096   -1.6562 H   0  0  0  0  0  0  0  0  0  0  0  0
   -0.5557    4.2487   -1.5100 H   0  0  0  0  0  0  0  0  0  0  0  0
    0.3208    2.7325   -1.3219 H   0  0  0  0  0  0  0  0  0  0  0  0
   -1.0223   -0.3359    2.4034 N   0  0  0  0  0  0  0  0  0  0  0  0
   -1.3602   -1.4380    3.2751 C   0  0  2  0  0  0  0  0  0  0  0  0
   -0.0676   -2.1432    3.6644 C   0  0  0  0  0  0  0  0  0  0  0  0
    0.9632   -2.0700    2.9986 O   0  0  0  0  0  0  0  0  0  0  0  0
   -2.3233   -2.4022    2.6002 C   0  0  0  0  0  0  0  0  0  0  0  0
   -1.5298    0.5346    2.5311 H   0  0  0  0  0  0  0  0  0  0  0  0
   -1.8235   -1.0045    4.1681 H   0  0  0  0  0  0  0  0  0  0  0  0
   -1.8766   -2.8467    1.7034 H   0  0  0  0  0  0  0  0  0  0  0  0
   -2.6006   -3.2212    3.2719 H   0  0  0  0  0  0  0  0  0  0  0  0
   -3.2402   -1.8868    2.2942 H   0  0  0  0  0  0  0  0  0  0  0  0
   -0.2127   -2.8987    4.8195 N   0  0  0  0  0  0  0  0  0  0  0  0
    0.8677   -3.6716    5.3864 C   0  0  0  0  0  0  0  0  0  0  0  0
   -1.0982   -2.8860    5.3169 H   0  0  0  0  0  0  0  0  0  0  0  0
    0.8294   -4.6987    4.9945 H   0  0  0  0  0  0  0  0  0  0  0  0
    1.8293   -3.2114    5.1151 H   0  0  0  0  0  0  0  0  0  0  0  0
    0.7676   -3.6931    6.4816 H   0  0  0  0  0  0  0  0  0  0  0  0
  1  3  1  0  0  0  0
  1  7  1  0  0  0  0
  1  2  2  0  0  0  0
 37 38  1  0  0  0  0
 38 46  1  0  0  0  0
 38 39  2  0  0  0  0
  8  9  1  0  0  0  0
  9 17  1  0  0  0  0
  9 10  2  0  0  0  0
 18 19  1  0  0  0  0
 19 36  1  0  0  0  0
 19 20  2  0  0  0  0
 37 40  1  0  0  0  0
  8 11  1  0  0  0  0
 22 23  1  0  0  0  0
 22 24  1  0  0  0  0
 46 47  1  0  0  0  0
 18 21  1  0  0  0  0
 21 22  1  0  0  0  0
 36 37  1  0  0  0  0
  7  8  1  0  0  0  0
 17 18  1  0  0  0  0
  3  4  1  0  0  0  0
  3  5  1  0  0  0  0
  3  6  1  0  0  0  0
 40 43  1  0  0  0  0
 40 44  1  0  0  0  0
 40 45  1  0  0  0  0
 11 14  1  0  0  0  0
 11 15  1  0  0  0  0
 11 16  1  0  0  0  0
 23 30  1  0  0  0  0
 23 31  1  0  0  0  0
 23 32  1  0  0  0  0
 24 33  1  0  0  0  0
 24 34  1  0  0  0  0
 24 35  1  0  0  0  0
 47 49  1  0  0  0  0
 47 50  1  0  0  0  0
 47 51  1  0  0  0  0
 21 27  1  0  0  0  0
 21 28  1  0  0  0  0
 37 42  1  0  0  0  0
  8 13  1  0  0  0  0
 18 26  1  0  0  0  0
 22 29  1  0  0  0  0
 46 48  1  0  0  0  0
  7 12  1  0  0  0  0
 36 41  1  0  0  0  0
 17 25  1  0  0  0  0
M  END
$$$$

  -OEChem-05262214473D

 51 50  0     1  0  0  0  0  0999 V2000
    3.4018   -1.2440   -3.0186 C   0  0  0  0  0  0  0  0  0  0  0  0
    3.2697   -2.0909   -2.1427 O   0  0  0  0  0  0  0  0  0  0  0  0
    4.6845   -1.1645   -3.7779 C   0  0  0  0  0  0  0  0  0  0  0  0
    5.4123   -0.4862   -3.3041 H   0  0  0  0  0  0  0  0  0  0  0  0
    5.1949   -2.1387   -3.8443 H   0  0  0  0  0  0  0  0  0  0  0  0
    4.5953   -0.8128   -4.8182 H   0  0  0  0  0  0  0  0  0  0  0  0
    2.4540   -0.3103   -3.4040 N   0  0  0  0  0  0  0  0  0  0  0  0
    1.1494   -0.2128   -2.8039 C   0  0  2  0  0  0  0  0  0  0  0  0
    1.3350    0.0367   -1.3130 C   0  0  0  0  0  0  0  0  0  0  0  0
    2.3625   -0.2586   -0.7063 O   0  0  0  0  0  0  0  0  0  0  0  0
    0.3331   -1.4728   -3.0467 C   0  0  0  0  0  0  0  0  0  0  0  0
    2.6924    0.3404   -4.1502 H   0  0  0  0  0  0  0  0  0  0  0  0
    0.6550    0.6514   -3.2607 H   0  0  0  0  0  0  0  0  0  0  0  0
    0.8129   -2.3494   -2.5963 H   0  0  0  0  0  0  0  0  0  0  0  0
   -0.6690   -1.3857   -2.6142 H   0  0  0  0  0  0  0  0  0  0  0  0
    0.2259   -1.6670   -4.1194 H   0  0  0  0  0  0  0  0  0  0  0  0
    0.2019    0.5893   -0.7269 N   0  0  0  0  0  0  0  0  0  0  0  0
    0.1242    0.9059    0.6756 C   0  0  2  0  0  0  0  0  0  0  0  0
   -0.0407   -0.4125    1.4251 C   0  0  0  0  0  0  0  0  0  0  0  0
    0.8055   -1.3040    1.4051 O   0  0  0  0  0  0  0  0  0  0  0  0
   -1.0446    1.8470    0.9944 C   0  0  0  0  0  0  0  0  0  0  0  0
   -0.9191    3.2613    0.3923 C   0  0  0  0  0  0  0  0  0  0  0  0
   -2.2058    4.0494    0.6534 C   0  0  0  0  0  0  0  0  0  0  0  0
   -0.6289    3.2320   -1.1089 C   0  0  0  0  0  0  0  0  0  0  0  0
   -0.5975    0.8179   -1.3140 H   0  0  0  0  0  0  0  0  0  0  0  0
    1.0835    1.3525    0.9560 H   0  0  0  0  0  0  0  0  0  0  0  0
   -1.1399    1.9367    2.0857 H   0  0  0  0  0  0  0  0  0  0  0  0
   -1.9826    1.3921    0.6493 H   0  0  0  0  0  0  0  0  0  0  0  0
   -0.0994    3.7931    0.8905 H   0  0  0  0  0  0  0  0  0  0  0  0
   -3.0637    3.5630    0.1771 H   0  0  0  0  0  0  0  0  0  0  0  0
   -2.1305    5.0633    0.2464 H   0  0  0  0  0  0  0  0  0  0  0  0
   -2.4134    4.1287    1.7260 H   0  0  0  0  0  0  0  0  0  0  0  0
   -1.4209    2.7096   -1.6562 H   0  0  0  0  0  0  0  0  0  0  0  0
   -0.5557    4.2487   -1.5100 H   0  0  0  0  0  0  0  0  0  0  0  0
    0.3208    2.7325   -1.3219 H   0  0  0  0  0  0  0  0  0  0  0  0
   -1.2193   -0.4514    2.1571 N   0  0  0  0  0  0  0  0  0  0  0  0
   -1.6057   -1.5762    2.9781 C   0  0  2  0  0  0  0  0  0  0  0  0
   -0.3570   -2.1015    3.6739 C   0  0  0  0  0  0  0  0  0  0  0  0
    0.7801   -1.9036    3.2510 O   0  0  0  0  0  0  0  0  0  0  0  0
   -2.2647   -2.6667    2.1478 C   0  0  0  0  0  0  0  0  0  0  0  0
   -1.8464    0.3472    2.1319 H   0  0  0  0  0  0  0  0  0  0  0  0
   -2.3086   -1.1947    3.7267 H   0  0  0  0  0  0  0  0  0  0  0  0
   -1.5757   -3.0612    1.3921 H   0  0  0  0  0  0  0  0  0  0  0  0
   -2.5826   -3.5058    2.7754 H   0  0  0  0  0  0  0  0  0  0  0  0
   -3.1456   -2.2794    1.6244 H   0  0  0  0  0  0  0  0  0  0  0  0
   -0.6640   -2.8539    4.7991 N   0  0  0  0  0  0  0  0  0  0  0  0
    0.3480   -3.4716    5.6238 C   0  0  0  0  0  0  0  0  0  0  0  0
   -1.6335   -2.9500    5.0866 H   0  0  0  0  0  0  0  0  0  0  0  0
    0.5266   -4.5002    5.2772 H   0  0  0  0  0  0  0  0  0  0  0  0
    1.2813   -2.8937    5.5534 H   0  0  0  0  0  0  0  0  0  0  0  0
    0.0069   -3.4913    6.6695 H   0  0  0  0  0  0  0  0  0  0  0  0
  1  3  1  0  0  0  0
  1  7  1  0  0  0  0
  1  2  2  0  0  0  0
 37 38  1  0  0  0  0
 38 46  1  0  0  0  0
 38 39  2  0  0  0  0
  8  9  1  0  0  0  0
  9 17  1  0  0  0  0
  9 10  2  0  0  0  0
 18 19  1  0  0  0  0
 19 36  1  0  0  0  0
 19 20  2  0  0  0  0
 37 40  1  0  0  0  0
  8 11  1  0  0  0  0
 22 23  1  0  0  0  0
 22 24  1  0  0  0  0
 46 47  1  0  0  0  0
 18 21  1  0  0  0  0
 21 22  1  0  0  0  0
 36 37  1  0  0  0  0
  7  8  1  0  0  0  0
 17 18  1  0  0  0  0
  3  4  1  0  0  0  0
  3  5  1  0  0  0  0
  3  6  1  0  0  0  0
 40 43  1  0  0  0  0
 40 44  1  0  0  0  0
 40 45  1  0  0  0  0
 11 14  1  0  0  0  0
 11 15  1  0  0  0  0
 11 16  1  0  0  0  0
 23 30  1  0  0  0  0
 23 31  1  0  0  0  0
 23 32  1  0  0  0  0
 24 33  1  0  0  0  0
 24 34  1  0  0  0  0
 24 35  1  0  0  0  0
 47 49  1  0  0  0  0
 47 50  1  0  0  0  0
 47 51  1  0  0  0  0
 21 27  1  0  0  0  0
 21 28  1  0  0  0  0
 37 42  1  0  0  0  0
  8 13  1  0  0  0  0
 18 26  1  0  0  0  0
 22 29  1  0  0  0  0
 46 48  1  0  0  0  0
  7 12  1  0  0  0  0
 36 41  1  0  0  0  0
 17 25  1  0  0  0  0
M  END
$$$$

  -OEChem-05262214473D

 51 50  0     1  0  0  0  0  0999 V2000
    3.4018   -1.2440   -3.0186 C   0  0  0  0  0  0  0  0  0  0  0  0
    3.2697   -2.0909   -2.1427 O   0  0  0  0  0  0  0  0  0  0  0  0
    4.6845   -1.1645   -3.7779 C   0  0  0  0  0  0  0  0  0  0  0  0
    5.4123   -0.4862   -3.3041 H   0  0  0  0  0  0  0  0  0  0  0  0
    5.1949   -2.1387   -3.8443 H   0  0  0  0  0  0  0  0  0  0  0  0
    4.5953   -0.8128   -4.8182 H   0  0  0  0  0  0  0  0  0  0  0  0
    2.4540   -0.3103   -3.4040 N   0  0  0  0  0  0  0  0  0  0  0  0
    1.1494   -0.2128   -2.8039 C   0  0  2  0  0  0  0  0  0  0  0  0
    1.3350    0.0367   -1.3130 C   0  0  0  0  0  0  0  0  0  0  0  0
    2.3625   -0.2586   -0.7063 O   0  0  0  0  0  0  0  0  0  0  0  0
    0.3331   -1.4728   -3.0467 C   0  0  0  0  0  0  0  0  0  0  0  0
    2.6924    0.3404   -4.1502 H   0  0  0  0  0  0  0  0  0  0  0  0
    0.6550    0.6514   -3.2607 H   0  0  0  0  0  0  0  0  0  0  0  0
    0.8129   -2.3494   -2.5963 H   0  0  0  0  0  0  0  0  0  0  0  0
   -0.6690   -1.3857   -2.6142 H   0  0  0  0  0  0  0  0  0  0  0  0
    0.2259   -1.6670   -4.1194 H   0  0  0  0  0  0  0  0  0  0  0  0
    0.2019    0.5893   -0.7269 N   0  0  0  0  0  0  0  0  0  0  0  0
    0.1242    0.9059    0.6756 C   0  0  2  0  0  0  0  0  0  0  0  0
   -0.0407   -0.4125    1.4251 C   0  0  0  0  0  0  0  0  0  0  0  0
    0.8921   -1.1863    1.6312 O   0  0  0  0  0  0  0  0  0  0  0  0
   -1.0446    1.8470    0.9944 C   0  0  0  0  0  0  0  0  0  0  0  0
   -0.9191    3.2613    0.3923 C   0  0  0  0  0  0  0  0  0  0  0  0
   -2.2058    4.0494    0.6534 C   0  0  0  0  0  0  0  0  0  0  0  0
   -0.6289    3.2320   -1.1089 C   0  0  0  0  0  0  0  0  0  0  0  0
   -0.5975    0.8179   -1.3140 H   0  0  0  0  0  0  0  0  0  0  0  0
    1.0835    1.3525    0.9560 H   0  0  0  0  0  0  0  0  0  0  0  0
   -1.1399    1.9367    2.0857 H   0  0  0  0  0  0  0  0  0  0  0  0
   -1.9826    1.3921    0.6493 H   0  0  0  0  0  0  0  0  0  0  0  0
   -0.0994    3.7931    0.8905 H   0  0  0  0  0  0  0  0  0  0  0  0
   -3.0637    3.5630    0.1771 H   0  0  0  0  0  0  0  0  0  0  0  0
   -2.1305    5.0633    0.2464 H   0  0  0  0  0  0  0  0  0  0  0  0
   -2.4134    4.1287    1.7260 H   0  0  0  0  0  0  0  0  0  0  0  0
   -1.4209    2.7096   -1.6562 H   0  0  0  0  0  0  0  0  0  0  0  0
   -0.5557    4.2487   -1.5100 H   0  0  0  0  0  0  0  0  0  0  0  0
    0.3208    2.7325   -1.3219 H   0  0  0  0  0  0  0  0  0  0  0  0
   -1.3399   -0.5948    1.8783 N   0  0  0  0  0  0  0  0  0  0  0  0
   -1.7589   -1.7492    2.6400 C   0  0  2  0  0  0  0  0  0  0  0  0
   -0.6441   -2.0979    3.6173 C   0  0  0  0  0  0  0  0  0  0  0  0
    0.5256   -1.7591    3.4492 O   0  0  0  0  0  0  0  0  0  0  0  0
   -2.0733   -2.9274    1.7313 C   0  0  0  0  0  0  0  0  0  0  0  0
   -2.0392    0.1148    1.6808 H   0  0  0  0  0  0  0  0  0  0  0  0
   -2.6542   -1.4525    3.1972 H   0  0  0  0  0  0  0  0  0  0  0  0
   -1.1881   -3.2389    1.1648 H   0  0  0  0  0  0  0  0  0  0  0  0
   -2.4180   -3.7922    2.3078 H   0  0  0  0  0  0  0  0  0  0  0  0
   -2.8545   -2.6654    1.0096 H   0  0  0  0  0  0  0  0  0  0  0  0
   -1.1011   -2.8685    4.6772 N   0  0  0  0  0  0  0  0  0  0  0  0
   -0.2326   -3.3379    5.7313 C   0  0  0  0  0  0  0  0  0  0  0  0
   -2.0909   -3.0863    4.7463 H   0  0  0  0  0  0  0  0  0  0  0  0
    0.1457   -4.3390    5.4770 H   0  0  0  0  0  0  0  0  0  0  0  0
    0.6135   -2.6443    5.8452 H   0  0  0  0  0  0  0  0  0  0  0  0
   -0.7955   -3.3877    6.6751 H   0  0  0  0  0  0  0  0  0  0  0  0
  1  3  1  0  0  0  0
  1  7  1  0  0  0  0
  1  2  2  0  0  0  0
 37 38  1  0  0  0  0
 38 46  1  0  0  0  0
 38 39  2  0  0  0  0
  8  9  1  0  0  0  0
  9 17  1  0  0  0  0
  9 10  2  0  0  0  0
 18 19  1  0  0  0  0
 19 36  1  0  0  0  0
 19 20  2  0  0  0  0
 37 40  1  0  0  0  0
  8 11  1  0  0  0  0
 22 23  1  0  0  0  0
 22 24  1  0  0  0  0
 46 47  1  0  0  0  0
 18 21  1  0  0  0  0
 21 22  1  0  0  0  0
 36 37  1  0  0  0  0
  7  8  1  0  0  0  0
 17 18  1  0  0  0  0
  3  4  1  0  0  0  0
  3  5  1  0  0  0  0
  3  6  1  0  0  0  0
 40 43  1  0  0  0  0
 40 44  1  0  0  0  0
 40 45  1  0  0  0  0
 11 14  1  0  0  0  0
 11 15  1  0  0  0  0
 11 16  1  0  0  0  0
 23 30  1  0  0  0  0
 23 31  1  0  0  0  0
 23 32  1  0  0  0  0
 24 33  1  0  0  0  0
 24 34  1  0  0  0  0
 24 35  1  0  0  0  0
 47 49  1  0  0  0  0
 47 50  1  0  0  0  0
 47 51  1  0  0  0  0
 21 27  1  0  0  0  0
 21 28  1  0  0  0  0
 37 42  1  0  0  0  0
  8 13  1  0  0  0  0
 18 26  1  0  0  0  0
 22 29  1  0  0  0  0
 46 48  1  0  0  0  0
  7 12  1  0  0  0  0
 36 41  1  0  0  0  0
 17 25  1  0  0  0  0
M  END
$$$$

  -OEChem-05262214473D

 51 50  0     1  0  0  0  0  0999 V2000
    3.4018   -1.2440   -3.0186 C   0  0  0  0  0  0  0  0  0  0  0  0
    3.2697   -2.0909   -2.1427 O   0  0  0  0  0  0  0  0  0  0  0  0
    4.6845   -1.1645   -3.7779 C   0  0  0  0  0  0  0  0  0  0  0  0
    5.4123   -0.4862   -3.3041 H   0  0  0  0  0  0  0  0  0  0  0  0
    5.1949   -2.1387   -3.8443 H   0  0  0  0  0  0  0  0  0  0  0  0
    4.5953   -0.8128   -4.8182 H   0  0  0  0  0  0  0  0  0  0  0  0
    2.4540   -0.3103   -3.4040 N   0  0  0  0  0  0  0  0  0  0  0  0
    1.1494   -0.2128   -2.8039 C   0  0  2  0  0  0  0  0  0  0  0  0
    1.3350    0.0367   -1.3130 C   0  0  0  0  0  0  0  0  0  0  0  0
    2.3625   -0.2586   -0.7063 O   0  0  0  0  0  0  0  0  0  0  0  0
    0.3331   -1.4728   -3.0467 C   0  0  0  0  0  0  0  0  0  0  0  0
    2.6924    0.3404   -4.1502 H   0  0  0  0  0  0  0  0  0  0  0  0
    0.6550    0.6514   -3.2607 H   0  0  0  0  0  0  0  0  0  0  0  0
    0.8129   -2.3494   -2.5963 H   0  0  0  0  0  0  0  0  0  0  0  0
   -0.6690   -1.3857   -2.6142 H   0  0  0  0  0  0  0  0  0  0  0  0
    0.2259   -1.6670   -4.1194 H   0  0  0  0  0  0  0  0  0  0  0  0
    0.2019    0.5893   -0.7269 N   0  0  0  0  0  0  0  0  0  0  0  0
    0.1242    0.9059    0.6756 C   0  0  2  0  0  0  0  0  0  0  0  0
   -0.0407   -0.4125    1.4251 C   0  0  0  0  0  0  0  0  0  0  0  0
    0.9101   -1.0553    1.8657 O   0  0  0  0  0  0  0  0  0  0  0  0
   -1.0446    1.8470    0.9944 C   0  0  0  0  0  0  0  0  0  0  0  0
   -0.9191    3.2613    0.3923 C   0  0  0  0  0  0  0  0  0  0  0  0
   -2.2058    4.0494    0.6534 C   0  0  0  0  0  0  0  0  0  0  0  0
   -0.6289    3.2320   -1.1089 C   0  0  0  0  0  0  0  0  0  0  0  0
   -0.5975    0.8179   -1.3140 H   0  0  0  0  0  0  0  0  0  0  0  0
    1.0835    1.3525    0.9560 H   0  0  0  0  0  0  0  0  0  0  0  0
   -1.1399    1.9367    2.0857 H   0  0  0  0  0  0  0  0  0  0  0  0
   -1.9826    1.3921    0.6493 H   0  0  0  0  0  0  0  0  0  0  0  0
   -0.0994    3.7931    0.8905 H   0  0  0  0  0  0  0  0  0  0  0  0
   -3.0637    3.5630    0.1771 H   0  0  0  0  0  0  0  0  0  0  0  0
   -2.1305    5.0633    0.2464 H   0  0  0  0  0  0  0  0  0  0  0  0
   -2.4134    4.1287    1.7260 H   0  0  0  0  0  0  0  0  0  0  0  0
   -1.4209    2.7096   -1.6562 H   0  0  0  0  0  0  0  0  0  0  0  0
   -0.5557    4.2487   -1.5100 H   0  0  0  0  0  0  0  0  0  0  0  0
    0.3208    2.7325   -1.3219 H   0  0  0  0  0  0  0  0  0  0  0  0
   -1.3757   -0.7564    1.5861 N   0  0  0  0  0  0  0  0  0  0  0  0
   -1.8093   -1.9453    2.2841 C   0  0  2  0  0  0  0  0  0  0  0  0
   -0.9091   -2.1324    3.4983 C   0  0  0  0  0  0  0  0  0  0  0  0
    0.2171   -1.6464    3.5796 O   0  0  0  0  0  0  0  0  0  0  0  0
   -1.7621   -3.1665    1.3791 C   0  0  0  0  0  0  0  0  0  0  0  0
   -2.0949   -0.1468    1.2084 H   0  0  0  0  0  0  0  0  0  0  0  0
   -2.8369   -1.7603    2.6157 H   0  0  0  0  0  0  0  0  0  0  0  0
   -0.7404   -3.3676    1.0369 H   0  0  0  0  0  0  0  0  0  0  0  0
   -2.1179   -4.0611    1.9009 H   0  0  0  0  0  0  0  0  0  0  0  0
   -2.3867   -3.0183    0.4916 H   0  0  0  0  0  0  0  0  0  0  0  0
   -1.4942   -2.9417    4.4620 N   0  0  0  0  0  0  0  0  0  0  0  0
   -0.8344   -3.2796    5.7016 C   0  0  0  0  0  0  0  0  0  0  0  0
   -2.4392   -3.2857    4.3190 H   0  0  0  0  0  0  0  0  0  0  0  0
   -0.2873   -4.2261    5.5802 H   0  0  0  0  0  0  0  0  0  0  0  0
   -0.1285   -2.4801    5.9708 H   0  0  0  0  0  0  0  0  0  0  0  0
   -1.5850   -3.3896    6.4982 H   0  0  0  0  0  0  0  0  0  0  0  0
  1  3  1  0  0  0  0
  1  7  1  0  0  0  0
  1  2  2  0  0  0  0
 37 38  1  0  0  0  0
 38 46  1  0  0  0  0
 38 39  2  0  0  0  0
  8  9  1  0  0  0  0
  9 17  1  0  0  0  0
  9 10  2  0  0  0  0
 18 19  1  0  0  0  0
 19 36  1  0  0  0  0
 19 20  2  0  0  0  0
 37 40  1  0  0  0  0
  8 11  1  0  0  0  0
 22 23  1  0  0  0  0
 22 24  1  0  0  0  0
 46 47  1  0  0  0  0
 18 21  1  0  0  0  0
 21 22  1  0  0  0  0
 36 37  1  0  0  0  0
  7  8  1  0  0  0  0
 17 18  1  0  0  0  0
  3  4  1  0  0  0  0
  3  5  1  0  0  0  0
  3  6  1  0  0  0  0
 40 43  1  0  0  0  0
 40 44  1  0  0  0  0
 40 45  1  0  0  0  0
 11 14  1  0  0  0  0
 11 15  1  0  0  0  0
 11 16  1  0  0  0  0
 23 30  1  0  0  0  0
 23 31  1  0  0  0  0
 23 32  1  0  0  0  0
 24 33  1  0  0  0  0
 24 34  1  0  0  0  0
 24 35  1  0  0  0  0
 47 49  1  0  0  0  0
 47 50  1  0  0  0  0
 47 51  1  0  0  0  0
 21 27  1  0  0  0  0
 21 28  1  0  0  0  0
 37 42  1  0  0  0  0
  8 13  1  0  0  0  0
 18 26  1  0  0  0  0
 22 29  1  0  0  0  0
 46 48  1  0  0  0  0
  7 12  1  0  0  0  0
 36 41  1  0  0  0  0
 17 25  1  0  0  0  0
M  END
$$$$

  -OEChem-05262214473D

 51 50  0     1  0  0  0  0  0999 V2000
    3.4018   -1.2440   -3.0186 C   0  0  0  0  0  0  0  0  0  0  0  0
    3.2697   -2.0909   -2.1427 O   0  0  0  0  0  0  0  0  0  0  0  0
    4.6845   -1.1645   -3.7779 C   0  0  0  0  0  0  0  0  0  0  0  0
    5.4123   -0.4862   -3.3041 H   0  0  0  0  0  0  0  0  0  0  0  0
    5.1949   -2.1387   -3.8443 H   0  0  0  0  0  0  0  0  0  0  0  0
    4.5953   -0.8128   -4.8182 H   0  0  0  0  0  0  0  0  0  0  0  0
    2.4540   -0.3103   -3.4040 N   0  0  0  0  0  0  0  0  0  0  0  0
    1.1494   -0.2128   -2.8039 C   0  0  2  0  0  0  0  0  0  0  0  0
    1.3350    0.0367   -1.3130 C   0  0  0  0  0  0  0  0  0  0  0  0
    2.3625   -0.2586   -0.7063 O   0  0  0  0  0  0  0  0  0  0  0  0
    0.3331   -1.4728   -3.0467 C   0  0  0  0  0  0  0  0  0  0  0  0
    2.6924    0.3404   -4.1502 H   0  0  0  0  0  0  0  0  0  0  0  0
    0.6550    0.6514   -3.2607 H   0  0  0  0  0  0  0  0  0  0  0  0
    0.8129   -2.3494   -2.5963 H   0  0  0  0  0  0  0  0  0  0  0  0
   -0.6690   -1.3857   -2.6142 H   0  0  0  0  0  0  0  0  0  0  0  0
    0.2259   -1.6670   -4.1194 H   0  0  0  0  0  0  0  0  0  0  0  0
    0.2019    0.5893   -0.7269 N   0  0  0  0  0  0  0  0  0  0  0  0
    0.1242    0.9059    0.6756 C   0  0  2  0  0  0  0  0  0  0  0  0
   -0.0407   -0.4125    1.4251 C   0  0  0  0  0  0  0  0  0  0  0  0
    0.8584   -0.9198    2.0925 O   0  0  0  0  0  0  0  0  0  0  0  0
   -1.0446    1.8470    0.9944 C   0  0  0  0  0  0  0  0  0  0  0  0
   -0.9191    3.2613    0.3923 C   0  0  0  0  0  0  0  0  0  0  0  0
   -2.2058    4.0494    0.6534 C   0  0  0  0  0  0  0  0  0  0  0  0
   -0.6289    3.2320   -1.1089 C   0  0  0  0  0  0  0  0  0  0  0  0
   -0.5975    0.8179   -1.3140 H   0  0  0  0  0  0  0  0  0  0  0  0
    1.0835    1.3525    0.9560 H   0  0  0  0  0  0  0  0  0  0  0  0
   -1.1399    1.9367    2.0857 H   0  0  0  0  0  0  0  0  0  0  0  0
   -1.9826    1.3921    0.6493 H   0  0  0  0  0  0  0  0  0  0  0  0
   -0.0994    3.7931    0.8905 H   0  0  0  0  0  0  0  0  0  0  0  0
   -3.0637    3.5630    0.1771 H   0  0  0  0  0  0  0  0  0  0  0  0
   -2.1305    5.0633    0.2464 H   0  0  0  0  0  0  0  0  0  0  0  0
   -2.4134    4.1287    1.7260 H   0  0  0  0  0  0  0  0  0  0  0  0
   -1.4209    2.7096   -1.6562 H   0  0  0  0  0  0  0  0  0  0  0  0
   -0.5557    4.2487   -1.5100 H   0  0  0  0  0  0  0  0  0  0  0  0
    0.3208    2.7325   -1.3219 H   0  0  0  0  0  0  0  0  0  0  0  0
   -1.3244   -0.9253    1.3003 N   0  0  0  0  0  0  0  0  0  0  0  0
   -1.7534   -2.1510    1.9346 C   0  0  2  0  0  0  0  0  0  0  0  0
   -1.1341   -2.2028    3.3250 C   0  0  0  0  0  0  0  0  0  0  0  0
   -0.1244   -1.5731    3.6335 O   0  0  0  0  0  0  0  0  0  0  0  0
   -1.3523   -3.3678    1.1152 C   0  0  0  0  0  0  0  0  0  0  0  0
   -2.0098   -0.4198    0.7469 H   0  0  0  0  0  0  0  0  0  0  0  0
   -2.8440   -2.0971    2.0217 H   0  0  0  0  0  0  0  0  0  0  0  0
   -0.2629   -3.4386    1.0171 H   0  0  0  0  0  0  0  0  0  0  0  0
   -1.7029   -4.2939    1.5826 H   0  0  0  0  0  0  0  0  0  0  0  0
   -1.7741   -3.3143    0.1058 H   0  0  0  0  0  0  0  0  0  0  0  0
   -1.8165   -3.0684    4.1683 N   0  0  0  0  0  0  0  0  0  0  0  0
   -1.4165   -3.3006    5.5366 C   0  0  0  0  0  0  0  0  0  0  0  0
   -2.6547   -3.5345    3.8340 H   0  0  0  0  0  0  0  0  0  0  0  0
   -0.7431   -4.1693    5.5799 H   0  0  0  0  0  0  0  0  0  0  0  0
   -0.8942   -2.4124    5.9216 H   0  0  0  0  0  0  0  0  0  0  0  0
   -2.3078   -3.4968    6.1507 H   0  0  0  0  0  0  0  0  0  0  0  0
  1  3  1  0  0  0  0
  1  7  1  0  0  0  0
  1  2  2  0  0  0  0
 37 38  1  0  0  0  0
 38 46  1  0  0  0  0
 38 39  2  0  0  0  0
  8  9  1  0  0  0  0
  9 17  1  0  0  0  0
  9 10  2  0  0  0  0
 18 19  1  0  0  0  0
 19 36  1  0  0  0  0
 19 20  2  0  0  0  0
 37 40  1  0  0  0  0
  8 11  1  0  0  0  0
 22 23  1  0  0  0  0
 22 24  1  0  0  0  0
 46 47  1  0  0  0  0
 18 21  1  0  0  0  0
 21 22  1  0  0  0  0
 36 37  1  0  0  0  0
  7  8  1  0  0  0  0
 17 18  1  0  0  0  0
  3  4  1  0  0  0  0
  3  5  1  0  0  0  0
  3  6  1  0  0  0  0
 40 43  1  0  0  0  0
 40 44  1  0  0  0  0
 40 45  1  0  0  0  0
 11 14  1  0  0  0  0
 11 15  1  0  0  0  0
 11 16  1  0  0  0  0
 23 30  1  0  0  0  0
 23 31  1  0  0  0  0
 23 32  1  0  0  0  0
 24 33  1  0  0  0  0
 24 34  1  0  0  0  0
 24 35  1  0  0  0  0
 47 49  1  0  0  0  0
 47 50  1  0  0  0  0
 47 51  1  0  0  0  0
 21 27  1  0  0  0  0
 21 28  1  0  0  0  0
 37 42  1  0  0  0  0
  8 13  1  0  0  0  0
 18 26  1  0  0  0  0
 22 29  1  0  0  0  0
 46 48  1  0  0  0  0
  7 12  1  0  0  0  0
 36 41  1  0  0  0  0
 17 25  1  0  0  0  0
M  END
$$$$

  -OEChem-05262214473D

 51 50  0     1  0  0  0  0  0999 V2000
    3.4018   -1.2440   -3.0186 C   0  0  0  0  0  0  0  0  0  0  0  0
    3.2697   -2.0909   -2.1427 O   0  0  0  0  0  0  0  0  0  0  0  0
    4.6845   -1.1645   -3.7779 C   0  0  0  0  0  0  0  0  0  0  0  0
    5.4123   -0.4862   -3.3041 H   0  0  0  0  0  0  0  0  0  0  0  0
    5.1949   -2.1387   -3.8443 H   0  0  0  0  0  0  0  0  0  0  0  0
    4.5953   -0.8128   -4.8182 H   0  0  0  0  0  0  0  0  0  0  0  0
    2.4540   -0.3103   -3.4040 N   0  0  0  0  0  0  0  0  0  0  0  0
    1.1494   -0.2128   -2.8039 C   0  0  2  0  0  0  0  0  0  0  0  0
    1.3350    0.0367   -1.3130 C   0  0  0  0  0  0  0  0  0  0  0  0
    2.3625   -0.2586   -0.7063 O   0  0  0  0  0  0  0  0  0  0  0  0
    0.3331   -1.4728   -3.0467 C   0  0  0  0  0  0  0  0  0  0  0  0
    2.6924    0.3404   -4.1502 H   0  0  0  0  0  0  0  0  0  0  0  0
    0.6550    0.6514   -3.2607 H   0  0  0  0  0  0  0  0  0  0  0  0
    0.8129   -2.3494   -2.5963 H   0  0  0  0  0  0  0  0  0  0  0  0
   -0.6690   -1.3857   -2.6142 H   0  0  0  0  0  0  0  0  0  0  0  0
    0.2259   -1.6670   -4.1194 H   0  0  0  0  0  0  0  0  0  0  0  0
    0.2019    0.5893   -0.7269 N   0  0  0  0  0  0  0  0  0  0  0  0
    0.1242    0.9059    0.6756 C   0  0  2  0  0  0  0  0  0  0  0  0
   -0.0407   -0.4125    1.4251 C   0  0  0  0  0  0  0  0  0  0  0  0
    0.7406   -0.7893    2.2963 O   0  0  0  0  0  0  0  0  0  0  0  0
   -1.0446    1.8470    0.9944 C   0  0  0  0  0  0  0  0  0  0  0  0
   -0.9191    3.2613    0.3923 C   0  0  0  0  0  0  0  0  0  0  0  0
   -2.2058    4.0494    0.6534 C   0  0  0  0  0  0  0  0  0  0  0  0
   -0.6289    3.2320   -1.1089 C   0  0  0  0  0  0  0  0  0  0  0  0
   -0.5975    0.8179   -1.3140 H   0  0  0  0  0  0  0  0  0  0  0  0
    1.0835    1.3525    0.9560 H   0  0  0  0  0  0  0  0  0  0  0  0
   -1.1399    1.9367    2.0857 H   0  0  0  0  0  0  0  0  0  0  0  0
   -1.9826    1.3921    0.6493 H   0  0  0  0  0  0  0  0  0  0  0  0
   -0.0994    3.7931    0.8905 H   0  0  0  0  0  0  0  0  0  0  0  0
   -3.0637    3.5630    0.1771 H   0  0  0  0  0  0  0  0  0  0  0  0
   -2.1305    5.0633    0.2464 H   0  0  0  0  0  0  0  0  0  0  0  0
   -2.4134    4.1287    1.7260 H   0  0  0  0  0  0  0  0  0  0  0  0
   -1.4209    2.7096   -1.6562 H   0  0  0  0  0  0  0  0  0  0  0  0
   -0.5557    4.2487   -1.5100 H   0  0  0  0  0  0  0  0  0  0  0  0
    0.3208    2.7325   -1.3219 H   0  0  0  0  0  0  0  0  0  0  0  0
   -1.1894   -1.0899    1.0405 N   0  0  0  0  0  0  0  0  0  0  0  0
   -1.5950   -2.3524    1.6152 C   0  0  2  0  0  0  0  0  0  0  0  0
   -1.3037   -2.3042    3.1092 C   0  0  0  0  0  0  0  0  0  0  0  0
   -0.4757   -1.5442    3.6071 O   0  0  0  0  0  0  0  0  0  0  0  0
   -0.8718   -3.5175    0.9576 C   0  0  0  0  0  0  0  0  0  0  0  0
   -1.7897   -0.6855    0.3279 H   0  0  0  0  0  0  0  0  0  0  0  0
   -2.6753   -2.4400    1.4558 H   0  0  0  0  0  0  0  0  0  0  0  0
    0.2118   -3.4470    1.1067 H   0  0  0  0  0  0  0  0  0  0  0  0
   -1.2011   -4.4750    1.3744 H   0  0  0  0  0  0  0  0  0  0  0  0
   -1.0585   -3.5330   -0.1216 H   0  0  0  0  0  0  0  0  0  0  0  0
   -2.0460   -3.2399    3.8161 N   0  0  0  0  0  0  0  0  0  0  0  0
   -1.9392   -3.3996    5.2476 C   0  0  0  0  0  0  0  0  0  0  0  0
   -2.7228   -3.8158    3.3242 H   0  0  0  0  0  0  0  0  0  0  0  0
   -1.1905   -4.1724    5.4761 H   0  0  0  0  0  0  0  0  0  0  0  0
   -1.6314   -2.4457    5.7008 H   0  0  0  0  0  0  0  0  0  0  0  0
   -2.9146   -3.7019    5.6564 H   0  0  0  0  0  0  0  0  0  0  0  0
  1  3  1  0  0  0  0
  1  7  1  0  0  0  0
  1  2  2  0  0  0  0
 37 38  1  0  0  0  0
 38 46  1  0  0  0  0
 38 39  2  0  0  0  0
  8  9  1  0  0  0  0
  9 17  1  0  0  0  0
  9 10  2  0  0  0  0
 18 19  1  0  0  0  0
 19 36  1  0  0  0  0
 19 20  2  0  0  0  0
 37 40  1  0  0  0  0
  8 11  1  0  0  0  0
 22 23  1  0  0  0  0
 22 24  1  0  0  0  0
 46 47  1  0  0  0  0
 18 21  1  0  0  0  0
 21 22  1  0  0  0  0
 36 37  1  0  0  0  0
  7  8  1  0  0  0  0
 17 18  1  0  0  0  0
  3  4  1  0  0  0  0
  3  5  1  0  0  0  0
  3  6  1  0  0  0  0
 40 43  1  0  0  0  0
 40 44  1  0  0  0  0
 40 45  1  0  0  0  0
 11 14  1  0  0  0  0
 11 15  1  0  0  0  0
 11 16  1  0  0  0  0
 23 30  1  0  0  0  0
 23 31  1  0  0  0  0
 23 32  1  0  0  0  0
 24 33  1  0  0  0  0
 24 34  1  0  0  0  0
 24 35  1  0  0  0  0
 47 49  1  0  0  0  0
 47 50  1  0  0  0  0
 47 51  1  0  0  0  0
 21 27  1  0  0  0  0
 21 28  1  0  0  0  0
 37 42  1  0  0  0  0
  8 13  1  0  0  0  0
 18 26  1  0  0  0  0
 22 29  1  0  0  0  0
 46 48  1  0  0  0  0
  7 12  1  0  0  0  0
 36 41  1  0  0  0  0
 17 25  1  0  0  0  0
M  END
$$$$

  -OEChem-05262214473D

 51 50  0     1  0  0  0  0  0999 V2000
    3.4018   -1.2440   -3.0186 C   0  0  0  0  0  0  0  0  0  0  0  0
    3.2697   -2.0909   -2.1427 O   0  0  0  0  0  0  0  0  0  0  0  0
    4.6845   -1.1645   -3.7779 C   0  0  0  0  0  0  0  0  0  0  0  0
    5.4123   -0.4862   -3.3041 H   0  0  0  0  0  0  0  0  0  0  0  0
    5.1949   -2.1387   -3.8443 H   0  0  0  0  0  0  0  0  0  0  0  0
    4.5953   -0.8128   -4.8182 H   0  0  0  0  0  0  0  0  0  0  0  0
    2.4540   -0.3103   -3.4040 N   0  0  0  0  0  0  0  0  0  0  0  0
    1.1494   -0.2128   -2.8039 C   0  0  2  0  0  0  0  0  0  0  0  0
    1.3350    0.0367   -1.3130 C   0  0  0  0  0  0  0  0  0  0  0  0
    2.3625   -0.2586   -0.7063 O   0  0  0  0  0  0  0  0  0  0  0  0
    0.3331   -1.4728   -3.0467 C   0  0  0  0  0  0  0  0  0  0  0  0
    2.6924    0.3404   -4.1502 H   0  0  0  0  0  0  0  0  0  0  0  0
    0.6550    0.6514   -3.2607 H   0  0  0  0  0  0  0  0  0  0  0  0
    0.8129   -2.3494   -2.5963 H   0  0  0  0  0  0  0  0  0  0  0  0
   -0.6690   -1.3857   -2.6142 H   0  0  0  0  0  0  0  0  0  0  0  0
    0.2259   -1.6670   -4.1194 H   0  0  0  0  0  0  0  0  0  0  0  0
    0.2019    0.5893   -0.7269 N   0  0  0  0  0  0  0  0  0  0  0  0
    0.1242    0.9059    0.6756 C   0  0  2  0  0  0  0  0  0  0  0  0
   -0.0407   -0.4125    1.4251 C   0  0  0  0  0  0  0  0  0  0  0  0
    0.5645   -0.6724    2.4631 O   0  0  0  0  0  0  0  0  0  0  0  0
   -1.0446    1.8470    0.9944 C   0  0  0  0  0  0  0  0  0  0  0  0
   -0.9191    3.2613    0.3923 C   0  0  0  0  0  0  0  0  0  0  0  0
   -2.2058    4.0494    0.6534 C   0  0  0  0  0  0  0  0  0  0  0  0
   -0.6289    3.2320   -1.1089 C   0  0  0  0  0  0  0  0  0  0  0  0
   -0.5975    0.8179   -1.3140 H   0  0  0  0  0  0  0  0  0  0  0  0
    1.0835    1.3525    0.9560 H   0  0  0  0  0  0  0  0  0  0  0  0
   -1.1399    1.9367    2.0857 H   0  0  0  0  0  0  0  0  0  0  0  0
   -1.9826    1.3921    0.6493 H   0  0  0  0  0  0  0  0  0  0  0  0
   -0.0994    3.7931    0.8905 H   0  0  0  0  0  0  0  0  0  0  0  0
   -3.0637    3.5630    0.1771 H   0  0  0  0  0  0  0  0  0  0  0  0
   -2.1305    5.0633    0.2464 H   0  0  0  0  0  0  0  0  0  0  0  0
   -2.4134    4.1287    1.7260 H   0  0  0  0  0  0  0  0  0  0  0  0
   -1.4209    2.7096   -1.6562 H   0  0  0  0  0  0  0  0  0  0  0  0
   -0.5557    4.2487   -1.5100 H   0  0  0  0  0  0  0  0  0  0  0  0
    0.3208    2.7325   -1.3219 H   0  0  0  0  0  0  0  0  0  0  0  0
   -0.9800   -1.2390    0.8243 N   0  0  0  0  0  0  0  0  0  0  0  0
   -1.3450   -2.5357    1.3477 C   0  0  2  0  0  0  0  0  0  0  0  0
   -1.4064   -2.4298    2.8658 C   0  0  0  0  0  0  0  0  0  0  0  0
   -0.8127   -1.5617    3.5022 O   0  0  0  0  0  0  0  0  0  0  0  0
   -0.3534   -3.6053    0.9171 C   0  0  0  0  0  0  0  0  0  0  0  0
   -1.4495   -0.9260   -0.0203 H   0  0  0  0  0  0  0  0  0  0  0  0
   -2.3421   -2.7655    0.9565 H   0  0  0  0  0  0  0  0  0  0  0  0
    0.6513   -3.3922    1.2997 H   0  0  0  0  0  0  0  0  0  0  0  0
   -0.6469   -4.5919    1.2906 H   0  0  0  0  0  0  0  0  0  0  0  0
   -0.2886   -3.6596   -0.1750 H   0  0  0  0  0  0  0  0  0  0  0  0
   -2.1670   -3.4447    3.4294 N   0  0  0  0  0  0  0  0  0  0  0  0
   -2.3669   -3.5697    4.8543 C   0  0  0  0  0  0  0  0  0  0  0  0
   -2.6387   -4.1104    2.8244 H   0  0  0  0  0  0  0  0  0  0  0  0
   -1.5991   -4.2352    5.2758 H   0  0  0  0  0  0  0  0  0  0  0  0
   -2.2899   -2.5778    5.3237 H   0  0  0  0  0  0  0  0  0  0  0  0
   -3.3641   -3.9911    5.0490 H   0  0  0  0  0  0  0  0  0  0  0  0
  1  3  1  0  0  0  0
  1  7  1  0  0  0  0
  1  2  2  0  0  0  0
 37 38  1  0  0  0  0
 38 46  1  0  0  0  0
 38 39  2  0  0  0  0
  8  9  1  0  0  0  0
  9 17  1  0  0  0  0
  9 10  2  0  0  0  0
 18 19  1  0  0  0  0
 19 36  1  0  0  0  0
 19 20  2  0  0  0  0
 37 40  1  0  0  0  0
  8 11  1  0  0  0  0
 22 23  1  0  0  0  0
 22 24  1  0  0  0  0
 46 47  1  0  0  0  0
 18 21  1  0  0  0  0
 21 22  1  0  0  0  0
 36 37  1  0  0  0  0
  7  8  1  0  0  0  0
 17 18  1  0  0  0  0
  3  4  1  0  0  0  0
  3  5  1  0  0  0  0
  3  6  1  0  0  0  0
 40 43  1  0  0  0  0
 40 44  1  0  0  0  0
 40 45  1  0  0  0  0
 11 14  1  0  0  0  0
 11 15  1  0  0  0  0
 11 16  1  0  0  0  0
 23 30  1  0  0  0  0
 23 31  1  0  0  0  0
 23 32  1  0  0  0  0
 24 33  1  0  0  0  0
 24 34  1  0  0  0  0
 24 35  1  0  0  0  0
 47 49  1  0  0  0  0
 47 50  1  0  0  0  0
 47 51  1  0  0  0  0
 21 27  1  0  0  0  0
 21 28  1  0  0  0  0
 37 42  1  0  0  0  0
  8 13  1  0  0  0  0
 18 26  1  0  0  0  0
 22 29  1  0  0  0  0
 46 48  1  0  0  0  0
  7 12  1  0  0  0  0
 36 41  1  0  0  0  0
 17 25  1  0  0  0  0
M  END
$$$$

  -OEChem-05262214473D

 51 50  0     1  0  0  0  0  0999 V2000
    3.4018   -1.2440   -3.0186 C   0  0  0  0  0  0  0  0  0  0  0  0
    3.2697   -2.0909   -2.1427 O   0  0  0  0  0  0  0  0  0  0  0  0
    4.6845   -1.1645   -3.7779 C   0  0  0  0  0  0  0  0  0  0  0  0
    5.4123   -0.4862   -3.3041 H   0  0  0  0  0  0  0  0  0  0  0  0
    5.1949   -2.1387   -3.8443 H   0  0  0  0  0  0  0  0  0  0  0  0
    4.5953   -0.8128   -4.8182 H   0  0  0  0  0  0  0  0  0  0  0  0
    2.4540   -0.3103   -3.4040 N   0  0  0  0  0  0  0  0  0  0  0  0
    1.1494   -0.2128   -2.8039 C   0  0  2  0  0  0  0  0  0  0  0  0
    1.3350    0.0367   -1.3130 C   0  0  0  0  0  0  0  0  0  0  0  0
    2.3625   -0.2586   -0.7063 O   0  0  0  0  0  0  0  0  0  0  0  0
    0.3331   -1.4728   -3.0467 C   0  0  0  0  0  0  0  0  0  0  0  0
    2.6924    0.3404   -4.1502 H   0  0  0  0  0  0  0  0  0  0  0  0
    0.6550    0.6514   -3.2607 H   0  0  0  0  0  0  0  0  0  0  0  0
    0.8129   -2.3494   -2.5963 H   0  0  0  0  0  0  0  0  0  0  0  0
   -0.6690   -1.3857   -2.6142 H   0  0  0  0  0  0  0  0  0  0  0  0
    0.2259   -1.6670   -4.1194 H   0  0  0  0  0  0  0  0  0  0  0  0
    0.2019    0.5893   -0.7269 N   0  0  0  0  0  0  0  0  0  0  0  0
    0.1242    0.9059    0.6756 C   0  0  2  0  0  0  0  0  0  0  0  0
   -0.0407   -0.4125    1.4251 C   0  0  0  0  0  0  0  0  0  0  0  0
    0.3423   -0.5773    2.5815 O   0  0  0  0  0  0  0  0  0  0  0  0
   -1.0446    1.8470    0.9944 C   0  0  0  0  0  0  0  0  0  0  0  0
   -0.9191    3.2613    0.3923 C   0  0  0  0  0  0  0  0  0  0  0  0
   -2.2058    4.0494    0.6534 C   0  0  0  0  0  0  0  0  0  0  0  0
   -0.6289    3.2320   -1.1089 C   0  0  0  0  0  0  0  0  0  0  0  0
   -0.5975    0.8179   -1.3140 H   0  0  0  0  0  0  0  0  0  0  0  0
    1.0835    1.3525    0.9560 H   0  0  0  0  0  0  0  0  0  0  0  0
   -1.1399    1.9367    2.0857 H   0  0  0  0  0  0  0  0  0  0  0  0
   -1.9826    1.3921    0.6493 H   0  0  0  0  0  0  0  0  0  0  0  0
   -0.0994    3.7931    0.8905 H   0  0  0  0  0  0  0  0  0  0  0  0
   -3.0637    3.5630    0.1771 H   0  0  0  0  0  0  0  0  0  0  0  0
   -2.1305    5.0633    0.2464 H   0  0  0  0  0  0  0  0  0  0  0  0
   -2.4134    4.1287    1.7260 H   0  0  0  0  0  0  0  0  0  0  0  0
   -1.4209    2.7096   -1.6562 H   0  0  0  0  0  0  0  0  0  0  0  0
   -0.5557    4.2487   -1.5100 H   0  0  0  0  0  0  0  0  0  0  0  0
    0.3208    2.7325   -1.3219 H   0  0  0  0  0  0  0  0  0  0  0  0
   -0.7104   -1.3624    0.6664 N   0  0  0  0  0  0  0  0  0  0  0  0
   -1.0204   -2.6885    1.1504 C   0  0  2  0  0  0  0  0  0  0  0  0
   -1.4351   -2.5710    2.6111 C   0  0  0  0  0  0  0  0  0  0  0  0
   -1.1126   -1.6244    3.3259 O   0  0  0  0  0  0  0  0  0  0  0  0
    0.1675   -3.6254    0.9963 C   0  0  0  0  0  0  0  0  0  0  0  0
   -1.0125   -1.1247   -0.2737 H   0  0  0  0  0  0  0  0  0  0  0  0
   -1.8672   -3.0515    0.5578 H   0  0  0  0  0  0  0  0  0  0  0  0
    1.0258   -3.2780    1.5830 H   0  0  0  0  0  0  0  0  0  0  0  0
   -0.0780   -4.6367    1.3369 H   0  0  0  0  0  0  0  0  0  0  0  0
    0.4832   -3.6855   -0.0509 H   0  0  0  0  0  0  0  0  0  0  0  0
   -2.1714   -3.6686    3.0345 N   0  0  0  0  0  0  0  0  0  0  0  0
   -2.6703   -3.7994    4.3835 C   0  0  0  0  0  0  0  0  0  0  0  0
   -2.4083   -4.3983    2.3687 H   0  0  0  0  0  0  0  0  0  0  0  0
   -1.9409   -4.3534    4.9927 H   0  0  0  0  0  0  0  0  0  0  0  0
   -2.8247   -2.7997    4.8157 H   0  0  0  0  0  0  0  0  0  0  0  0
   -3.6257   -4.3445    4.3698 H   0  0  0  0  0  0  0  0  0  0  0  0
  1  3  1  0  0  0  0
  1  7  1  0  0  0  0
  1  2  2  0  0  0  0
 37 38  1  0  0  0  0
 38 46  1  0  0  0  0
 38 39  2  0  0  0  0
  8  9  1  0  0  0  0
  9 17  1  0  0  0  0
  9 10  2  0  0  0  0
 18 19  1  0  0  0  0
 19 36  1  0  0  0  0
 19 20  2  0  0  0  0
 37 40  1  0  0  0  0
  8 11  1  0  0  0  0
 22 23  1  0  0  0  0
 22 24  1  0  0  0  0
 46 47  1  0  0  0  0
 18 21  1  0  0  0  0
 21 22  1  0  0  0  0
 36 37  1  0  0  0  0
  7  8  1  0  0  0  0
 17 18  1  0  0  0  0
  3  4  1  0  0  0  0
  3  5  1  0  0  0  0
  3  6  1  0  0  0  0
 40 43  1  0  0  0  0
 40 44  1  0  0  0  0
 40 45  1  0  0  0  0
 11 14  1  0  0  0  0
 11 15  1  0  0  0  0
 11 16  1  0  0  0  0
 23 30  1  0  0  0  0
 23 31  1  0  0  0  0
 23 32  1  0  0  0  0
 24 33  1  0  0  0  0
 24 34  1  0  0  0  0
 24 35  1  0  0  0  0
 47 49  1  0  0  0  0
 47 50  1  0  0  0  0
 47 51  1  0  0  0  0
 21 27  1  0  0  0  0
 21 28  1  0  0  0  0
 37 42  1  0  0  0  0
  8 13  1  0  0  0  0
 18 26  1  0  0  0  0
 22 29  1  0  0  0  0
 46 48  1  0  0  0  0
  7 12  1  0  0  0  0
 36 41  1  0  0  0  0
 17 25  1  0  0  0  0
M  END
$$$$

  -OEChem-05262214473D

 51 50  0     1  0  0  0  0  0999 V2000
    3.4018   -1.2440   -3.0186 C   0  0  0  0  0  0  0  0  0  0  0  0
    3.2697   -2.0909   -2.1427 O   0  0  0  0  0  0  0  0  0  0  0  0
    4.6845   -1.1645   -3.7779 C   0  0  0  0  0  0  0  0  0  0  0  0
    5.4123   -0.4862   -3.3041 H   0  0  0  0  0  0  0  0  0  0  0  0
    5.1949   -2.1387   -3.8443 H   0  0  0  0  0  0  0  0  0  0  0  0
    4.5953   -0.8128   -4.8182 H   0  0  0  0  0  0  0  0  0  0  0  0
    2.4540   -0.3103   -3.4040 N   0  0  0  0  0  0  0  0  0  0  0  0
    1.1494   -0.2128   -2.8039 C   0  0  2  0  0  0  0  0  0  0  0  0
    1.3350    0.0367   -1.3130 C   0  0  0  0  0  0  0  0  0  0  0  0
    2.3625   -0.2586   -0.7063 O   0  0  0  0  0  0  0  0  0  0  0  0
    0.3331   -1.4728   -3.0467 C   0  0  0  0  0  0  0  0  0  0  0  0
    2.6924    0.3404   -4.1502 H   0  0  0  0  0  0  0  0  0  0  0  0
    0.6550    0.6514   -3.2607 H   0  0  0  0  0  0  0  0  0  0  0  0
    0.8129   -2.3494   -2.5963 H   0  0  0  0  0  0  0  0  0  0  0  0
   -0.6690   -1.3857   -2.6142 H   0  0  0  0  0  0  0  0  0  0  0  0
    0.2259   -1.6670   -4.1194 H   0  0  0  0  0  0  0  0  0  0  0  0
    0.2019    0.5893   -0.7269 N   0  0  0  0  0  0  0  0  0  0  0  0
    0.1242    0.9059    0.6756 C   0  0  2  0  0  0  0  0  0  0  0  0
   -0.0407   -0.4125    1.4251 C   0  0  0  0  0  0  0  0  0  0  0  0
    0.0891   -0.5103    2.6436 O   0  0  0  0  0  0  0  0  0  0  0  0
   -1.0446    1.8470    0.9944 C   0  0  0  0  0  0  0  0  0  0  0  0
   -0.9191    3.2613    0.3923 C   0  0  0  0  0  0  0  0  0  0  0  0
   -2.2058    4.0494    0.6534 C   0  0  0  0  0  0  0  0  0  0  0  0
   -0.6289    3.2320   -1.1089 C   0  0  0  0  0  0  0  0  0  0  0  0
   -0.5975    0.8179   -1.3140 H   0  0  0  0  0  0  0  0  0  0  0  0
    1.0835    1.3525    0.9560 H   0  0  0  0  0  0  0  0  0  0  0  0
   -1.1399    1.9367    2.0857 H   0  0  0  0  0  0  0  0  0  0  0  0
   -1.9826    1.3921    0.6493 H   0  0  0  0  0  0  0  0  0  0  0  0
   -0.0994    3.7931    0.8905 H   0  0  0  0  0  0  0  0  0  0  0  0
   -3.0637    3.5630    0.1771 H   0  0  0  0  0  0  0  0  0  0  0  0
   -2.1305    5.0633    0.2464 H   0  0  0  0  0  0  0  0  0  0  0  0
   -2.4134    4.1287    1.7260 H   0  0  0  0  0  0  0  0  0  0  0  0
   -1.4209    2.7096   -1.6562 H   0  0  0  0  0  0  0  0  0  0  0  0
   -0.5557    4.2487   -1.5100 H   0  0  0  0  0  0  0  0  0  0  0  0
    0.3208    2.7325   -1.3219 H   0  0  0  0  0  0  0  0  0  0  0  0
   -0.3990   -1.4518    0.5778 N   0  0  0  0  0  0  0  0  0  0  0  0
   -0.6432   -2.8003    1.0367 C   0  0  2  0  0  0  0  0  0  0  0  0
   -1.3879   -2.7182    2.3627 C   0  0  0  0  0  0  0  0  0  0  0  0
   -1.3549   -1.7280    3.0904 O   0  0  0  0  0  0  0  0  0  0  0  0
    0.6556   -3.5764    1.1899 C   0  0  0  0  0  0  0  0  0  0  0  0
   -0.5084   -1.2682   -0.4152 H   0  0  0  0  0  0  0  0  0  0  0  0
   -1.2829   -3.2786    0.2869 H   0  0  0  0  0  0  0  0  0  0  0  0
    1.3095   -3.1121    1.9371 H   0  0  0  0  0  0  0  0  0  0  0  0
    0.4669   -4.6064    1.5102 H   0  0  0  0  0  0  0  0  0  0  0  0
    1.2042   -3.6090    0.2424 H   0  0  0  0  0  0  0  0  0  0  0  0
   -2.0588   -3.8966    2.6583 N   0  0  0  0  0  0  0  0  0  0  0  0
   -2.8289   -4.0731    3.8673 C   0  0  0  0  0  0  0  0  0  0  0  0
   -2.0471   -4.6598    1.9882 H   0  0  0  0  0  0  0  0  0  0  0  0
   -2.1928   -4.5190    4.6461 H   0  0  0  0  0  0  0  0  0  0  0  0
   -3.1996   -3.0963    4.2117 H   0  0  0  0  0  0  0  0  0  0  0  0
   -3.6814   -4.7382    3.6651 H   0  0  0  0  0  0  0  0  0  0  0  0
  1  3  1  0  0  0  0
  1  7  1  0  0  0  0
  1  2  2  0  0  0  0
 37 38  1  0  0  0  0
 38 46  1  0  0  0  0
 38 39  2  0  0  0  0
  8  9  1  0  0  0  0
  9 17  1  0  0  0  0
  9 10  2  0  0  0  0
 18 19  1  0  0  0  0
 19 36  1  0  0  0  0
 19 20  2  0  0  0  0
 37 40  1  0  0  0  0
  8 11  1  0  0  0  0
 22 23  1  0  0  0  0
 22 24  1  0  0  0  0
 46 47  1  0  0  0  0
 18 21  1  0  0  0  0
 21 22  1  0  0  0  0
 36 37  1  0  0  0  0
  7  8  1  0  0  0  0
 17 18  1  0  0  0  0
  3  4  1  0  0  0  0
  3  5  1  0  0  0  0
  3  6  1  0  0  0  0
 40 43  1  0  0  0  0
 40 44  1  0  0  0  0
 40 45  1  0  0  0  0
 11 14  1  0  0  0  0
 11 15  1  0  0  0  0
 11 16  1  0  0  0  0
 23 30  1  0  0  0  0
 23 31  1  0  0  0  0
 23 32  1  0  0  0  0
 24 33  1  0  0  0  0
 24 34  1  0  0  0  0
 24 35  1  0  0  0  0
 47 49  1  0  0  0  0
 47 50  1  0  0  0  0
 47 51  1  0  0  0  0
 21 27  1  0  0  0  0
 21 28  1  0  0  0  0
 37 42  1  0  0  0  0
  8 13  1  0  0  0  0
 18 26  1  0  0  0  0
 22 29  1  0  0  0  0
 46 48  1  0  0  0  0
  7 12  1  0  0  0  0
 36 41  1  0  0  0  0
 17 25  1  0  0  0  0
M  END
$$$$

  -OEChem-05262214473D

 51 50  0     1  0  0  0  0  0999 V2000
    3.4018   -1.2440   -3.0186 C   0  0  0  0  0  0  0  0  0  0  0  0
    3.2697   -2.0909   -2.1427 O   0  0  0  0  0  0  0  0  0  0  0  0
    4.6845   -1.1645   -3.7779 C   0  0  0  0  0  0  0  0  0  0  0  0
    5.4123   -0.4862   -3.3041 H   0  0  0  0  0  0  0  0  0  0  0  0
    5.1949   -2.1387   -3.8443 H   0  0  0  0  0  0  0  0  0  0  0  0
    4.5953   -0.8128   -4.8182 H   0  0  0  0  0  0  0  0  0  0  0  0
    2.4540   -0.3103   -3.4040 N   0  0  0  0  0  0  0  0  0  0  0  0
    1.1494   -0.2128   -2.8039 C   0  0  2  0  0  0  0  0  0  0  0  0
    1.3350    0.0367   -1.3130 C   0  0  0  0  0  0  0  0  0  0  0  0
    2.3625   -0.2586   -0.7063 O   0  0  0  0  0  0  0  0  0  0  0  0
    0.3331   -1.4728   -3.0467 C   0  0  0  0  0  0  0  0  0  0  0  0
    2.6924    0.3404   -4.1502 H   0  0  0  0  0  0  0  0  0  0  0  0
    0.6550    0.6514   -3.2607 H   0  0  0  0  0  0  0  0  0  0  0  0
    0.8129   -2.3494   -2.5963 H   0  0  0  0  0  0  0  0  0  0  0  0
   -0.6690   -1.3857   -2.6142 H   0  0  0  0  0  0  0  0  0  0  0  0
    0.2259   -1.6670   -4.1194 H   0  0  0  0  0  0  0  0  0  0  0  0
    0.2019    0.5893   -0.7269 N   0  0  0  0  0  0  0  0  0  0  0  0
    0.1242    0.9059    0.6756 C   0  0  2  0  0  0  0  0  0  0  0  0
   -0.0407   -0.4125    1.4251 C   0  0  0  0  0  0  0  0  0  0  0  0
   -0.1779   -0.4761    2.6451 O   0  0  0  0  0  0  0  0  0  0  0  0
   -1.0446    1.8470    0.9944 C   0  0  0  0  0  0  0  0  0  0  0  0
   -0.9191    3.2613    0.3923 C   0  0  0  0  0  0  0  0  0  0  0  0
   -2.2058    4.0494    0.6534 C   0  0  0  0  0  0  0  0  0  0  0  0
   -0.6289    3.2320   -1.1089 C   0  0  0  0  0  0  0  0  0  0  0  0
   -0.5975    0.8179   -1.3140 H   0  0  0  0  0  0  0  0  0  0  0  0
    1.0835    1.3525    0.9560 H   0  0  0  0  0  0  0  0  0  0  0  0
   -1.1399    1.9367    2.0857 H   0  0  0  0  0  0  0  0  0  0  0  0
   -1.9826    1.3921    0.6493 H   0  0  0  0  0  0  0  0  0  0  0  0
   -0.0994    3.7931    0.8905 H   0  0  0  0  0  0  0  0  0  0  0  0
   -3.0637    3.5630    0.1771 H   0  0  0  0  0  0  0  0  0  0  0  0
   -2.1305    5.0633    0.2464 H   0  0  0  0  0  0  0  0  0  0  0  0
   -2.4134    4.1287    1.7260 H   0  0  0  0  0  0  0  0  0  0  0  0
   -1.4209    2.7096   -1.6562 H   0  0  0  0  0  0  0  0  0  0  0  0
   -0.5557    4.2487   -1.5100 H   0  0  0  0  0  0  0  0  0  0  0  0
    0.3208    2.7325   -1.3219 H   0  0  0  0  0  0  0  0  0  0  0  0
   -0.0670   -1.5010    0.5643 N   0  0  0  0  0  0  0  0  0  0  0  0
   -0.2393   -2.8635    1.0144 C   0  0  2  0  0  0  0  0  0  0  0  0
   -1.2681   -2.8612    2.1373 C   0  0  0  0  0  0  0  0  0  0  0  0
   -1.5230   -1.8655    2.8116 O   0  0  0  0  0  0  0  0  0  0  0  0
    1.0774   -3.4615    1.4847 C   0  0  0  0  0  0  0  0  0  0  0  0
    0.0284   -1.3466   -0.4351 H   0  0  0  0  0  0  0  0  0  0  0  0
   -0.6290   -3.4311    0.1624 H   0  0  0  0  0  0  0  0  0  0  0  0
    1.4833   -2.9059    2.3380 H   0  0  0  0  0  0  0  0  0  0  0  0
    0.9506   -4.5029    1.7986 H   0  0  0  0  0  0  0  0  0  0  0  0
    1.8253   -3.4351    0.6848 H   0  0  0  0  0  0  0  0  0  0  0  0
   -1.8370   -4.1130    2.3265 N   0  0  0  0  0  0  0  0  0  0  0  0
   -2.8319   -4.3720    3.3409 C   0  0  0  0  0  0  0  0  0  0  0  0
   -1.5799   -4.8772    1.7087 H   0  0  0  0  0  0  0  0  0  0  0  0
   -2.3374   -4.7206    4.2596 H   0  0  0  0  0  0  0  0  0  0  0  0
   -3.3888   -3.4473    3.5527 H   0  0  0  0  0  0  0  0  0  0  0  0
   -3.5276   -5.1452    2.9830 H   0  0  0  0  0  0  0  0  0  0  0  0
  1  3  1  0  0  0  0
  1  7  1  0  0  0  0
  1  2  2  0  0  0  0
 37 38  1  0  0  0  0
 38 46  1  0  0  0  0
 38 39  2  0  0  0  0
  8  9  1  0  0  0  0
  9 17  1  0  0  0  0
  9 10  2  0  0  0  0
 18 19  1  0  0  0  0
 19 36  1  0  0  0  0
 19 20  2  0  0  0  0
 37 40  1  0  0  0  0
  8 11  1  0  0  0  0
 22 23  1  0  0  0  0
 22 24  1  0  0  0  0
 46 47  1  0  0  0  0
 18 21  1  0  0  0  0
 21 22  1  0  0  0  0
 36 37  1  0  0  0  0
  7  8  1  0  0  0  0
 17 18  1  0  0  0  0
  3  4  1  0  0  0  0
  3  5  1  0  0  0  0
  3  6  1  0  0  0  0
 40 43  1  0  0  0  0
 40 44  1  0  0  0  0
 40 45  1  0  0  0  0
 11 14  1  0  0  0  0
 11 15  1  0  0  0  0
 11 16  1  0  0  0  0
 23 30  1  0  0  0  0
 23 31  1  0  0  0  0
 23 32  1  0  0  0  0
 24 33  1  0  0  0  0
 24 34  1  0  0  0  0
 24 35  1  0  0  0  0
 47 49  1  0  0  0  0
 47 50  1  0  0  0  0
 47 51  1  0  0  0  0
 21 27  1  0  0  0  0
 21 28  1  0  0  0  0
 37 42  1  0  0  0  0
  8 13  1  0  0  0  0
 18 26  1  0  0  0  0
 22 29  1  0  0  0  0
 46 48  1  0  0  0  0
  7 12  1  0  0  0  0
 36 41  1  0  0  0  0
 17 25  1  0  0  0  0
M  END
$$$$

  -OEChem-05262214473D

 51 50  0     1  0  0  0  0  0999 V2000
    3.4018   -1.2440   -3.0186 C   0  0  0  0  0  0  0  0  0  0  0  0
    3.2697   -2.0909   -2.1427 O   0  0  0  0  0  0  0  0  0  0  0  0
    4.6845   -1.1645   -3.7779 C   0  0  0  0  0  0  0  0  0  0  0  0
    5.4123   -0.4862   -3.3041 H   0  0  0  0  0  0  0  0  0  0  0  0
    5.1949   -2.1387   -3.8443 H   0  0  0  0  0  0  0  0  0  0  0  0
    4.5953   -0.8128   -4.8182 H   0  0  0  0  0  0  0  0  0  0  0  0
    2.4540   -0.3103   -3.4040 N   0  0  0  0  0  0  0  0  0  0  0  0
    1.1494   -0.2128   -2.8039 C   0  0  2  0  0  0  0  0  0  0  0  0
    1.3350    0.0367   -1.3130 C   0  0  0  0  0  0  0  0  0  0  0  0
    2.3625   -0.2586   -0.7063 O   0  0  0  0  0  0  0  0  0  0  0  0
    0.3331   -1.4728   -3.0467 C   0  0  0  0  0  0  0  0  0  0  0  0
    2.6924    0.3404   -4.1502 H   0  0  0  0  0  0  0  0  0  0  0  0
    0.6550    0.6514   -3.2607 H   0  0  0  0  0  0  0  0  0  0  0  0
    0.8129   -2.3494   -2.5963 H   0  0  0  0  0  0  0  0  0  0  0  0
   -0.6690   -1.3857   -2.6142 H   0  0  0  0  0  0  0  0  0  0  0  0
    0.2259   -1.6670   -4.1194 H   0  0  0  0  0  0  0  0  0  0  0  0
    0.2019    0.5893   -0.7269 N   0  0  0  0  0  0  0  0  0  0  0  0
    0.1242    0.9059    0.6756 C   0  0  2  0  0  0  0  0  0  0  0  0
   -0.0407   -0.4125    1.4251 C   0  0  0  0  0  0  0  0  0  0  0  0
   -0.4405   -0.4770    2.5858 O   0  0  0  0  0  0  0  0  0  0  0  0
   -1.0446    1.8470    0.9944 C   0  0  0  0  0  0  0  0  0  0  0  0
   -0.9191    3.2613    0.3923 C   0  0  0  0  0  0  0  0  0  0  0  0
   -2.2058    4.0494    0.6534 C   0  0  0  0  0  0  0  0  0  0  0  0
   -0.6289    3.2320   -1.1089 C   0  0  0  0  0  0  0  0  0  0  0  0
   -0.5975    0.8179   -1.3140 H   0  0  0  0  0  0  0  0  0  0  0  0
    1.0835    1.3525    0.9560 H   0  0  0  0  0  0  0  0  0  0  0  0
   -1.1399    1.9367    2.0857 H   0  0  0  0  0  0  0  0  0  0  0  0
   -1.9826    1.3921    0.6493 H   0  0  0  0  0  0  0  0  0  0  0  0
   -0.0994    3.7931    0.8905 H   0  0  0  0  0  0  0  0  0  0  0  0
   -3.0637    3.5630    0.1771 H   0  0  0  0  0  0  0  0  0  0  0  0
   -2.1305    5.0633    0.2464 H   0  0  0  0  0  0  0  0  0  0  0  0
   -2.4134    4.1287    1.7260 H   0  0  0  0  0  0  0  0  0  0  0  0
   -1.4209    2.7096   -1.6562 H   0  0  0  0  0  0  0  0  0  0  0  0
   -0.5557    4.2487   -1.5100 H   0  0  0  0  0  0  0  0  0  0  0  0
    0.3208    2.7325   -1.3219 H   0  0  0  0  0  0  0  0  0  0  0  0
    0.2629   -1.5066    0.6268 N   0  0  0  0  0  0  0  0  0  0  0  0
    0.1639   -2.8738    1.0849 C   0  0  2  0  0  0  0  0  0  0  0  0
   -1.0838   -2.9905    1.9505 C   0  0  0  0  0  0  0  0  0  0  0  0
   -1.6056   -2.0275    2.5085 O   0  0  0  0  0  0  0  0  0  0  0  0
    1.4044   -3.2887    1.8606 C   0  0  0  0  0  0  0  0  0  0  0  0
    0.5614   -1.3546   -0.3320 H   0  0  0  0  0  0  0  0  0  0  0  0
    0.0498   -3.4988    0.1926 H   0  0  0  0  0  0  0  0  0  0  0  0
    1.5353   -2.6735    2.7583 H   0  0  0  0  0  0  0  0  0  0  0  0
    1.3402   -4.3334    2.1824 H   0  0  0  0  0  0  0  0  0  0  0  0
    2.3041   -3.1758    1.2462 H   0  0  0  0  0  0  0  0  0  0  0  0
   -1.5209   -4.3030    2.0617 N   0  0  0  0  0  0  0  0  0  0  0  0
   -2.6789   -4.6758    2.8401 C   0  0  0  0  0  0  0  0  0  0  0  0
   -1.0384   -5.0355    1.5493 H   0  0  0  0  0  0  0  0  0  0  0  0
   -2.3651   -4.9446    3.8595 H   0  0  0  0  0  0  0  0  0  0  0  0
   -3.3795   -3.8289    2.8836 H   0  0  0  0  0  0  0  0  0  0  0  0
   -3.1746   -5.5379    2.3699 H   0  0  0  0  0  0  0  0  0  0  0  0
  1  3  1  0  0  0  0
  1  7  1  0  0  0  0
  1  2  2  0  0  0  0
 37 38  1  0  0  0  0
 38 46  1  0  0  0  0
 38 39  2  0  0  0  0
  8  9  1  0  0  0  0
  9 17  1  0  0  0  0
  9 10  2  0  0  0  0
 18 19  1  0  0  0  0
 19 36  1  0  0  0  0
 19 20  2  0  0  0  0
 37 40  1  0  0  0  0
  8 11  1  0  0  0  0
 22 23  1  0  0  0  0
 22 24  1  0  0  0  0
 46 47  1  0  0  0  0
 18 21  1  0  0  0  0
 21 22  1  0  0  0  0
 36 37  1  0  0  0  0
  7  8  1  0  0  0  0
 17 18  1  0  0  0  0
  3  4  1  0  0  0  0
  3  5  1  0  0  0  0
  3  6  1  0  0  0  0
 40 43  1  0  0  0  0
 40 44  1  0  0  0  0
 40 45  1  0  0  0  0
 11 14  1  0  0  0  0
 11 15  1  0  0  0  0
 11 16  1  0  0  0  0
 23 30  1  0  0  0  0
 23 31  1  0  0  0  0
 23 32  1  0  0  0  0
 24 33  1  0  0  0  0
 24 34  1  0  0  0  0
 24 35  1  0  0  0  0
 47 49  1  0  0  0  0
 47 50  1  0  0  0  0
 47 51  1  0  0  0  0
 21 27  1  0  0  0  0
 21 28  1  0  0  0  0
 37 42  1  0  0  0  0
  8 13  1  0  0  0  0
 18 26  1  0  0  0  0
 22 29  1  0  0  0  0
 46 48  1  0  0  0  0
  7 12  1  0  0  0  0
 36 41  1  0  0  0  0
 17 25  1  0  0  0  0
M  END
$$$$

  -OEChem-05262214473D

 51 50  0     1  0  0  0  0  0999 V2000
    3.4018   -1.2440   -3.0186 C   0  0  0  0  0  0  0  0  0  0  0  0
    3.2697   -2.0909   -2.1427 O   0  0  0  0  0  0  0  0  0  0  0  0
    4.6845   -1.1645   -3.7779 C   0  0  0  0  0  0  0  0  0  0  0  0
    5.4123   -0.4862   -3.3041 H   0  0  0  0  0  0  0  0  0  0  0  0
    5.1949   -2.1387   -3.8443 H   0  0  0  0  0  0  0  0  0  0  0  0
    4.5953   -0.8128   -4.8182 H   0  0  0  0  0  0  0  0  0  0  0  0
    2.4540   -0.3103   -3.4040 N   0  0  0  0  0  0  0  0  0  0  0  0
    1.1494   -0.2128   -2.8039 C   0  0  2  0  0  0  0  0  0  0  0  0
    1.3350    0.0367   -1.3130 C   0  0  0  0  0  0  0  0  0  0  0  0
    2.3625   -0.2586   -0.7063 O   0  0  0  0  0  0  0  0  0  0  0  0
    0.3331   -1.4728   -3.0467 C   0  0  0  0  0  0  0  0  0  0  0  0
    2.6924    0.3404   -4.1502 H   0  0  0  0  0  0  0  0  0  0  0  0
    0.6550    0.6514   -3.2607 H   0  0  0  0  0  0  0  0  0  0  0  0
    0.8129   -2.3494   -2.5963 H   0  0  0  0  0  0  0  0  0  0  0  0
   -0.6690   -1.3857   -2.6142 H   0  0  0  0  0  0  0  0  0  0  0  0
    0.2259   -1.6670   -4.1194 H   0  0  0  0  0  0  0  0  0  0  0  0
    0.2019    0.5893   -0.7269 N   0  0  0  0  0  0  0  0  0  0  0  0
    0.1242    0.9059    0.6756 C   0  0  2  0  0  0  0  0  0  0  0  0
   -0.0407   -0.4125    1.4251 C   0  0  0  0  0  0  0  0  0  0  0  0
   -0.6807   -0.5129    2.4698 O   0  0  0  0  0  0  0  0  0  0  0  0
   -1.0446    1.8470    0.9944 C   0  0  0  0  0  0  0  0  0  0  0  0
   -0.9191    3.2613    0.3923 C   0  0  0  0  0  0  0  0  0  0  0  0
   -2.2058    4.0494    0.6534 C   0  0  0  0  0  0  0  0  0  0  0  0
   -0.6289    3.2320   -1.1089 C   0  0  0  0  0  0  0  0  0  0  0  0
   -0.5975    0.8179   -1.3140 H   0  0  0  0  0  0  0  0  0  0  0  0
    1.0835    1.3525    0.9560 H   0  0  0  0  0  0  0  0  0  0  0  0
   -1.1399    1.9367    2.0857 H   0  0  0  0  0  0  0  0  0  0  0  0
   -1.9826    1.3921    0.6493 H   0  0  0  0  0  0  0  0  0  0  0  0
   -0.0994    3.7931    0.8905 H   0  0  0  0  0  0  0  0  0  0  0  0
   -3.0637    3.5630    0.1771 H   0  0  0  0  0  0  0  0  0  0  0  0
   -2.1305    5.0633    0.2464 H   0  0  0  0  0  0  0  0  0  0  0  0
   -2.4134    4.1287    1.7260 H   0  0  0  0  0  0  0  0  0  0  0  0
   -1.4209    2.7096   -1.6562 H   0  0  0  0  0  0  0  0  0  0  0  0
   -0.5557    4.2487   -1.5100 H   0  0  0  0  0  0  0  0  0  0  0  0
    0.3208    2.7325   -1.3219 H   0  0  0  0  0  0  0  0  0  0  0  0
    0.5684   -1.4684    0.7613 N   0  0  0  0  0  0  0  0  0  0  0  0
    0.5389   -2.8305    1.2435 C   0  0  2  0  0  0  0  0  0  0  0  0
   -0.8475   -3.0972    1.8149 C   0  0  0  0  0  0  0  0  0  0  0  0
   -1.5969   -2.2029    2.2018 O   0  0  0  0  0  0  0  0  0  0  0  0
    1.6141   -3.0696    2.2920 C   0  0  0  0  0  0  0  0  0  0  0  0
    1.0541   -1.2918   -0.1131 H   0  0  0  0  0  0  0  0  0  0  0  0
    0.7073   -3.4771    0.3754 H   0  0  0  0  0  0  0  0  0  0  0  0
    1.4619   -2.4305    3.1695 H   0  0  0  0  0  0  0  0  0  0  0  0
    1.6090   -4.1093    2.6356 H   0  0  0  0  0  0  0  0  0  0  0  0
    2.6081   -2.8487    1.8883 H   0  0  0  0  0  0  0  0  0  0  0  0
   -1.1322   -4.4538    1.8819 N   0  0  0  0  0  0  0  0  0  0  0  0
   -2.3806   -4.9639    2.3991 C   0  0  0  0  0  0  0  0  0  0  0  0
   -0.4597   -5.1240    1.5209 H   0  0  0  0  0  0  0  0  0  0  0  0
   -2.2738   -5.1757    3.4732 H   0  0  0  0  0  0  0  0  0  0  0  0
   -3.1723   -4.2149    2.2501 H   0  0  0  0  0  0  0  0  0  0  0  0
   -2.6467   -5.8895    1.8676 H   0  0  0  0  0  0  0  0  0  0  0  0
  1  3  1  0  0  0  0
  1  7  1  0  0  0  0
  1  2  2  0  0  0  0
 37 38  1  0  0  0  0
 38 46  1  0  0  0  0
 38 39  2  0  0  0  0
  8  9  1  0  0  0  0
  9 17  1  0  0  0  0
  9 10  2  0  0  0  0
 18 19  1  0  0  0  0
 19 36  1  0  0  0  0
 19 20  2  0  0  0  0
 37 40  1  0  0  0  0
  8 11  1  0  0  0  0
 22 23  1  0  0  0  0
 22 24  1  0  0  0  0
 46 47  1  0  0  0  0
 18 21  1  0  0  0  0
 21 22  1  0  0  0  0
 36 37  1  0  0  0  0
  7  8  1  0  0  0  0
 17 18  1  0  0  0  0
  3  4  1  0  0  0  0
  3  5  1  0  0  0  0
  3  6  1  0  0  0  0
 40 43  1  0  0  0  0
 40 44  1  0  0  0  0
 40 45  1  0  0  0  0
 11 14  1  0  0  0  0
 11 15  1  0  0  0  0
 11 16  1  0  0  0  0
 23 30  1  0  0  0  0
 23 31  1  0  0  0  0
 23 32  1  0  0  0  0
 24 33  1  0  0  0  0
 24 34  1  0  0  0  0
 24 35  1  0  0  0  0
 47 49  1  0  0  0  0
 47 50  1  0  0  0  0
 47 51  1  0  0  0  0
 21 27  1  0  0  0  0
 21 28  1  0  0  0  0
 37 42  1  0  0  0  0
  8 13  1  0  0  0  0
 18 26  1  0  0  0  0
 22 29  1  0  0  0  0
 46 48  1  0  0  0  0
  7 12  1  0  0  0  0
 36 41  1  0  0  0  0
 17 25  1  0  0  0  0
M  END
$$$$

  -OEChem-05262214473D

 51 50  0     1  0  0  0  0  0999 V2000
    3.4018   -1.2440   -3.0186 C   0  0  0  0  0  0  0  0  0  0  0  0
    3.2697   -2.0909   -2.1427 O   0  0  0  0  0  0  0  0  0  0  0  0
    4.6845   -1.1645   -3.7779 C   0  0  0  0  0  0  0  0  0  0  0  0
    5.4123   -0.4862   -3.3041 H   0  0  0  0  0  0  0  0  0  0  0  0
    5.1949   -2.1387   -3.8443 H   0  0  0  0  0  0  0  0  0  0  0  0
    4.5953   -0.8128   -4.8182 H   0  0  0  0  0  0  0  0  0  0  0  0
    2.4540   -0.3103   -3.4040 N   0  0  0  0  0  0  0  0  0  0  0  0
    1.1494   -0.2128   -2.8039 C   0  0  2  0  0  0  0  0  0  0  0  0
    1.3350    0.0367   -1.3130 C   0  0  0  0  0  0  0  0  0  0  0  0
    2.3625   -0.2586   -0.7063 O   0  0  0  0  0  0  0  0  0  0  0  0
    0.3331   -1.4728   -3.0467 C   0  0  0  0  0  0  0  0  0  0  0  0
    2.6924    0.3404   -4.1502 H   0  0  0  0  0  0  0  0  0  0  0  0
    0.6550    0.6514   -3.2607 H   0  0  0  0  0  0  0  0  0  0  0  0
    0.8129   -2.3494   -2.5963 H   0  0  0  0  0  0  0  0  0  0  0  0
   -0.6690   -1.3857   -2.6142 H   0  0  0  0  0  0  0  0  0  0  0  0
    0.2259   -1.6670   -4.1194 H   0  0  0  0  0  0  0  0  0  0  0  0
    0.2019    0.5893   -0.7269 N   0  0  0  0  0  0  0  0  0  0  0  0
    0.1242    0.9059    0.6756 C   0  0  2  0  0  0  0  0  0  0  0  0
   -0.0407   -0.4125    1.4251 C   0  0  0  0  0  0  0  0  0  0  0  0
   -0.8823   -0.5814    2.3050 O   0  0  0  0  0  0  0  0  0  0  0  0
   -1.0446    1.8470    0.9944 C   0  0  0  0  0  0  0  0  0  0  0  0
   -0.9191    3.2613    0.3923 C   0  0  0  0  0  0  0  0  0  0  0  0
   -2.2058    4.0494    0.6534 C   0  0  0  0  0  0  0  0  0  0  0  0
   -0.6289    3.2320   -1.1089 C   0  0  0  0  0  0  0  0  0  0  0  0
   -0.5975    0.8179   -1.3140 H   0  0  0  0  0  0  0  0  0  0  0  0
    1.0835    1.3525    0.9560 H   0  0  0  0  0  0  0  0  0  0  0  0
   -1.1399    1.9367    2.0857 H   0  0  0  0  0  0  0  0  0  0  0  0
   -1.9826    1.3921    0.6493 H   0  0  0  0  0  0  0  0  0  0  0  0
   -0.0994    3.7931    0.8905 H   0  0  0  0  0  0  0  0  0  0  0  0
   -3.0637    3.5630    0.1771 H   0  0  0  0  0  0  0  0  0  0  0  0
   -2.1305    5.0633    0.2464 H   0  0  0  0  0  0  0  0  0  0  0  0
   -2.4134    4.1287    1.7260 H   0  0  0  0  0  0  0  0  0  0  0  0
   -1.4209    2.7096   -1.6562 H   0  0  0  0  0  0  0  0  0  0  0  0
   -0.5557    4.2487   -1.5100 H   0  0  0  0  0  0  0  0  0  0  0  0
    0.3208    2.7325   -1.3219 H   0  0  0  0  0  0  0  0  0  0  0  0
    0.8285   -1.3889    0.9584 N   0  0  0  0  0  0  0  0  0  0  0  0
    0.8601   -2.7365    1.4794 C   0  0  2  0  0  0  0  0  0  0  0  0
   -0.5753   -3.1739    1.7397 C   0  0  0  0  0  0  0  0  0  0  0  0
   -1.4977   -2.3799    1.9124 O   0  0  0  0  0  0  0  0  0  0  0  0
    1.6924   -2.8193    2.7495 C   0  0  0  0  0  0  0  0  0  0  0  0
    1.4731   -1.1622    0.2069 H   0  0  0  0  0  0  0  0  0  0  0  0
    1.2988   -3.3673    0.6986 H   0  0  0  0  0  0  0  0  0  0  0  0
    1.2682   -2.1937    3.5434 H   0  0  0  0  0  0  0  0  0  0  0  0
    1.7389   -3.8461    3.1272 H   0  0  0  0  0  0  0  0  0  0  0  0
    2.7165   -2.4762    2.5674 H   0  0  0  0  0  0  0  0  0  0  0  0
   -0.6974   -4.5551    1.7994 N   0  0  0  0  0  0  0  0  0  0  0  0
   -1.9571   -5.2165    2.0479 C   0  0  0  0  0  0  0  0  0  0  0  0
    0.1170   -5.1367    1.6253 H   0  0  0  0  0  0  0  0  0  0  0  0
   -2.0699   -5.3980    3.1269 H   0  0  0  0  0  0  0  0  0  0  0  0
   -2.7814   -4.5792    1.6953 H   0  0  0  0  0  0  0  0  0  0  0  0
   -1.9796   -6.1760    1.5104 H   0  0  0  0  0  0  0  0  0  0  0  0
  1  3  1  0  0  0  0
  1  7  1  0  0  0  0
  1  2  2  0  0  0  0
 37 38  1  0  0  0  0
 38 46  1  0  0  0  0
 38 39  2  0  0  0  0
  8  9  1  0  0  0  0
  9 17  1  0  0  0  0
  9 10  2  0  0  0  0
 18 19  1  0  0  0  0
 19 36  1  0  0  0  0
 19 20  2  0  0  0  0
 37 40  1  0  0  0  0
  8 11  1  0  0  0  0
 22 23  1  0  0  0  0
 22 24  1  0  0  0  0
 46 47  1  0  0  0  0
 18 21  1  0  0  0  0
 21 22  1  0  0  0  0
 36 37  1  0  0  0  0
  7  8  1  0  0  0  0
 17 18  1  0  0  0  0
  3  4  1  0  0  0  0
  3  5  1  0  0  0  0
  3  6  1  0  0  0  0
 40 43  1  0  0  0  0
 40 44  1  0  0  0  0
 40 45  1  0  0  0  0
 11 14  1  0  0  0  0
 11 15  1  0  0  0  0
 11 16  1  0  0  0  0
 23 30  1  0  0  0  0
 23 31  1  0  0  0  0
 23 32  1  0  0  0  0
 24 33  1  0  0  0  0
 24 34  1  0  0  0  0
 24 35  1  0  0  0  0
 47 49  1  0  0  0  0
 47 50  1  0  0  0  0
 47 51  1  0  0  0  0
 21 27  1  0  0  0  0
 21 28  1  0  0  0  0
 37 42  1  0  0  0  0
  8 13  1  0  0  0  0
 18 26  1  0  0  0  0
 22 29  1  0  0  0  0
 46 48  1  0  0  0  0
  7 12  1  0  0  0  0
 36 41  1  0  0  0  0
 17 25  1  0  0  0  0
M  END
$$$$

  -OEChem-05262214473D

 51 50  0     1  0  0  0  0  0999 V2000
    3.4018   -1.2440   -3.0186 C   0  0  0  0  0  0  0  0  0  0  0  0
    3.2697   -2.0909   -2.1427 O   0  0  0  0  0  0  0  0  0  0  0  0
    4.6845   -1.1645   -3.7779 C   0  0  0  0  0  0  0  0  0  0  0  0
    5.4123   -0.4862   -3.3041 H   0  0  0  0  0  0  0  0  0  0  0  0
    5.1949   -2.1387   -3.8443 H   0  0  0  0  0  0  0  0  0  0  0  0
    4.5953   -0.8128   -4.8182 H   0  0  0  0  0  0  0  0  0  0  0  0
    2.4540   -0.3103   -3.4040 N   0  0  0  0  0  0  0  0  0  0  0  0
    1.1494   -0.2128   -2.8039 C   0  0  2  0  0  0  0  0  0  0  0  0
    1.3350    0.0367   -1.3130 C   0  0  0  0  0  0  0  0  0  0  0  0
    2.3625   -0.2586   -0.7063 O   0  0  0  0  0  0  0  0  0  0  0  0
    0.3331   -1.4728   -3.0467 C   0  0  0  0  0  0  0  0  0  0  0  0
    2.6924    0.3404   -4.1502 H   0  0  0  0  0  0  0  0  0  0  0  0
    0.6550    0.6514   -3.2607 H   0  0  0  0  0  0  0  0  0  0  0  0
    0.8129   -2.3494   -2.5963 H   0  0  0  0  0  0  0  0  0  0  0  0
   -0.6690   -1.3857   -2.6142 H   0  0  0  0  0  0  0  0  0  0  0  0
    0.2259   -1.6670   -4.1194 H   0  0  0  0  0  0  0  0  0  0  0  0
    0.2019    0.5893   -0.7269 N   0  0  0  0  0  0  0  0  0  0  0  0
    0.1242    0.9059    0.6756 C   0  0  2  0  0  0  0  0  0  0  0  0
   -0.0407   -0.4125    1.4251 C   0  0  0  0  0  0  0  0  0  0  0  0
   -1.0315   -0.6777    2.1027 O   0  0  0  0  0  0  0  0  0  0  0  0
   -1.0446    1.8470    0.9944 C   0  0  0  0  0  0  0  0  0  0  0  0
   -0.9191    3.2613    0.3923 C   0  0  0  0  0  0  0  0  0  0  0  0
   -2.2058    4.0494    0.6534 C   0  0  0  0  0  0  0  0  0  0  0  0
   -0.6289    3.2320   -1.1089 C   0  0  0  0  0  0  0  0  0  0  0  0
   -0.5975    0.8179   -1.3140 H   0  0  0  0  0  0  0  0  0  0  0  0
    1.0835    1.3525    0.9560 H   0  0  0  0  0  0  0  0  0  0  0  0
   -1.1399    1.9367    2.0857 H   0  0  0  0  0  0  0  0  0  0  0  0
   -1.9826    1.3921    0.6493 H   0  0  0  0  0  0  0  0  0  0  0  0
   -0.0994    3.7931    0.8905 H   0  0  0  0  0  0  0  0  0  0  0  0
   -3.0637    3.5630    0.1771 H   0  0  0  0  0  0  0  0  0  0  0  0
   -2.1305    5.0633    0.2464 H   0  0  0  0  0  0  0  0  0  0  0  0
   -2.4134    4.1287    1.7260 H   0  0  0  0  0  0  0  0  0  0  0  0
   -1.4209    2.7096   -1.6562 H   0  0  0  0  0  0  0  0  0  0  0  0
   -0.5557    4.2487   -1.5100 H   0  0  0  0  0  0  0  0  0  0  0  0
    0.3208    2.7325   -1.3219 H   0  0  0  0  0  0  0  0  0  0  0  0
    1.0255   -1.2735    1.2047 N   0  0  0  0  0  0  0  0  0  0  0  0
    1.1057   -2.5983    1.7765 C   0  0  2  0  0  0  0  0  0  0  0  0
   -0.2859   -3.2156    1.7301 C   0  0  0  0  0  0  0  0  0  0  0  0
   -1.3146   -2.5462    1.6600 O   0  0  0  0  0  0  0  0  0  0  0  0
    1.6338   -2.5548    3.2019 C   0  0  0  0  0  0  0  0  0  0  0  0
    1.7898   -0.9749    0.6061 H   0  0  0  0  0  0  0  0  0  0  0  0
    1.7839   -3.1770    1.1399 H   0  0  0  0  0  0  0  0  0  0  0  0
    0.9673   -1.9792    3.8546 H   0  0  0  0  0  0  0  0  0  0  0  0
    1.7209   -3.5615    3.6237 H   0  0  0  0  0  0  0  0  0  0  0  0
    2.6219   -2.0836    3.2372 H   0  0  0  0  0  0  0  0  0  0  0  0
   -0.2460   -4.5999    1.8198 N   0  0  0  0  0  0  0  0  0  0  0  0
   -1.4373   -5.4164    1.8104 C   0  0  0  0  0  0  0  0  0  0  0  0
    0.6523   -5.0727    1.8556 H   0  0  0  0  0  0  0  0  0  0  0  0
   -1.7671   -5.5966    2.8442 H   0  0  0  0  0  0  0  0  0  0  0  0
   -2.2334   -4.8969    1.2570 H   0  0  0  0  0  0  0  0  0  0  0  0
   -1.2190   -6.3778    1.3226 H   0  0  0  0  0  0  0  0  0  0  0  0
  1  3  1  0  0  0  0
  1  7  1  0  0  0  0
  1  2  2  0  0  0  0
 37 38  1  0  0  0  0
 38 46  1  0  0  0  0
 38 39  2  0  0  0  0
  8  9  1  0  0  0  0
  9 17  1  0  0  0  0
  9 10  2  0  0  0  0
 18 19  1  0  0  0  0
 19 36  1  0  0  0  0
 19 20  2  0  0  0  0
 37 40  1  0  0  0  0
  8 11  1  0  0  0  0
 22 23  1  0  0  0  0
 22 24  1  0  0  0  0
 46 47  1  0  0  0  0
 18 21  1  0  0  0  0
 21 22  1  0  0  0  0
 36 37  1  0  0  0  0
  7  8  1  0  0  0  0
 17 18  1  0  0  0  0
  3  4  1  0  0  0  0
  3  5  1  0  0  0  0
  3  6  1  0  0  0  0
 40 43  1  0  0  0  0
 40 44  1  0  0  0  0
 40 45  1  0  0  0  0
 11 14  1  0  0  0  0
 11 15  1  0  0  0  0
 11 16  1  0  0  0  0
 23 30  1  0  0  0  0
 23 31  1  0  0  0  0
 23 32  1  0  0  0  0
 24 33  1  0  0  0  0
 24 34  1  0  0  0  0
 24 35  1  0  0  0  0
 47 49  1  0  0  0  0
 47 50  1  0  0  0  0
 47 51  1  0  0  0  0
 21 27  1  0  0  0  0
 21 28  1  0  0  0  0
 37 42  1  0  0  0  0
  8 13  1  0  0  0  0
 18 26  1  0  0  0  0
 22 29  1  0  0  0  0
 46 48  1  0  0  0  0
  7 12  1  0  0  0  0
 36 41  1  0  0  0  0
 17 25  1  0  0  0  0
M  END
$$$$

  -OEChem-05262214473D

 51 50  0     1  0  0  0  0  0999 V2000
    3.4018   -1.2440   -3.0186 C   0  0  0  0  0  0  0  0  0  0  0  0
    3.2697   -2.0909   -2.1427 O   0  0  0  0  0  0  0  0  0  0  0  0
    4.6845   -1.1645   -3.7779 C   0  0  0  0  0  0  0  0  0  0  0  0
    5.4123   -0.4862   -3.3041 H   0  0  0  0  0  0  0  0  0  0  0  0
    5.1949   -2.1387   -3.8443 H   0  0  0  0  0  0  0  0  0  0  0  0
    4.5953   -0.8128   -4.8182 H   0  0  0  0  0  0  0  0  0  0  0  0
    2.4540   -0.3103   -3.4040 N   0  0  0  0  0  0  0  0  0  0  0  0
    1.1494   -0.2128   -2.8039 C   0  0  2  0  0  0  0  0  0  0  0  0
    1.3350    0.0367   -1.3130 C   0  0  0  0  0  0  0  0  0  0  0  0
    2.3625   -0.2586   -0.7063 O   0  0  0  0  0  0  0  0  0  0  0  0
    0.3331   -1.4728   -3.0467 C   0  0  0  0  0  0  0  0  0  0  0  0
    2.6924    0.3404   -4.1502 H   0  0  0  0  0  0  0  0  0  0  0  0
    0.6550    0.6514   -3.2607 H   0  0  0  0  0  0  0  0  0  0  0  0
    0.8129   -2.3494   -2.5963 H   0  0  0  0  0  0  0  0  0  0  0  0
   -0.6690   -1.3857   -2.6142 H   0  0  0  0  0  0  0  0  0  0  0  0
    0.2259   -1.6670   -4.1194 H   0  0  0  0  0  0  0  0  0  0  0  0
    0.2019    0.5893   -0.7269 N   0  0  0  0  0  0  0  0  0  0  0  0
    0.1242    0.9059    0.6756 C   0  0  2  0  0  0  0  0  0  0  0  0
   -0.0407   -0.4125    1.4251 C   0  0  0  0  0  0  0  0  0  0  0  0
   -1.1180   -0.7955    1.8766 O   0  0  0  0  0  0  0  0  0  0  0  0
   -1.0446    1.8470    0.9944 C   0  0  0  0  0  0  0  0  0  0  0  0
   -0.9191    3.2613    0.3923 C   0  0  0  0  0  0  0  0  0  0  0  0
   -2.2058    4.0494    0.6534 C   0  0  0  0  0  0  0  0  0  0  0  0
   -0.6289    3.2320   -1.1089 C   0  0  0  0  0  0  0  0  0  0  0  0
   -0.5975    0.8179   -1.3140 H   0  0  0  0  0  0  0  0  0  0  0  0
    1.0835    1.3525    0.9560 H   0  0  0  0  0  0  0  0  0  0  0  0
   -1.1399    1.9367    2.0857 H   0  0  0  0  0  0  0  0  0  0  0  0
   -1.9826    1.3921    0.6493 H   0  0  0  0  0  0  0  0  0  0  0  0
   -0.0994    3.7931    0.8905 H   0  0  0  0  0  0  0  0  0  0  0  0
   -3.0637    3.5630    0.1771 H   0  0  0  0  0  0  0  0  0  0  0  0
   -2.1305    5.0633    0.2464 H   0  0  0  0  0  0  0  0  0  0  0  0
   -2.4134    4.1287    1.7260 H   0  0  0  0  0  0  0  0  0  0  0  0
   -1.4209    2.7096   -1.6562 H   0  0  0  0  0  0  0  0  0  0  0  0
   -0.5557    4.2487   -1.5100 H   0  0  0  0  0  0  0  0  0  0  0  0
    0.3208    2.7325   -1.3219 H   0  0  0  0  0  0  0  0  0  0  0  0
    1.1460   -1.1300    1.4835 N   0  0  0  0  0  0  0  0  0  0  0  0
    1.2588   -2.4253    2.1145 C   0  0  2  0  0  0  0  0  0  0  0  0
    0.0011   -3.2192    1.7868 C   0  0  0  0  0  0  0  0  0  0  0  0
   -1.0601   -2.6907    1.4619 O   0  0  0  0  0  0  0  0  0  0  0  0
    1.4423   -2.2941    3.6184 C   0  0  0  0  0  0  0  0  0  0  0  0
    1.9825   -0.7425    1.0572 H   0  0  0  0  0  0  0  0  0  0  0  0
    2.1295   -2.9192    1.6694 H   0  0  0  0  0  0  0  0  0  0  0  0
    0.5798   -1.8015    4.0819 H   0  0  0  0  0  0  0  0  0  0  0  0
    1.5562   -3.2751    4.0913 H   0  0  0  0  0  0  0  0  0  0  0  0
    2.3309   -1.6976    3.8520 H   0  0  0  0  0  0  0  0  0  0  0  0
    0.1911   -4.5853    1.9417 N   0  0  0  0  0  0  0  0  0  0  0  0
   -0.8568   -5.5501    1.7029 C   0  0  0  0  0  0  0  0  0  0  0  0
    1.1097   -4.9364    2.1960 H   0  0  0  0  0  0  0  0  0  0  0  0
   -1.3862   -5.7578    2.6445 H   0  0  0  0  0  0  0  0  0  0  0  0
   -1.5657   -5.1463    0.9651 H   0  0  0  0  0  0  0  0  0  0  0  0
   -0.4165   -6.4814    1.3169 H   0  0  0  0  0  0  0  0  0  0  0  0
  1  3  1  0  0  0  0
  1  7  1  0  0  0  0
  1  2  2  0  0  0  0
 37 38  1  0  0  0  0
 38 46  1  0  0  0  0
 38 39  2  0  0  0  0
  8  9  1  0  0  0  0
  9 17  1  0  0  0  0
  9 10  2  0  0  0  0
 18 19  1  0  0  0  0
 19 36  1  0  0  0  0
 19 20  2  0  0  0  0
 37 40  1  0  0  0  0
  8 11  1  0  0  0  0
 22 23  1  0  0  0  0
 22 24  1  0  0  0  0
 46 47  1  0  0  0  0
 18 21  1  0  0  0  0
 21 22  1  0  0  0  0
 36 37  1  0  0  0  0
  7  8  1  0  0  0  0
 17 18  1  0  0  0  0
  3  4  1  0  0  0  0
  3  5  1  0  0  0  0
  3  6  1  0  0  0  0
 40 43  1  0  0  0  0
 40 44  1  0  0  0  0
 40 45  1  0  0  0  0
 11 14  1  0  0  0  0
 11 15  1  0  0  0  0
 11 16  1  0  0  0  0
 23 30  1  0  0  0  0
 23 31  1  0  0  0  0
 23 32  1  0  0  0  0
 24 33  1  0  0  0  0
 24 34  1  0  0  0  0
 24 35  1  0  0  0  0
 47 49  1  0  0  0  0
 47 50  1  0  0  0  0
 47 51  1  0  0  0  0
 21 27  1  0  0  0  0
 21 28  1  0  0  0  0
 37 42  1  0  0  0  0
  8 13  1  0  0  0  0
 18 26  1  0  0  0  0
 22 29  1  0  0  0  0
 46 48  1  0  0  0  0
  7 12  1  0  0  0  0
 36 41  1  0  0  0  0
 17 25  1  0  0  0  0
M  END
$$$$

  -OEChem-05262214473D

 51 50  0     1  0  0  0  0  0999 V2000
    3.4018   -1.2440   -3.0186 C   0  0  0  0  0  0  0  0  0  0  0  0
    3.2697   -2.0909   -2.1427 O   0  0  0  0  0  0  0  0  0  0  0  0
    4.6845   -1.1645   -3.7779 C   0  0  0  0  0  0  0  0  0  0  0  0
    5.4123   -0.4862   -3.3041 H   0  0  0  0  0  0  0  0  0  0  0  0
    5.1949   -2.1387   -3.8443 H   0  0  0  0  0  0  0  0  0  0  0  0
    4.5953   -0.8128   -4.8182 H   0  0  0  0  0  0  0  0  0  0  0  0
    2.4540   -0.3103   -3.4040 N   0  0  0  0  0  0  0  0  0  0  0  0
    1.1494   -0.2128   -2.8039 C   0  0  2  0  0  0  0  0  0  0  0  0
    1.3350    0.0367   -1.3130 C   0  0  0  0  0  0  0  0  0  0  0  0
    2.3625   -0.2586   -0.7063 O   0  0  0  0  0  0  0  0  0  0  0  0
    0.3331   -1.4728   -3.0467 C   0  0  0  0  0  0  0  0  0  0  0  0
    2.6924    0.3404   -4.1502 H   0  0  0  0  0  0  0  0  0  0  0  0
    0.6550    0.6514   -3.2607 H   0  0  0  0  0  0  0  0  0  0  0  0
    0.8129   -2.3494   -2.5963 H   0  0  0  0  0  0  0  0  0  0  0  0
   -0.6690   -1.3857   -2.6142 H   0  0  0  0  0  0  0  0  0  0  0  0
    0.2259   -1.6670   -4.1194 H   0  0  0  0  0  0  0  0  0  0  0  0
    0.2019    0.5893   -0.7269 N   0  0  0  0  0  0  0  0  0  0  0  0
    0.1242    0.9059    0.6756 C   0  0  2  0  0  0  0  0  0  0  0  0
   -0.0407   -0.4125    1.4251 C   0  0  0  0  0  0  0  0  0  0  0  0
   -1.1361   -0.9265    1.6422 O   0  0  0  0  0  0  0  0  0  0  0  0
   -1.0446    1.8470    0.9944 C   0  0  0  0  0  0  0  0  0  0  0  0
   -0.9191    3.2613    0.3923 C   0  0  0  0  0  0  0  0  0  0  0  0
   -2.2058    4.0494    0.6534 C   0  0  0  0  0  0  0  0  0  0  0  0
   -0.6289    3.2320   -1.1089 C   0  0  0  0  0  0  0  0  0  0  0  0
   -0.5975    0.8179   -1.3140 H   0  0  0  0  0  0  0  0  0  0  0  0
    1.0835    1.3525    0.9560 H   0  0  0  0  0  0  0  0  0  0  0  0
   -1.1399    1.9367    2.0857 H   0  0  0  0  0  0  0  0  0  0  0  0
   -1.9826    1.3921    0.6493 H   0  0  0  0  0  0  0  0  0  0  0  0
   -0.0994    3.7931    0.8905 H   0  0  0  0  0  0  0  0  0  0  0  0
   -3.0637    3.5630    0.1771 H   0  0  0  0  0  0  0  0  0  0  0  0
   -2.1305    5.0633    0.2464 H   0  0  0  0  0  0  0  0  0  0  0  0
   -2.4134    4.1287    1.7260 H   0  0  0  0  0  0  0  0  0  0  0  0
   -1.4209    2.7096   -1.6562 H   0  0  0  0  0  0  0  0  0  0  0  0
   -0.5557    4.2487   -1.5100 H   0  0  0  0  0  0  0  0  0  0  0  0
    0.3208    2.7325   -1.3219 H   0  0  0  0  0  0  0  0  0  0  0  0
    1.1819   -0.9684    1.7757 N   0  0  0  0  0  0  0  0  0  0  0  0
    1.3092   -2.2293    2.4704 C   0  0  2  0  0  0  0  0  0  0  0  0
    0.2662   -3.1847    1.9058 C   0  0  0  0  0  0  0  0  0  0  0  0
   -0.7516   -2.8035    1.3314 O   0  0  0  0  0  0  0  0  0  0  0  0
    1.1311   -2.0549    3.9706 C   0  0  0  0  0  0  0  0  0  0  0  0
    2.0383   -0.4809    1.5296 H   0  0  0  0  0  0  0  0  0  0  0  0
    2.3121   -2.6114    2.2510 H   0  0  0  0  0  0  0  0  0  0  0  0
    0.1320   -1.6728    4.2099 H   0  0  0  0  0  0  0  0  0  0  0  0
    1.2562   -3.0063    4.4982 H   0  0  0  0  0  0  0  0  0  0  0  0
    1.8631   -1.3447    4.3700 H   0  0  0  0  0  0  0  0  0  0  0  0
    0.5842   -4.5121    2.1568 N   0  0  0  0  0  0  0  0  0  0  0  0
   -0.2549   -5.6085    1.7327 C   0  0  0  0  0  0  0  0  0  0  0  0
    1.4580   -4.7370    2.6233 H   0  0  0  0  0  0  0  0  0  0  0  0
   -0.9531   -5.8706    2.5412 H   0  0  0  0  0  0  0  0  0  0  0  0
   -0.8237   -5.3105    0.8395 H   0  0  0  0  0  0  0  0  0  0  0  0
    0.3730   -6.4795    1.4938 H   0  0  0  0  0  0  0  0  0  0  0  0
  1  3  1  0  0  0  0
  1  7  1  0  0  0  0
  1  2  2  0  0  0  0
 37 38  1  0  0  0  0
 38 46  1  0  0  0  0
 38 39  2  0  0  0  0
  8  9  1  0  0  0  0
  9 17  1  0  0  0  0
  9 10  2  0  0  0  0
 18 19  1  0  0  0  0
 19 36  1  0  0  0  0
 19 20  2  0  0  0  0
 37 40  1  0  0  0  0
  8 11  1  0  0  0  0
 22 23  1  0  0  0  0
 22 24  1  0  0  0  0
 46 47  1  0  0  0  0
 18 21  1  0  0  0  0
 21 22  1  0  0  0  0
 36 37  1  0  0  0  0
  7  8  1  0  0  0  0
 17 18  1  0  0  0  0
  3  4  1  0  0  0  0
  3  5  1  0  0  0  0
  3  6  1  0  0  0  0
 40 43  1  0  0  0  0
 40 44  1  0  0  0  0
 40 45  1  0  0  0  0
 11 14  1  0  0  0  0
 11 15  1  0  0  0  0
 11 16  1  0  0  0  0
 23 30  1  0  0  0  0
 23 31  1  0  0  0  0
 23 32  1  0  0  0  0
 24 33  1  0  0  0  0
 24 34  1  0  0  0  0
 24 35  1  0  0  0  0
 47 49  1  0  0  0  0
 47 50  1  0  0  0  0
 47 51  1  0  0  0  0
 21 27  1  0  0  0  0
 21 28  1  0  0  0  0
 37 42  1  0  0  0  0
  8 13  1  0  0  0  0
 18 26  1  0  0  0  0
 22 29  1  0  0  0  0
 46 48  1  0  0  0  0
  7 12  1  0  0  0  0
 36 41  1  0  0  0  0
 17 25  1  0  0  0  0
M  END
$$$$

  -OEChem-05262214473D

 51 50  0     1  0  0  0  0  0999 V2000
    3.4018   -1.2440   -3.0186 C   0  0  0  0  0  0  0  0  0  0  0  0
    3.2697   -2.0909   -2.1427 O   0  0  0  0  0  0  0  0  0  0  0  0
    4.6845   -1.1645   -3.7779 C   0  0  0  0  0  0  0  0  0  0  0  0
    5.4123   -0.4862   -3.3041 H   0  0  0  0  0  0  0  0  0  0  0  0
    5.1949   -2.1387   -3.8443 H   0  0  0  0  0  0  0  0  0  0  0  0
    4.5953   -0.8128   -4.8182 H   0  0  0  0  0  0  0  0  0  0  0  0
    2.4540   -0.3103   -3.4040 N   0  0  0  0  0  0  0  0  0  0  0  0
    1.1494   -0.2128   -2.8039 C   0  0  2  0  0  0  0  0  0  0  0  0
    1.3350    0.0367   -1.3130 C   0  0  0  0  0  0  0  0  0  0  0  0
    2.3625   -0.2586   -0.7063 O   0  0  0  0  0  0  0  0  0  0  0  0
    0.3331   -1.4728   -3.0467 C   0  0  0  0  0  0  0  0  0  0  0  0
    2.6924    0.3404   -4.1502 H   0  0  0  0  0  0  0  0  0  0  0  0
    0.6550    0.6514   -3.2607 H   0  0  0  0  0  0  0  0  0  0  0  0
    0.8129   -2.3494   -2.5963 H   0  0  0  0  0  0  0  0  0  0  0  0
   -0.6690   -1.3857   -2.6142 H   0  0  0  0  0  0  0  0  0  0  0  0
    0.2259   -1.6670   -4.1194 H   0  0  0  0  0  0  0  0  0  0  0  0
    0.2019    0.5893   -0.7269 N   0  0  0  0  0  0  0  0  0  0  0  0
    0.1242    0.9059    0.6756 C   0  0  2  0  0  0  0  0  0  0  0  0
   -0.0407   -0.4125    1.4251 C   0  0  0  0  0  0  0  0  0  0  0  0
   -1.0844   -1.0619    1.4153 O   0  0  0  0  0  0  0  0  0  0  0  0
   -1.0446    1.8470    0.9944 C   0  0  0  0  0  0  0  0  0  0  0  0
   -0.9191    3.2613    0.3923 C   0  0  0  0  0  0  0  0  0  0  0  0
   -2.2058    4.0494    0.6534 C   0  0  0  0  0  0  0  0  0  0  0  0
   -0.6289    3.2320   -1.1089 C   0  0  0  0  0  0  0  0  0  0  0  0
   -0.5975    0.8179   -1.3140 H   0  0  0  0  0  0  0  0  0  0  0  0
    1.0835    1.3525    0.9560 H   0  0  0  0  0  0  0  0  0  0  0  0
   -1.1399    1.9367    2.0857 H   0  0  0  0  0  0  0  0  0  0  0  0
   -1.9826    1.3921    0.6493 H   0  0  0  0  0  0  0  0  0  0  0  0
   -0.0994    3.7931    0.8905 H   0  0  0  0  0  0  0  0  0  0  0  0
   -3.0637    3.5630    0.1771 H   0  0  0  0  0  0  0  0  0  0  0  0
   -2.1305    5.0633    0.2464 H   0  0  0  0  0  0  0  0  0  0  0  0
   -2.4134    4.1287    1.7260 H   0  0  0  0  0  0  0  0  0  0  0  0
   -1.4209    2.7096   -1.6562 H   0  0  0  0  0  0  0  0  0  0  0  0
   -0.5557    4.2487   -1.5100 H   0  0  0  0  0  0  0  0  0  0  0  0
    0.3208    2.7325   -1.3219 H   0  0  0  0  0  0  0  0  0  0  0  0
    1.1306   -0.7995    2.0615 N   0  0  0  0  0  0  0  0  0  0  0  0
    1.2533   -2.0235    2.8200 C   0  0  2  0  0  0  0  0  0  0  0  0
    0.4912   -3.1143    2.0791 C   0  0  0  0  0  0  0  0  0  0  0  0
   -0.4101   -2.8768    1.2776 O   0  0  0  0  0  0  0  0  0  0  0  0
    0.7213   -1.8537    4.2345 C   0  0  0  0  0  0  0  0  0  0  0  0
    1.9532   -0.2079    1.9911 H   0  0  0  0  0  0  0  0  0  0  0  0
    2.3193   -2.2746    2.8449 H   0  0  0  0  0  0  0  0  0  0  0  0
   -0.3455   -1.6018    4.2297 H   0  0  0  0  0  0  0  0  0  0  0  0
    0.8411   -2.7734    4.8166 H   0  0  0  0  0  0  0  0  0  0  0  0
    1.2505   -1.0487    4.7558 H   0  0  0  0  0  0  0  0  0  0  0  0
    0.9064   -4.3854    2.4505 N   0  0  0  0  0  0  0  0  0  0  0  0
    0.3272   -5.5874    1.8977 C   0  0  0  0  0  0  0  0  0  0  0  0
    1.6736   -4.4882    3.1083 H   0  0  0  0  0  0  0  0  0  0  0  0
   -0.4973   -5.9274    2.5416 H   0  0  0  0  0  0  0  0  0  0  0  0
   -0.0580   -5.3782    0.8888 H   0  0  0  0  0  0  0  0  0  0  0  0
    1.0958   -6.3723    1.8413 H   0  0  0  0  0  0  0  0  0  0  0  0
  1  3  1  0  0  0  0
  1  7  1  0  0  0  0
  1  2  2  0  0  0  0
 37 38  1  0  0  0  0
 38 46  1  0  0  0  0
 38 39  2  0  0  0  0
  8  9  1  0  0  0  0
  9 17  1  0  0  0  0
  9 10  2  0  0  0  0
 18 19  1  0  0  0  0
 19 36  1  0  0  0  0
 19 20  2  0  0  0  0
 37 40  1  0  0  0  0
  8 11  1  0  0  0  0
 22 23  1  0  0  0  0
 22 24  1  0  0  0  0
 46 47  1  0  0  0  0
 18 21  1  0  0  0  0
 21 22  1  0  0  0  0
 36 37  1  0  0  0  0
  7  8  1  0  0  0  0
 17 18  1  0  0  0  0
  3  4  1  0  0  0  0
  3  5  1  0  0  0  0
  3  6  1  0  0  0  0
 40 43  1  0  0  0  0
 40 44  1  0  0  0  0
 40 45  1  0  0  0  0
 11 14  1  0  0  0  0
 11 15  1  0  0  0  0
 11 16  1  0  0  0  0
 23 30  1  0  0  0  0
 23 31  1  0  0  0  0
 23 32  1  0  0  0  0
 24 33  1  0  0  0  0
 24 34  1  0  0  0  0
 24 35  1  0  0  0  0
 47 49  1  0  0  0  0
 47 50  1  0  0  0  0
 47 51  1  0  0  0  0
 21 27  1  0  0  0  0
 21 28  1  0  0  0  0
 37 42  1  0  0  0  0
  8 13  1  0  0  0  0
 18 26  1  0  0  0  0
 22 29  1  0  0  0  0
 46 48  1  0  0  0  0
  7 12  1  0  0  0  0
 36 41  1  0  0  0  0
 17 25  1  0  0  0  0
M  END
$$$$

  -OEChem-05262214473D

 51 50  0     1  0  0  0  0  0999 V2000
    3.4018   -1.2440   -3.0186 C   0  0  0  0  0  0  0  0  0  0  0  0
    3.2697   -2.0909   -2.1427 O   0  0  0  0  0  0  0  0  0  0  0  0
    4.6845   -1.1645   -3.7779 C   0  0  0  0  0  0  0  0  0  0  0  0
    5.4123   -0.4862   -3.3041 H   0  0  0  0  0  0  0  0  0  0  0  0
    5.1949   -2.1387   -3.8443 H   0  0  0  0  0  0  0  0  0  0  0  0
    4.5953   -0.8128   -4.8182 H   0  0  0  0  0  0  0  0  0  0  0  0
    2.4540   -0.3103   -3.4040 N   0  0  0  0  0  0  0  0  0  0  0  0
    1.1494   -0.2128   -2.8039 C   0  0  2  0  0  0  0  0  0  0  0  0
    1.3350    0.0367   -1.3130 C   0  0  0  0  0  0  0  0  0  0  0  0
    2.3625   -0.2586   -0.7063 O   0  0  0  0  0  0  0  0  0  0  0  0
    0.3331   -1.4728   -3.0467 C   0  0  0  0  0  0  0  0  0  0  0  0
    2.6924    0.3404   -4.1502 H   0  0  0  0  0  0  0  0  0  0  0  0
    0.6550    0.6514   -3.2607 H   0  0  0  0  0  0  0  0  0  0  0  0
    0.8129   -2.3494   -2.5963 H   0  0  0  0  0  0  0  0  0  0  0  0
   -0.6690   -1.3857   -2.6142 H   0  0  0  0  0  0  0  0  0  0  0  0
    0.2259   -1.6670   -4.1194 H   0  0  0  0  0  0  0  0  0  0  0  0
    0.2019    0.5893   -0.7269 N   0  0  0  0  0  0  0  0  0  0  0  0
    0.1242    0.9059    0.6756 C   0  0  2  0  0  0  0  0  0  0  0  0
   -0.0407   -0.4125    1.4251 C   0  0  0  0  0  0  0  0  0  0  0  0
   -0.9665   -1.1925    1.2116 O   0  0  0  0  0  0  0  0  0  0  0  0
   -1.0446    1.8470    0.9944 C   0  0  0  0  0  0  0  0  0  0  0  0
   -0.9191    3.2613    0.3923 C   0  0  0  0  0  0  0  0  0  0  0  0
   -2.2058    4.0494    0.6534 C   0  0  0  0  0  0  0  0  0  0  0  0
   -0.6289    3.2320   -1.1089 C   0  0  0  0  0  0  0  0  0  0  0  0
   -0.5975    0.8179   -1.3140 H   0  0  0  0  0  0  0  0  0  0  0  0
    1.0835    1.3525    0.9560 H   0  0  0  0  0  0  0  0  0  0  0  0
   -1.1399    1.9367    2.0857 H   0  0  0  0  0  0  0  0  0  0  0  0
   -1.9826    1.3921    0.6493 H   0  0  0  0  0  0  0  0  0  0  0  0
   -0.0994    3.7931    0.8905 H   0  0  0  0  0  0  0  0  0  0  0  0
   -3.0637    3.5630    0.1771 H   0  0  0  0  0  0  0  0  0  0  0  0
   -2.1305    5.0633    0.2464 H   0  0  0  0  0  0  0  0  0  0  0  0
   -2.4134    4.1287    1.7260 H   0  0  0  0  0  0  0  0  0  0  0  0
   -1.4209    2.7096   -1.6562 H   0  0  0  0  0  0  0  0  0  0  0  0
   -0.5557    4.2487   -1.5100 H   0  0  0  0  0  0  0  0  0  0  0  0
    0.3208    2.7325   -1.3219 H   0  0  0  0  0  0  0  0  0  0  0  0
    0.9956   -0.6349    2.3213 N   0  0  0  0  0  0  0  0  0  0  0  0
    1.0949   -1.8222    3.1394 C   0  0  2  0  0  0  0  0  0  0  0  0
    0.6608   -3.0129    2.2948 C   0  0  0  0  0  0  0  0  0  0  0  0
   -0.0588   -2.9057    1.3040 O   0  0  0  0  0  0  0  0  0  0  0  0
    0.2408   -1.7040    4.3921 C   0  0  0  0  0  0  0  0  0  0  0  0
    1.7330    0.0579    2.4102 H   0  0  0  0  0  0  0  0  0  0  0  0
    2.1505   -1.9318    3.4109 H   0  0  0  0  0  0  0  0  0  0  0  0
   -0.8202   -1.5934    4.1400 H   0  0  0  0  0  0  0  0  0  0  0  0
    0.3394   -2.5923    5.0247 H   0  0  0  0  0  0  0  0  0  0  0  0
    0.5349   -0.8300    4.9832 H   0  0  0  0  0  0  0  0  0  0  0  0
    1.1359   -4.2139    2.8027 N   0  0  0  0  0  0  0  0  0  0  0  0
    0.8498   -5.4885    2.1867 C   0  0  0  0  0  0  0  0  0  0  0  0
    1.7416   -4.2069    3.6181 H   0  0  0  0  0  0  0  0  0  0  0  0
   -0.0499   -5.9243    2.6454 H   0  0  0  0  0  0  0  0  0  0  0  0
    0.6792   -5.3449    1.1095 H   0  0  0  0  0  0  0  0  0  0  0  0
    1.7026   -6.1672    2.3356 H   0  0  0  0  0  0  0  0  0  0  0  0
  1  3  1  0  0  0  0
  1  7  1  0  0  0  0
  1  2  2  0  0  0  0
 37 38  1  0  0  0  0
 38 46  1  0  0  0  0
 38 39  2  0  0  0  0
  8  9  1  0  0  0  0
  9 17  1  0  0  0  0
  9 10  2  0  0  0  0
 18 19  1  0  0  0  0
 19 36  1  0  0  0  0
 19 20  2  0  0  0  0
 37 40  1  0  0  0  0
  8 11  1  0  0  0  0
 22 23  1  0  0  0  0
 22 24  1  0  0  0  0
 46 47  1  0  0  0  0
 18 21  1  0  0  0  0
 21 22  1  0  0  0  0
 36 37  1  0  0  0  0
  7  8  1  0  0  0  0
 17 18  1  0  0  0  0
  3  4  1  0  0  0  0
  3  5  1  0  0  0  0
  3  6  1  0  0  0  0
 40 43  1  0  0  0  0
 40 44  1  0  0  0  0
 40 45  1  0  0  0  0
 11 14  1  0  0  0  0
 11 15  1  0  0  0  0
 11 16  1  0  0  0  0
 23 30  1  0  0  0  0
 23 31  1  0  0  0  0
 23 32  1  0  0  0  0
 24 33  1  0  0  0  0
 24 34  1  0  0  0  0
 24 35  1  0  0  0  0
 47 49  1  0  0  0  0
 47 50  1  0  0  0  0
 47 51  1  0  0  0  0
 21 27  1  0  0  0  0
 21 28  1  0  0  0  0
 37 42  1  0  0  0  0
  8 13  1  0  0  0  0
 18 26  1  0  0  0  0
 22 29  1  0  0  0  0
 46 48  1  0  0  0  0
  7 12  1  0  0  0  0
 36 41  1  0  0  0  0
 17 25  1  0  0  0  0
M  END
$$$$

  -OEChem-05262214473D

 51 50  0     1  0  0  0  0  0999 V2000
    3.4018   -1.2440   -3.0186 C   0  0  0  0  0  0  0  0  0  0  0  0
    3.2697   -2.0909   -2.1427 O   0  0  0  0  0  0  0  0  0  0  0  0
    4.6845   -1.1645   -3.7779 C   0  0  0  0  0  0  0  0  0  0  0  0
    5.4123   -0.4862   -3.3041 H   0  0  0  0  0  0  0  0  0  0  0  0
    5.1949   -2.1387   -3.8443 H   0  0  0  0  0  0  0  0  0  0  0  0
    4.5953   -0.8128   -4.8182 H   0  0  0  0  0  0  0  0  0  0  0  0
    2.4540   -0.3103   -3.4040 N   0  0  0  0  0  0  0  0  0  0  0  0
    1.1494   -0.2128   -2.8039 C   0  0  2  0  0  0  0  0  0  0  0  0
    1.3350    0.0367   -1.3130 C   0  0  0  0  0  0  0  0  0  0  0  0
    2.3625   -0.2586   -0.7063 O   0  0  0  0  0  0  0  0  0  0  0  0
    0.3331   -1.4728   -3.0467 C   0  0  0  0  0  0  0  0  0  0  0  0
    2.6924    0.3404   -4.1502 H   0  0  0  0  0  0  0  0  0  0  0  0
    0.6550    0.6514   -3.2607 H   0  0  0  0  0  0  0  0  0  0  0  0
    0.8129   -2.3494   -2.5963 H   0  0  0  0  0  0  0  0  0  0  0  0
   -0.6690   -1.3857   -2.6142 H   0  0  0  0  0  0  0  0  0  0  0  0
    0.2259   -1.6670   -4.1194 H   0  0  0  0  0  0  0  0  0  0  0  0
    0.2019    0.5893   -0.7269 N   0  0  0  0  0  0  0  0  0  0  0  0
    0.1242    0.9059    0.6756 C   0  0  2  0  0  0  0  0  0  0  0  0
   -0.0407   -0.4125    1.4251 C   0  0  0  0  0  0  0  0  0  0  0  0
   -0.7905   -1.3093    1.0448 O   0  0  0  0  0  0  0  0  0  0  0  0
   -1.0446    1.8470    0.9944 C   0  0  0  0  0  0  0  0  0  0  0  0
   -0.9191    3.2613    0.3923 C   0  0  0  0  0  0  0  0  0  0  0  0
   -2.2058    4.0494    0.6534 C   0  0  0  0  0  0  0  0  0  0  0  0
   -0.6289    3.2320   -1.1089 C   0  0  0  0  0  0  0  0  0  0  0  0
   -0.5975    0.8179   -1.3140 H   0  0  0  0  0  0  0  0  0  0  0  0
    1.0835    1.3525    0.9560 H   0  0  0  0  0  0  0  0  0  0  0  0
   -1.1399    1.9367    2.0857 H   0  0  0  0  0  0  0  0  0  0  0  0
   -1.9826    1.3921    0.6493 H   0  0  0  0  0  0  0  0  0  0  0  0
   -0.0994    3.7931    0.8905 H   0  0  0  0  0  0  0  0  0  0  0  0
   -3.0637    3.5630    0.1771 H   0  0  0  0  0  0  0  0  0  0  0  0
   -2.1305    5.0633    0.2464 H   0  0  0  0  0  0  0  0  0  0  0  0
   -2.4134    4.1287    1.7260 H   0  0  0  0  0  0  0  0  0  0  0  0
   -1.4209    2.7096   -1.6562 H   0  0  0  0  0  0  0  0  0  0  0  0
   -0.5557    4.2487   -1.5100 H   0  0  0  0  0  0  0  0  0  0  0  0
    0.3208    2.7325   -1.3219 H   0  0  0  0  0  0  0  0  0  0  0  0
    0.7862   -0.4858    2.5375 N   0  0  0  0  0  0  0  0  0  0  0  0
    0.8449   -1.6388    3.4068 C   0  0  2  0  0  0  0  0  0  0  0  0
    0.7634   -2.8873    2.5383 C   0  0  0  0  0  0  0  0  0  0  0  0
    0.2782   -2.8882    1.4089 O   0  0  0  0  0  0  0  0  0  0  0  0
   -0.2775   -1.6161    4.4326 C   0  0  0  0  0  0  0  0  0  0  0  0
    1.3929    0.2983    2.7583 H   0  0  0  0  0  0  0  0  0  0  0  0
    1.8173   -1.6062    3.9102 H   0  0  0  0  0  0  0  0  0  0  0  0
   -1.2597   -1.6482    3.9470 H   0  0  0  0  0  0  0  0  0  0  0  0
   -0.2148   -2.4754    5.1085 H   0  0  0  0  0  0  0  0  0  0  0  0
   -0.2351   -0.7034    5.0367 H   0  0  0  0  0  0  0  0  0  0  0  0
    1.2570   -4.0091    3.1895 N   0  0  0  0  0  0  0  0  0  0  0  0
    1.2775   -5.3184    2.5800 C   0  0  0  0  0  0  0  0  0  0  0  0
    1.6575   -3.9122    4.1178 H   0  0  0  0  0  0  0  0  0  0  0  0
    0.3586   -5.8615    2.8457 H   0  0  0  0  0  0  0  0  0  0  0  0
    1.3377   -5.2128    1.4867 H   0  0  0  0  0  0  0  0  0  0  0  0
    2.1521   -5.8780    2.9430 H   0  0  0  0  0  0  0  0  0  0  0  0
  1  3  1  0  0  0  0
  1  7  1  0  0  0  0
  1  2  2  0  0  0  0
 37 38  1  0  0  0  0
 38 46  1  0  0  0  0
 38 39  2  0  0  0  0
  8  9  1  0  0  0  0
  9 17  1  0  0  0  0
  9 10  2  0  0  0  0
 18 19  1  0  0  0  0
 19 36  1  0  0  0  0
 19 20  2  0  0  0  0
 37 40  1  0  0  0  0
  8 11  1  0  0  0  0
 22 23  1  0  0  0  0
 22 24  1  0  0  0  0
 46 47  1  0  0  0  0
 18 21  1  0  0  0  0
 21 22  1  0  0  0  0
 36 37  1  0  0  0  0
  7  8  1  0  0  0  0
 17 18  1  0  0  0  0
  3  4  1  0  0  0  0
  3  5  1  0  0  0  0
  3  6  1  0  0  0  0
 40 43  1  0  0  0  0
 40 44  1  0  0  0  0
 40 45  1  0  0  0  0
 11 14  1  0  0  0  0
 11 15  1  0  0  0  0
 11 16  1  0  0  0  0
 23 30  1  0  0  0  0
 23 31  1  0  0  0  0
 23 32  1  0  0  0  0
 24 33  1  0  0  0  0
 24 34  1  0  0  0  0
 24 35  1  0  0  0  0
 47 49  1  0  0  0  0
 47 50  1  0  0  0  0
 47 51  1  0  0  0  0
 21 27  1  0  0  0  0
 21 28  1  0  0  0  0
 37 42  1  0  0  0  0
  8 13  1  0  0  0  0
 18 26  1  0  0  0  0
 22 29  1  0  0  0  0
 46 48  1  0  0  0  0
  7 12  1  0  0  0  0
 36 41  1  0  0  0  0
 17 25  1  0  0  0  0
M  END
$$$$

  -OEChem-05262214473D

 51 50  0     1  0  0  0  0  0999 V2000
    3.4018   -1.2440   -3.0186 C   0  0  0  0  0  0  0  0  0  0  0  0
    3.2697   -2.0909   -2.1427 O   0  0  0  0  0  0  0  0  0  0  0  0
    4.6845   -1.1645   -3.7779 C   0  0  0  0  0  0  0  0  0  0  0  0
    5.4123   -0.4862   -3.3041 H   0  0  0  0  0  0  0  0  0  0  0  0
    5.1949   -2.1387   -3.8443 H   0  0  0  0  0  0  0  0  0  0  0  0
    4.5953   -0.8128   -4.8182 H   0  0  0  0  0  0  0  0  0  0  0  0
    2.4540   -0.3103   -3.4040 N   0  0  0  0  0  0  0  0  0  0  0  0
    1.1494   -0.2128   -2.8039 C   0  0  2  0  0  0  0  0  0  0  0  0
    1.3350    0.0367   -1.3130 C   0  0  0  0  0  0  0  0  0  0  0  0
    2.3625   -0.2586   -0.7063 O   0  0  0  0  0  0  0  0  0  0  0  0
    0.3331   -1.4728   -3.0467 C   0  0  0  0  0  0  0  0  0  0  0  0
    2.6924    0.3404   -4.1502 H   0  0  0  0  0  0  0  0  0  0  0  0
    0.6550    0.6514   -3.2607 H   0  0  0  0  0  0  0  0  0  0  0  0
    0.8129   -2.3494   -2.5963 H   0  0  0  0  0  0  0  0  0  0  0  0
   -0.6690   -1.3857   -2.6142 H   0  0  0  0  0  0  0  0  0  0  0  0
    0.2259   -1.6670   -4.1194 H   0  0  0  0  0  0  0  0  0  0  0  0
    0.2019    0.5893   -0.7269 N   0  0  0  0  0  0  0  0  0  0  0  0
    0.1242    0.9059    0.6756 C   0  0  2  0  0  0  0  0  0  0  0  0
   -0.0407   -0.4125    1.4251 C   0  0  0  0  0  0  0  0  0  0  0  0
   -0.5683   -1.4045    0.9263 O   0  0  0  0  0  0  0  0  0  0  0  0
   -1.0446    1.8470    0.9944 C   0  0  0  0  0  0  0  0  0  0  0  0
   -0.9191    3.2613    0.3923 C   0  0  0  0  0  0  0  0  0  0  0  0
   -2.2058    4.0494    0.6534 C   0  0  0  0  0  0  0  0  0  0  0  0
   -0.6289    3.2320   -1.1089 C   0  0  0  0  0  0  0  0  0  0  0  0
   -0.5975    0.8179   -1.3140 H   0  0  0  0  0  0  0  0  0  0  0  0
    1.0835    1.3525    0.9560 H   0  0  0  0  0  0  0  0  0  0  0  0
   -1.1399    1.9367    2.0857 H   0  0  0  0  0  0  0  0  0  0  0  0
   -1.9826    1.3921    0.6493 H   0  0  0  0  0  0  0  0  0  0  0  0
   -0.0994    3.7931    0.8905 H   0  0  0  0  0  0  0  0  0  0  0  0
   -3.0637    3.5630    0.1771 H   0  0  0  0  0  0  0  0  0  0  0  0
   -2.1305    5.0633    0.2464 H   0  0  0  0  0  0  0  0  0  0  0  0
   -2.4134    4.1287    1.7260 H   0  0  0  0  0  0  0  0  0  0  0  0
   -1.4209    2.7096   -1.6562 H   0  0  0  0  0  0  0  0  0  0  0  0
   -0.5557    4.2487   -1.5100 H   0  0  0  0  0  0  0  0  0  0  0  0
    0.3208    2.7325   -1.3219 H   0  0  0  0  0  0  0  0  0  0  0  0
    0.5166   -0.3624    2.6953 N   0  0  0  0  0  0  0  0  0  0  0  0
    0.5203   -1.4861    3.6041 C   0  0  2  0  0  0  0  0  0  0  0  0
    0.7922   -2.7461    2.7930 C   0  0  0  0  0  0  0  0  0  0  0  0
    0.5781   -2.8255    1.5851 O   0  0  0  0  0  0  0  0  0  0  0  0
   -0.7985   -1.5960    4.3534 C   0  0  0  0  0  0  0  0  0  0  0  0
    0.9558    0.4970    3.0117 H   0  0  0  0  0  0  0  0  0  0  0  0
    1.3424   -1.3202    4.3088 H   0  0  0  0  0  0  0  0  0  0  0  0
   -1.6341   -1.7624    3.6638 H   0  0  0  0  0  0  0  0  0  0  0  0
   -0.7837   -2.4306    5.0622 H   0  0  0  0  0  0  0  0  0  0  0  0
   -1.0068   -0.6775    4.9125 H   0  0  0  0  0  0  0  0  0  0  0  0
    1.2614   -3.7852    3.5844 N   0  0  0  0  0  0  0  0  0  0  0  0
    1.5809   -5.0886    3.0507 C   0  0  0  0  0  0  0  0  0  0  0  0
    1.4271   -3.6243    4.5735 H   0  0  0  0  0  0  0  0  0  0  0  0
    0.7004   -5.7433    3.1288 H   0  0  0  0  0  0  0  0  0  0  0  0
    1.8726   -4.9909    1.9946 H   0  0  0  0  0  0  0  0  0  0  0  0
    2.4136   -5.5246    3.6222 H   0  0  0  0  0  0  0  0  0  0  0  0
  1  3  1  0  0  0  0
  1  7  1  0  0  0  0
  1  2  2  0  0  0  0
 37 38  1  0  0  0  0
 38 46  1  0  0  0  0
 38 39  2  0  0  0  0
  8  9  1  0  0  0  0
  9 17  1  0  0  0  0
  9 10  2  0  0  0  0
 18 19  1  0  0  0  0
 19 36  1  0  0  0  0
 19 20  2  0  0  0  0
 37 40  1  0  0  0  0
  8 11  1  0  0  0  0
 22 23  1  0  0  0  0
 22 24  1  0  0  0  0
 46 47  1  0  0  0  0
 18 21  1  0  0  0  0
 21 22  1  0  0  0  0
 36 37  1  0  0  0  0
  7  8  1  0  0  0  0
 17 18  1  0  0  0  0
  3  4  1  0  0  0  0
  3  5  1  0  0  0  0
  3  6  1  0  0  0  0
 40 43  1  0  0  0  0
 40 44  1  0  0  0  0
 40 45  1  0  0  0  0
 11 14  1  0  0  0  0
 11 15  1  0  0  0  0
 11 16  1  0  0  0  0
 23 30  1  0  0  0  0
 23 31  1  0  0  0  0
 23 32  1  0  0  0  0
 24 33  1  0  0  0  0
 24 34  1  0  0  0  0
 24 35  1  0  0  0  0
 47 49  1  0  0  0  0
 47 50  1  0  0  0  0
 47 51  1  0  0  0  0
 21 27  1  0  0  0  0
 21 28  1  0  0  0  0
 37 42  1  0  0  0  0
  8 13  1  0  0  0  0
 18 26  1  0  0  0  0
 22 29  1  0  0  0  0
 46 48  1  0  0  0  0
  7 12  1  0  0  0  0
 36 41  1  0  0  0  0
 17 25  1  0  0  0  0
M  END
$$$$

  -OEChem-05262214473D

 51 50  0     1  0  0  0  0  0999 V2000
    3.4018   -1.2440   -3.0186 C   0  0  0  0  0  0  0  0  0  0  0  0
    3.2697   -2.0909   -2.1427 O   0  0  0  0  0  0  0  0  0  0  0  0
    4.6845   -1.1645   -3.7779 C   0  0  0  0  0  0  0  0  0  0  0  0
    5.4123   -0.4862   -3.3041 H   0  0  0  0  0  0  0  0  0  0  0  0
    5.1949   -2.1387   -3.8443 H   0  0  0  0  0  0  0  0  0  0  0  0
    4.5953   -0.8128   -4.8182 H   0  0  0  0  0  0  0  0  0  0  0  0
    2.4540   -0.3103   -3.4040 N   0  0  0  0  0  0  0  0  0  0  0  0
    1.1494   -0.2128   -2.8039 C   0  0  2  0  0  0  0  0  0  0  0  0
    1.3350    0.0367   -1.3130 C   0  0  0  0  0  0  0  0  0  0  0  0
    2.3625   -0.2586   -0.7063 O   0  0  0  0  0  0  0  0  0  0  0  0
    0.3331   -1.4728   -3.0467 C   0  0  0  0  0  0  0  0  0  0  0  0
    2.6924    0.3404   -4.1502 H   0  0  0  0  0  0  0  0  0  0  0  0
    0.6550    0.6514   -3.2607 H   0  0  0  0  0  0  0  0  0  0  0  0
    0.8129   -2.3494   -2.5963 H   0  0  0  0  0  0  0  0  0  0  0  0
   -0.6690   -1.3857   -2.6142 H   0  0  0  0  0  0  0  0  0  0  0  0
    0.2259   -1.6670   -4.1194 H   0  0  0  0  0  0  0  0  0  0  0  0
    0.2019    0.5893   -0.7269 N   0  0  0  0  0  0  0  0  0  0  0  0
    0.1242    0.9059    0.6756 C   0  0  2  0  0  0  0  0  0  0  0  0
   -0.0407   -0.4125    1.4251 C   0  0  0  0  0  0  0  0  0  0  0  0
   -0.3150   -1.4714    0.8642 O   0  0  0  0  0  0  0  0  0  0  0  0
   -1.0446    1.8470    0.9944 C   0  0  0  0  0  0  0  0  0  0  0  0
   -0.9191    3.2613    0.3923 C   0  0  0  0  0  0  0  0  0  0  0  0
   -2.2058    4.0494    0.6534 C   0  0  0  0  0  0  0  0  0  0  0  0
   -0.6289    3.2320   -1.1089 C   0  0  0  0  0  0  0  0  0  0  0  0
   -0.5975    0.8179   -1.3140 H   0  0  0  0  0  0  0  0  0  0  0  0
    1.0835    1.3525    0.9560 H   0  0  0  0  0  0  0  0  0  0  0  0
   -1.1399    1.9367    2.0857 H   0  0  0  0  0  0  0  0  0  0  0  0
   -1.9826    1.3921    0.6493 H   0  0  0  0  0  0  0  0  0  0  0  0
   -0.0994    3.7931    0.8905 H   0  0  0  0  0  0  0  0  0  0  0  0
   -3.0637    3.5630    0.1771 H   0  0  0  0  0  0  0  0  0  0  0  0
   -2.1305    5.0633    0.2464 H   0  0  0  0  0  0  0  0  0  0  0  0
   -2.4134    4.1287    1.7260 H   0  0  0  0  0  0  0  0  0  0  0  0
   -1.4209    2.7096   -1.6562 H   0  0  0  0  0  0  0  0  0  0  0  0
   -0.5557    4.2487   -1.5100 H   0  0  0  0  0  0  0  0  0  0  0  0
    0.3208    2.7325   -1.3219 H   0  0  0  0  0  0  0  0  0  0  0  0
    0.2052   -0.2730    2.7840 N   0  0  0  0  0  0  0  0  0  0  0  0
    0.1432   -1.3743    3.7178 C   0  0  2  0  0  0  0  0  0  0  0  0
    0.7450   -2.5989    3.0414 C   0  0  0  0  0  0  0  0  0  0  0  0
    0.8204   -2.7218    1.8206 O   0  0  0  0  0  0  0  0  0  0  0  0
   -1.2865   -1.6451    4.1598 C   0  0  0  0  0  0  0  0  0  0  0  0
    0.4517    0.6405    3.1532 H   0  0  0  0  0  0  0  0  0  0  0  0
    0.7581   -1.0932    4.5797 H   0  0  0  0  0  0  0  0  0  0  0  0
   -1.9179   -1.9283    3.3097 H   0  0  0  0  0  0  0  0  0  0  0  0
   -1.3286   -2.4610    4.8889 H   0  0  0  0  0  0  0  0  0  0  0  0
   -1.7278   -0.7540    4.6192 H   0  0  0  0  0  0  0  0  0  0  0  0
    1.1488   -3.5572    3.9606 N   0  0  0  0  0  0  0  0  0  0  0  0
    1.7396   -4.8150    3.5669 C   0  0  0  0  0  0  0  0  0  0  0  0
    1.0659   -3.3628    4.9541 H   0  0  0  0  0  0  0  0  0  0  0  0
    0.9523   -5.5778    3.4754 H   0  0  0  0  0  0  0  0  0  0  0  0
    2.2474   -4.6943    2.5987 H   0  0  0  0  0  0  0  0  0  0  0  0
    2.4694   -5.1309    4.3269 H   0  0  0  0  0  0  0  0  0  0  0  0
  1  3  1  0  0  0  0
  1  7  1  0  0  0  0
  1  2  2  0  0  0  0
 37 38  1  0  0  0  0
 38 46  1  0  0  0  0
 38 39  2  0  0  0  0
  8  9  1  0  0  0  0
  9 17  1  0  0  0  0
  9 10  2  0  0  0  0
 18 19  1  0  0  0  0
 19 36  1  0  0  0  0
 19 20  2  0  0  0  0
 37 40  1  0  0  0  0
  8 11  1  0  0  0  0
 22 23  1  0  0  0  0
 22 24  1  0  0  0  0
 46 47  1  0  0  0  0
 18 21  1  0  0  0  0
 21 22  1  0  0  0  0
 36 37  1  0  0  0  0
  7  8  1  0  0  0  0
 17 18  1  0  0  0  0
  3  4  1  0  0  0  0
  3  5  1  0  0  0  0
  3  6  1  0  0  0  0
 40 43  1  0  0  0  0
 40 44  1  0  0  0  0
 40 45  1  0  0  0  0
 11 14  1  0  0  0  0
 11 15  1  0  0  0  0
 11 16  1  0  0  0  0
 23 30  1  0  0  0  0
 23 31  1  0  0  0  0
 23 32  1  0  0  0  0
 24 33  1  0  0  0  0
 24 34  1  0  0  0  0
 24 35  1  0  0  0  0
 47 49  1  0  0  0  0
 47 50  1  0  0  0  0
 47 51  1  0  0  0  0
 21 27  1  0  0  0  0
 21 28  1  0  0  0  0
 37 42  1  0  0  0  0
  8 13  1  0  0  0  0
 18 26  1  0  0  0  0
 22 29  1  0  0  0  0
 46 48  1  0  0  0  0
  7 12  1  0  0  0  0
 36 41  1  0  0  0  0
 17 25  1  0  0  0  0
M  END
$$$$

  -OEChem-05262214473D

 51 50  0     1  0  0  0  0  0999 V2000
    3.4018   -1.2440   -3.0186 C   0  0  0  0  0  0  0  0  0  0  0  0
    3.2697   -2.0909   -2.1427 O   0  0  0  0  0  0  0  0  0  0  0  0
    4.6845   -1.1645   -3.7779 C   0  0  0  0  0  0  0  0  0  0  0  0
    5.4123   -0.4862   -3.3041 H   0  0  0  0  0  0  0  0  0  0  0  0
    5.1949   -2.1387   -3.8443 H   0  0  0  0  0  0  0  0  0  0  0  0
    4.5953   -0.8128   -4.8182 H   0  0  0  0  0  0  0  0  0  0  0  0
    2.4540   -0.3103   -3.4040 N   0  0  0  0  0  0  0  0  0  0  0  0
    1.1494   -0.2128   -2.8039 C   0  0  2  0  0  0  0  0  0  0  0  0
    1.3350    0.0367   -1.3130 C   0  0  0  0  0  0  0  0  0  0  0  0
    2.3625   -0.2586   -0.7063 O   0  0  0  0  0  0  0  0  0  0  0  0
    0.3331   -1.4728   -3.0467 C   0  0  0  0  0  0  0  0  0  0  0  0
    2.6924    0.3404   -4.1502 H   0  0  0  0  0  0  0  0  0  0  0  0
    0.6550    0.6514   -3.2607 H   0  0  0  0  0  0  0  0  0  0  0  0
    0.8129   -2.3494   -2.5963 H   0  0  0  0  0  0  0  0  0  0  0  0
   -0.6690   -1.3857   -2.6142 H   0  0  0  0  0  0  0  0  0  0  0  0
    0.2259   -1.6670   -4.1194 H   0  0  0  0  0  0  0  0  0  0  0  0
    0.2019    0.5893   -0.7269 N   0  0  0  0  0  0  0  0  0  0  0  0
    0.1242    0.9059    0.6756 C   0  0  2  0  0  0  0  0  0  0  0  0
    0.3392   -0.3953    1.4423 C   0  0  0  0  0  0  0  0  0  0  0  0
    0.5771   -1.4668    0.8887 O   0  0  0  0  0  0  0  0  0  0  0  0
   -1.2249    1.5291    1.0562 C   0  0  0  0  0  0  0  0  0  0  0  0
   -1.4941    2.9163    0.4383 C   0  0  0  0  0  0  0  0  0  0  0  0
   -2.9216    3.3606    0.7693 C   0  0  0  0  0  0  0  0  0  0  0  0
   -1.2890    2.9290   -1.0771 C   0  0  0  0  0  0  0  0  0  0  0  0
   -0.5975    0.8179   -1.3140 H   0  0  0  0  0  0  0  0  0  0  0  0
    0.9536    1.5854    0.8962 H   0  0  0  0  0  0  0  0  0  0  0  0
   -1.2795    1.6151    2.1505 H   0  0  0  0  0  0  0  0  0  0  0  0
   -2.0352    0.8455    0.7698 H   0  0  0  0  0  0  0  0  0  0  0  0
   -0.8090    3.6478    0.8840 H   0  0  0  0  0  0  0  0  0  0  0  0
   -3.6538    2.6639    0.3474 H   0  0  0  0  0  0  0  0  0  0  0  0
   -3.1273    4.3519    0.3517 H   0  0  0  0  0  0  0  0  0  0  0  0
   -3.0831    3.4079    1.8516 H   0  0  0  0  0  0  0  0  0  0  0  0
   -1.9524    2.2126   -1.5735 H   0  0  0  0  0  0  0  0  0  0  0  0
   -1.4971    3.9227   -1.4886 H   0  0  0  0  0  0  0  0  0  0  0  0
   -0.2572    2.6803   -1.3422 H   0  0  0  0  0  0  0  0  0  0  0  0
    0.2840   -0.2052    2.8161 N   0  0  0  0  0  0  0  0  0  0  0  0
    0.4810   -1.2709    3.7722 C   0  0  2  0  0  0  0  0  0  0  0  0
    1.5998   -2.1656    3.2552 C   0  0  0  0  0  0  0  0  0  0  0  0
    1.9189   -2.2233    2.0695 O   0  0  0  0  0  0  0  0  0  0  0  0
   -0.7972   -2.0669    3.9848 C   0  0  0  0  0  0  0  0  0  0  0  0
    0.1069    0.7255    3.1823 H   0  0  0  0  0  0  0  0  0  0  0  0
    0.7933   -0.8000    4.7107 H   0  0  0  0  0  0  0  0  0  0  0  0
   -1.1256   -2.5461    3.0553 H   0  0  0  0  0  0  0  0  0  0  0  0
   -0.6539   -2.8558    4.7306 H   0  0  0  0  0  0  0  0  0  0  0  0
   -1.6089   -1.4164    4.3281 H   0  0  0  0  0  0  0  0  0  0  0  0
    2.1713   -2.9241    4.2673 N   0  0  0  0  0  0  0  0  0  0  0  0
    3.2450   -3.8602    4.0286 C   0  0  0  0  0  0  0  0  0  0  0  0
    1.8568   -2.7977    5.2248 H   0  0  0  0  0  0  0  0  0  0  0  0
    2.8258   -4.8598    3.8411 H   0  0  0  0  0  0  0  0  0  0  0  0
    3.8258   -3.5362    3.1525 H   0  0  0  0  0  0  0  0  0  0  0  0
    3.9015   -3.8976    4.9104 H   0  0  0  0  0  0  0  0  0  0  0  0
  1  3  1  0  0  0  0
  1  7  1  0  0  0  0
  1  2  2  0  0  0  0
 37 38  1  0  0  0  0
 38 46  1  0  0  0  0
 38 39  2  0  0  0  0
  8  9  1  0  0  0  0
  9 17  1  0  0  0  0
  9 10  2  0  0  0  0
 18 19  1  0  0  0  0
 19 36  1  0  0  0  0
 19 20  2  0  0  0  0
 37 40  1  0  0  0  0
  8 11  1  0  0  0  0
 22 23  1  0  0  0  0
 22 24  1  0  0  0  0
 46 47  1  0  0  0  0
 18 21  1  0  0  0  0
 21 22  1  0  0  0  0
 36 37  1  0  0  0  0
  7  8  1  0  0  0  0
 17 18  1  0  0  0  0
  3  4  1  0  0  0  0
  3  5  1  0  0  0  0
  3  6  1  0  0  0  0
 40 43  1  0  0  0  0
 40 44  1  0  0  0  0
 40 45  1  0  0  0  0
 11 14  1  0  0  0  0
 11 15  1  0  0  0  0
 11 16  1  0  0  0  0
 23 30  1  0  0  0  0
 23 31  1  0  0  0  0
 23 32  1  0  0  0  0
 24 33  1  0  0  0  0
 24 34  1  0  0  0  0
 24 35  1  0  0  0  0
 47 49  1  0  0  0  0
 47 50  1  0  0  0  0
 47 51  1  0  0  0  0
 21 27  1  0  0  0  0
 21 28  1  0  0  0  0
 37 42  1  0  0  0  0
  8 13  1  0  0  0  0
 18 26  1  0  0  0  0
 22 29  1  0  0  0  0
 46 48  1  0  0  0  0
  7 12  1  0  0  0  0
 36 41  1  0  0  0  0
 17 25  1  0  0  0  0
M  END
$$$$

  -OEChem-05262214473D

 51 50  0     1  0  0  0  0  0999 V2000
    3.4018   -1.2440   -3.0186 C   0  0  0  0  0  0  0  0  0  0  0  0
    3.2697   -2.0909   -2.1427 O   0  0  0  0  0  0  0  0  0  0  0  0
    4.6845   -1.1645   -3.7779 C   0  0  0  0  0  0  0  0  0  0  0  0
    5.4123   -0.4862   -3.3041 H   0  0  0  0  0  0  0  0  0  0  0  0
    5.1949   -2.1387   -3.8443 H   0  0  0  0  0  0  0  0  0  0  0  0
    4.5953   -0.8128   -4.8182 H   0  0  0  0  0  0  0  0  0  0  0  0
    2.4540   -0.3103   -3.4040 N   0  0  0  0  0  0  0  0  0  0  0  0
    1.1494   -0.2128   -2.8039 C   0  0  2  0  0  0  0  0  0  0  0  0
    1.3350    0.0367   -1.3130 C   0  0  0  0  0  0  0  0  0  0  0  0
    2.3625   -0.2586   -0.7063 O   0  0  0  0  0  0  0  0  0  0  0  0
    0.3331   -1.4728   -3.0467 C   0  0  0  0  0  0  0  0  0  0  0  0
    2.6924    0.3404   -4.1502 H   0  0  0  0  0  0  0  0  0  0  0  0
    0.6550    0.6514   -3.2607 H   0  0  0  0  0  0  0  0  0  0  0  0
    0.8129   -2.3494   -2.5963 H   0  0  0  0  0  0  0  0  0  0  0  0
   -0.6690   -1.3857   -2.6142 H   0  0  0  0  0  0  0  0  0  0  0  0
    0.2259   -1.6670   -4.1194 H   0  0  0  0  0  0  0  0  0  0  0  0
    0.2019    0.5893   -0.7269 N   0  0  0  0  0  0  0  0  0  0  0  0
    0.1242    0.9059    0.6756 C   0  0  2  0  0  0  0  0  0  0  0  0
    0.3392   -0.3953    1.4423 C   0  0  0  0  0  0  0  0  0  0  0  0
    0.8338   -1.3986    0.9324 O   0  0  0  0  0  0  0  0  0  0  0  0
   -1.2249    1.5291    1.0562 C   0  0  0  0  0  0  0  0  0  0  0  0
   -1.4941    2.9163    0.4383 C   0  0  0  0  0  0  0  0  0  0  0  0
   -2.9216    3.3606    0.7693 C   0  0  0  0  0  0  0  0  0  0  0  0
   -1.2890    2.9290   -1.0771 C   0  0  0  0  0  0  0  0  0  0  0  0
   -0.5975    0.8179   -1.3140 H   0  0  0  0  0  0  0  0  0  0  0  0
    0.9536    1.5854    0.8962 H   0  0  0  0  0  0  0  0  0  0  0  0
   -1.2795    1.6151    2.1505 H   0  0  0  0  0  0  0  0  0  0  0  0
   -2.0352    0.8455    0.7698 H   0  0  0  0  0  0  0  0  0  0  0  0
   -0.8090    3.6478    0.8840 H   0  0  0  0  0  0  0  0  0  0  0  0
   -3.6538    2.6639    0.3474 H   0  0  0  0  0  0  0  0  0  0  0  0
   -3.1273    4.3519    0.3517 H   0  0  0  0  0  0  0  0  0  0  0  0
   -3.0831    3.4079    1.8516 H   0  0  0  0  0  0  0  0  0  0  0  0
   -1.9524    2.2126   -1.5735 H   0  0  0  0  0  0  0  0  0  0  0  0
   -1.4971    3.9227   -1.4886 H   0  0  0  0  0  0  0  0  0  0  0  0
   -0.2572    2.6803   -1.3422 H   0  0  0  0  0  0  0  0  0  0  0  0
   -0.0397   -0.2841    2.7729 N   0  0  0  0  0  0  0  0  0  0  0  0
    0.0850   -1.3639    3.7254 C   0  0  2  0  0  0  0  0  0  0  0  0
    1.3994   -2.0830    3.4517 C   0  0  0  0  0  0  0  0  0  0  0  0
    1.9745   -2.0394    2.3661 O   0  0  0  0  0  0  0  0  0  0  0  0
   -1.0901   -2.3244    3.6299 C   0  0  0  0  0  0  0  0  0  0  0  0
   -0.4156    0.5969    3.1106 H   0  0  0  0  0  0  0  0  0  0  0  0
    0.1188   -0.9060    4.7200 H   0  0  0  0  0  0  0  0  0  0  0  0
   -1.1403   -2.7930    2.6403 H   0  0  0  0  0  0  0  0  0  0  0  0
   -1.0086   -3.1261    4.3714 H   0  0  0  0  0  0  0  0  0  0  0  0
   -2.0369   -1.7998    3.7976 H   0  0  0  0  0  0  0  0  0  0  0  0
    1.8326   -2.8142    4.5489 N   0  0  0  0  0  0  0  0  0  0  0  0
    3.0481   -3.5941    4.5355 C   0  0  0  0  0  0  0  0  0  0  0  0
    1.3026   -2.7774    5.4147 H   0  0  0  0  0  0  0  0  0  0  0  0
    2.8180   -4.6276    4.2374 H   0  0  0  0  0  0  0  0  0  0  0  0
    3.7574   -3.1551    3.8184 H   0  0  0  0  0  0  0  0  0  0  0  0
    3.4952   -3.5934    5.5405 H   0  0  0  0  0  0  0  0  0  0  0  0
  1  3  1  0  0  0  0
  1  7  1  0  0  0  0
  1  2  2  0  0  0  0
 37 38  1  0  0  0  0
 38 46  1  0  0  0  0
 38 39  2  0  0  0  0
  8  9  1  0  0  0  0
  9 17  1  0  0  0  0
  9 10  2  0  0  0  0
 18 19  1  0  0  0  0
 19 36  1  0  0  0  0
 19 20  2  0  0  0  0
 37 40  1  0  0  0  0
  8 11  1  0  0  0  0
 22 23  1  0  0  0  0
 22 24  1  0  0  0  0
 46 47  1  0  0  0  0
 18 21  1  0  0  0  0
 21 22  1  0  0  0  0
 36 37  1  0  0  0  0
  7  8  1  0  0  0  0
 17 18  1  0  0  0  0
  3  4  1  0  0  0  0
  3  5  1  0  0  0  0
  3  6  1  0  0  0  0
 40 43  1  0  0  0  0
 40 44  1  0  0  0  0
 40 45  1  0  0  0  0
 11 14  1  0  0  0  0
 11 15  1  0  0  0  0
 11 16  1  0  0  0  0
 23 30  1  0  0  0  0
 23 31  1  0  0  0  0
 23 32  1  0  0  0  0
 24 33  1  0  0  0  0
 24 34  1  0  0  0  0
 24 35  1  0  0  0  0
 47 49  1  0  0  0  0
 47 50  1  0  0  0  0
 47 51  1  0  0  0  0
 21 27  1  0  0  0  0
 21 28  1  0  0  0  0
 37 42  1  0  0  0  0
  8 13  1  0  0  0  0
 18 26  1  0  0  0  0
 22 29  1  0  0  0  0
 46 48  1  0  0  0  0
  7 12  1  0  0  0  0
 36 41  1  0  0  0  0
 17 25  1  0  0  0  0
M  END
$$$$

  -OEChem-05262214473D

 51 50  0     1  0  0  0  0  0999 V2000
    3.4018   -1.2440   -3.0186 C   0  0  0  0  0  0  0  0  0  0  0  0
    3.2697   -2.0909   -2.1427 O   0  0  0  0  0  0  0  0  0  0  0  0
    4.6845   -1.1645   -3.7779 C   0  0  0  0  0  0  0  0  0  0  0  0
    5.4123   -0.4862   -3.3041 H   0  0  0  0  0  0  0  0  0  0  0  0
    5.1949   -2.1387   -3.8443 H   0  0  0  0  0  0  0  0  0  0  0  0
    4.5953   -0.8128   -4.8182 H   0  0  0  0  0  0  0  0  0  0  0  0
    2.4540   -0.3103   -3.4040 N   0  0  0  0  0  0  0  0  0  0  0  0
    1.1494   -0.2128   -2.8039 C   0  0  2  0  0  0  0  0  0  0  0  0
    1.3350    0.0367   -1.3130 C   0  0  0  0  0  0  0  0  0  0  0  0
    2.3625   -0.2586   -0.7063 O   0  0  0  0  0  0  0  0  0  0  0  0
    0.3331   -1.4728   -3.0467 C   0  0  0  0  0  0  0  0  0  0  0  0
    2.6924    0.3404   -4.1502 H   0  0  0  0  0  0  0  0  0  0  0  0
    0.6550    0.6514   -3.2607 H   0  0  0  0  0  0  0  0  0  0  0  0
    0.8129   -2.3494   -2.5963 H   0  0  0  0  0  0  0  0  0  0  0  0
   -0.6690   -1.3857   -2.6142 H   0  0  0  0  0  0  0  0  0  0  0  0
    0.2259   -1.6670   -4.1194 H   0  0  0  0  0  0  0  0  0  0  0  0
    0.2019    0.5893   -0.7269 N   0  0  0  0  0  0  0  0  0  0  0  0
    0.1242    0.9059    0.6756 C   0  0  2  0  0  0  0  0  0  0  0  0
    0.3392   -0.3953    1.4423 C   0  0  0  0  0  0  0  0  0  0  0  0
    1.0632   -1.3009    1.0339 O   0  0  0  0  0  0  0  0  0  0  0  0
   -1.2249    1.5291    1.0562 C   0  0  0  0  0  0  0  0  0  0  0  0
   -1.4941    2.9163    0.4383 C   0  0  0  0  0  0  0  0  0  0  0  0
   -2.9216    3.3606    0.7693 C   0  0  0  0  0  0  0  0  0  0  0  0
   -1.2890    2.9290   -1.0771 C   0  0  0  0  0  0  0  0  0  0  0  0
   -0.5975    0.8179   -1.3140 H   0  0  0  0  0  0  0  0  0  0  0  0
    0.9536    1.5854    0.8962 H   0  0  0  0  0  0  0  0  0  0  0  0
   -1.2795    1.6151    2.1505 H   0  0  0  0  0  0  0  0  0  0  0  0
   -2.0352    0.8455    0.7698 H   0  0  0  0  0  0  0  0  0  0  0  0
   -0.8090    3.6478    0.8840 H   0  0  0  0  0  0  0  0  0  0  0  0
   -3.6538    2.6639    0.3474 H   0  0  0  0  0  0  0  0  0  0  0  0
   -3.1273    4.3519    0.3517 H   0  0  0  0  0  0  0  0  0  0  0  0
   -3.0831    3.4079    1.8516 H   0  0  0  0  0  0  0  0  0  0  0  0
   -1.9524    2.2126   -1.5735 H   0  0  0  0  0  0  0  0  0  0  0  0
   -1.4971    3.9227   -1.4886 H   0  0  0  0  0  0  0  0  0  0  0  0
   -0.2572    2.6803   -1.3422 H   0  0  0  0  0  0  0  0  0  0  0  0
   -0.3325   -0.4009    2.6569 N   0  0  0  0  0  0  0  0  0  0  0  0
   -0.2750   -1.5036    3.5893 C   0  0  2  0  0  0  0  0  0  0  0  0
    1.1517   -2.0364    3.6003 C   0  0  0  0  0  0  0  0  0  0  0  0
    1.9387   -1.8653    2.6716 O   0  0  0  0  0  0  0  0  0  0  0  0
   -1.2612   -2.5983    3.2130 C   0  0  0  0  0  0  0  0  0  0  0  0
   -0.8878    0.4074    2.9214 H   0  0  0  0  0  0  0  0  0  0  0  0
   -0.5210   -1.0965    4.5762 H   0  0  0  0  0  0  0  0  0  0  0  0
   -1.0307   -3.0183    2.2272 H   0  0  0  0  0  0  0  0  0  0  0  0
   -1.2368   -3.4201    3.9363 H   0  0  0  0  0  0  0  0  0  0  0  0
   -2.2834   -2.2064    3.1766 H   0  0  0  0  0  0  0  0  0  0  0  0
    1.4289   -2.7622    4.7502 N   0  0  0  0  0  0  0  0  0  0  0  0
    2.7115   -3.3811    4.9913 C   0  0  0  0  0  0  0  0  0  0  0  0
    0.7227   -2.8369    5.4764 H   0  0  0  0  0  0  0  0  0  0  0  0
    2.6927   -4.4188    4.6268 H   0  0  0  0  0  0  0  0  0  0  0  0
    3.4947   -2.8202    4.4604 H   0  0  0  0  0  0  0  0  0  0  0  0
    2.9241   -3.3755    6.0706 H   0  0  0  0  0  0  0  0  0  0  0  0
  1  3  1  0  0  0  0
  1  7  1  0  0  0  0
  1  2  2  0  0  0  0
 37 38  1  0  0  0  0
 38 46  1  0  0  0  0
 38 39  2  0  0  0  0
  8  9  1  0  0  0  0
  9 17  1  0  0  0  0
  9 10  2  0  0  0  0
 18 19  1  0  0  0  0
 19 36  1  0  0  0  0
 19 20  2  0  0  0  0
 37 40  1  0  0  0  0
  8 11  1  0  0  0  0
 22 23  1  0  0  0  0
 22 24  1  0  0  0  0
 46 47  1  0  0  0  0
 18 21  1  0  0  0  0
 21 22  1  0  0  0  0
 36 37  1  0  0  0  0
  7  8  1  0  0  0  0
 17 18  1  0  0  0  0
  3  4  1  0  0  0  0
  3  5  1  0  0  0  0
  3  6  1  0  0  0  0
 40 43  1  0  0  0  0
 40 44  1  0  0  0  0
 40 45  1  0  0  0  0
 11 14  1  0  0  0  0
 11 15  1  0  0  0  0
 11 16  1  0  0  0  0
 23 30  1  0  0  0  0
 23 31  1  0  0  0  0
 23 32  1  0  0  0  0
 24 33  1  0  0  0  0
 24 34  1  0  0  0  0
 24 35  1  0  0  0  0
 47 49  1  0  0  0  0
 47 50  1  0  0  0  0
 47 51  1  0  0  0  0
 21 27  1  0  0  0  0
 21 28  1  0  0  0  0
 37 42  1  0  0  0  0
  8 13  1  0  0  0  0
 18 26  1  0  0  0  0
 22 29  1  0  0  0  0
 46 48  1  0  0  0  0
  7 12  1  0  0  0  0
 36 41  1  0  0  0  0
 17 25  1  0  0  0  0
M  END
$$$$

  -OEChem-05262214473D

 51 50  0     1  0  0  0  0  0999 V2000
    3.4018   -1.2440   -3.0186 C   0  0  0  0  0  0  0  0  0  0  0  0
    3.2697   -2.0909   -2.1427 O   0  0  0  0  0  0  0  0  0  0  0  0
    4.6845   -1.1645   -3.7779 C   0  0  0  0  0  0  0  0  0  0  0  0
    5.4123   -0.4862   -3.3041 H   0  0  0  0  0  0  0  0  0  0  0  0
    5.1949   -2.1387   -3.8443 H   0  0  0  0  0  0  0  0  0  0  0  0
    4.5953   -0.8128   -4.8182 H   0  0  0  0  0  0  0  0  0  0  0  0
    2.4540   -0.3103   -3.4040 N   0  0  0  0  0  0  0  0  0  0  0  0
    1.1494   -0.2128   -2.8039 C   0  0  2  0  0  0  0  0  0  0  0  0
    1.3350    0.0367   -1.3130 C   0  0  0  0  0  0  0  0  0  0  0  0
    2.3625   -0.2586   -0.7063 O   0  0  0  0  0  0  0  0  0  0  0  0
    0.3331   -1.4728   -3.0467 C   0  0  0  0  0  0  0  0  0  0  0  0
    2.6924    0.3404   -4.1502 H   0  0  0  0  0  0  0  0  0  0  0  0
    0.6550    0.6514   -3.2607 H   0  0  0  0  0  0  0  0  0  0  0  0
    0.8129   -2.3494   -2.5963 H   0  0  0  0  0  0  0  0  0  0  0  0
   -0.6690   -1.3857   -2.6142 H   0  0  0  0  0  0  0  0  0  0  0  0
    0.2259   -1.6670   -4.1194 H   0  0  0  0  0  0  0  0  0  0  0  0
    0.2019    0.5893   -0.7269 N   0  0  0  0  0  0  0  0  0  0  0  0
    0.1242    0.9059    0.6756 C   0  0  2  0  0  0  0  0  0  0  0  0
    0.3392   -0.3953    1.4423 C   0  0  0  0  0  0  0  0  0  0  0  0
    1.2497   -1.1804    1.1860 O   0  0  0  0  0  0  0  0  0  0  0  0
   -1.2249    1.5291    1.0562 C   0  0  0  0  0  0  0  0  0  0  0  0
   -1.4941    2.9163    0.4383 C   0  0  0  0  0  0  0  0  0  0  0  0
   -2.9216    3.3606    0.7693 C   0  0  0  0  0  0  0  0  0  0  0  0
   -1.2890    2.9290   -1.0771 C   0  0  0  0  0  0  0  0  0  0  0  0
   -0.5975    0.8179   -1.3140 H   0  0  0  0  0  0  0  0  0  0  0  0
    0.9536    1.5854    0.8962 H   0  0  0  0  0  0  0  0  0  0  0  0
   -1.2795    1.6151    2.1505 H   0  0  0  0  0  0  0  0  0  0  0  0
   -2.0352    0.8455    0.7698 H   0  0  0  0  0  0  0  0  0  0  0  0
   -0.8090    3.6478    0.8840 H   0  0  0  0  0  0  0  0  0  0  0  0
   -3.6538    2.6639    0.3474 H   0  0  0  0  0  0  0  0  0  0  0  0
   -3.1273    4.3519    0.3517 H   0  0  0  0  0  0  0  0  0  0  0  0
   -3.0831    3.4079    1.8516 H   0  0  0  0  0  0  0  0  0  0  0  0
   -1.9524    2.2126   -1.5735 H   0  0  0  0  0  0  0  0  0  0  0  0
   -1.4971    3.9227   -1.4886 H   0  0  0  0  0  0  0  0  0  0  0  0
   -0.2572    2.6803   -1.3422 H   0  0  0  0  0  0  0  0  0  0  0  0
   -0.5745   -0.5475    2.4760 N   0  0  0  0  0  0  0  0  0  0  0  0
   -0.5746   -1.6803    3.3734 C   0  0  2  0  0  0  0  0  0  0  0  0
    0.8736   -2.0290    3.6908 C   0  0  0  0  0  0  0  0  0  0  0  0
    1.8141   -1.7129    2.9652 O   0  0  0  0  0  0  0  0  0  0  0  0
   -1.2988   -2.8700    2.7626 C   0  0  0  0  0  0  0  0  0  0  0  0
   -1.2775    0.1698    2.6274 H   0  0  0  0  0  0  0  0  0  0  0  0
   -1.0825   -1.3584    4.2890 H   0  0  0  0  0  0  0  0  0  0  0  0
   -0.8044   -3.2067    1.8441 H   0  0  0  0  0  0  0  0  0  0  0  0
   -1.3228   -3.7180    3.4549 H   0  0  0  0  0  0  0  0  0  0  0  0
   -2.3315   -2.6086    2.5075 H   0  0  0  0  0  0  0  0  0  0  0  0
    0.9878   -2.7719    4.8574 N   0  0  0  0  0  0  0  0  0  0  0  0
    2.2579   -3.2358    5.3651 C   0  0  0  0  0  0  0  0  0  0  0  0
    0.1566   -2.9720    5.4059 H   0  0  0  0  0  0  0  0  0  0  0  0
    2.4587   -4.2476    4.9830 H   0  0  0  0  0  0  0  0  0  0  0  0
    3.0557   -2.5543    5.0347 H   0  0  0  0  0  0  0  0  0  0  0  0
    2.2270   -3.2586    6.4644 H   0  0  0  0  0  0  0  0  0  0  0  0
  1  3  1  0  0  0  0
  1  7  1  0  0  0  0
  1  2  2  0  0  0  0
 37 38  1  0  0  0  0
 38 46  1  0  0  0  0
 38 39  2  0  0  0  0
  8  9  1  0  0  0  0
  9 17  1  0  0  0  0
  9 10  2  0  0  0  0
 18 19  1  0  0  0  0
 19 36  1  0  0  0  0
 19 20  2  0  0  0  0
 37 40  1  0  0  0  0
  8 11  1  0  0  0  0
 22 23  1  0  0  0  0
 22 24  1  0  0  0  0
 46 47  1  0  0  0  0
 18 21  1  0  0  0  0
 21 22  1  0  0  0  0
 36 37  1  0  0  0  0
  7  8  1  0  0  0  0
 17 18  1  0  0  0  0
  3  4  1  0  0  0  0
  3  5  1  0  0  0  0
  3  6  1  0  0  0  0
 40 43  1  0  0  0  0
 40 44  1  0  0  0  0
 40 45  1  0  0  0  0
 11 14  1  0  0  0  0
 11 15  1  0  0  0  0
 11 16  1  0  0  0  0
 23 30  1  0  0  0  0
 23 31  1  0  0  0  0
 23 32  1  0  0  0  0
 24 33  1  0  0  0  0
 24 34  1  0  0  0  0
 24 35  1  0  0  0  0
 47 49  1  0  0  0  0
 47 50  1  0  0  0  0
 47 51  1  0  0  0  0
 21 27  1  0  0  0  0
 21 28  1  0  0  0  0
 37 42  1  0  0  0  0
  8 13  1  0  0  0  0
 18 26  1  0  0  0  0
 22 29  1  0  0  0  0
 46 48  1  0  0  0  0
  7 12  1  0  0  0  0
 36 41  1  0  0  0  0
 17 25  1  0  0  0  0
M  END
$$$$

  -OEChem-05262214473D

 51 50  0     1  0  0  0  0  0999 V2000
    3.4018   -1.2440   -3.0186 C   0  0  0  0  0  0  0  0  0  0  0  0
    3.2697   -2.0909   -2.1427 O   0  0  0  0  0  0  0  0  0  0  0  0
    4.6845   -1.1645   -3.7779 C   0  0  0  0  0  0  0  0  0  0  0  0
    5.4123   -0.4862   -3.3041 H   0  0  0  0  0  0  0  0  0  0  0  0
    5.1949   -2.1387   -3.8443 H   0  0  0  0  0  0  0  0  0  0  0  0
    4.5953   -0.8128   -4.8182 H   0  0  0  0  0  0  0  0  0  0  0  0
    2.4540   -0.3103   -3.4040 N   0  0  0  0  0  0  0  0  0  0  0  0
    1.1494   -0.2128   -2.8039 C   0  0  2  0  0  0  0  0  0  0  0  0
    1.3350    0.0367   -1.3130 C   0  0  0  0  0  0  0  0  0  0  0  0
    2.3625   -0.2586   -0.7063 O   0  0  0  0  0  0  0  0  0  0  0  0
    0.3331   -1.4728   -3.0467 C   0  0  0  0  0  0  0  0  0  0  0  0
    2.6924    0.3404   -4.1502 H   0  0  0  0  0  0  0  0  0  0  0  0
    0.6550    0.6514   -3.2607 H   0  0  0  0  0  0  0  0  0  0  0  0
    0.8129   -2.3494   -2.5963 H   0  0  0  0  0  0  0  0  0  0  0  0
   -0.6690   -1.3857   -2.6142 H   0  0  0  0  0  0  0  0  0  0  0  0
    0.2259   -1.6670   -4.1194 H   0  0  0  0  0  0  0  0  0  0  0  0
    0.2019    0.5893   -0.7269 N   0  0  0  0  0  0  0  0  0  0  0  0
    0.1242    0.9059    0.6756 C   0  0  2  0  0  0  0  0  0  0  0  0
    0.3392   -0.3953    1.4423 C   0  0  0  0  0  0  0  0  0  0  0  0
    1.3806   -1.0453    1.3786 O   0  0  0  0  0  0  0  0  0  0  0  0
   -1.2249    1.5291    1.0562 C   0  0  0  0  0  0  0  0  0  0  0  0
   -1.4941    2.9163    0.4383 C   0  0  0  0  0  0  0  0  0  0  0  0
   -2.9216    3.3606    0.7693 C   0  0  0  0  0  0  0  0  0  0  0  0
   -1.2890    2.9290   -1.0771 C   0  0  0  0  0  0  0  0  0  0  0  0
   -0.5975    0.8179   -1.3140 H   0  0  0  0  0  0  0  0  0  0  0  0
    0.9536    1.5854    0.8962 H   0  0  0  0  0  0  0  0  0  0  0  0
   -1.2795    1.6151    2.1505 H   0  0  0  0  0  0  0  0  0  0  0  0
   -2.0352    0.8455    0.7698 H   0  0  0  0  0  0  0  0  0  0  0  0
   -0.8090    3.6478    0.8840 H   0  0  0  0  0  0  0  0  0  0  0  0
   -3.6538    2.6639    0.3474 H   0  0  0  0  0  0  0  0  0  0  0  0
   -3.1273    4.3519    0.3517 H   0  0  0  0  0  0  0  0  0  0  0  0
   -3.0831    3.4079    1.8516 H   0  0  0  0  0  0  0  0  0  0  0  0
   -1.9524    2.2126   -1.5735 H   0  0  0  0  0  0  0  0  0  0  0  0
   -1.4971    3.9227   -1.4886 H   0  0  0  0  0  0  0  0  0  0  0  0
   -0.2572    2.6803   -1.3422 H   0  0  0  0  0  0  0  0  0  0  0  0
   -0.7493   -0.7140    2.2424 N   0  0  0  0  0  0  0  0  0  0  0  0
   -0.7933   -1.8822    3.0922 C   0  0  2  0  0  0  0  0  0  0  0  0
    0.5840   -2.0614    3.7170 C   0  0  0  0  0  0  0  0  0  0  0  0
    1.6091   -1.5926    3.2267 O   0  0  0  0  0  0  0  0  0  0  0  0
   -1.2003   -3.1208    2.3093 C   0  0  0  0  0  0  0  0  0  0  0  0
   -1.5581   -0.0997    2.2488 H   0  0  0  0  0  0  0  0  0  0  0  0
   -1.5274   -1.6740    3.8782 H   0  0  0  0  0  0  0  0  0  0  0  0
   -0.4767   -3.3452    1.5172 H   0  0  0  0  0  0  0  0  0  0  0  0
   -1.2609   -3.9993    2.9601 H   0  0  0  0  0  0  0  0  0  0  0  0
   -2.1779   -2.9789    1.8360 H   0  0  0  0  0  0  0  0  0  0  0  0
    0.5394   -2.8426    4.8633 N   0  0  0  0  0  0  0  0  0  0  0  0
    1.7184   -3.1681    5.6313 C   0  0  0  0  0  0  0  0  0  0  0  0
   -0.3570   -3.1735    5.2079 H   0  0  0  0  0  0  0  0  0  0  0  0
    2.1317   -4.1257    5.2816 H   0  0  0  0  0  0  0  0  0  0  0  0
    2.4702   -2.3755    5.5023 H   0  0  0  0  0  0  0  0  0  0  0  0
    1.4516   -3.2507    6.6952 H   0  0  0  0  0  0  0  0  0  0  0  0
  1  3  1  0  0  0  0
  1  7  1  0  0  0  0
  1  2  2  0  0  0  0
 37 38  1  0  0  0  0
 38 46  1  0  0  0  0
 38 39  2  0  0  0  0
  8  9  1  0  0  0  0
  9 17  1  0  0  0  0
  9 10  2  0  0  0  0
 18 19  1  0  0  0  0
 19 36  1  0  0  0  0
 19 20  2  0  0  0  0
 37 40  1  0  0  0  0
  8 11  1  0  0  0  0
 22 23  1  0  0  0  0
 22 24  1  0  0  0  0
 46 47  1  0  0  0  0
 18 21  1  0  0  0  0
 21 22  1  0  0  0  0
 36 37  1  0  0  0  0
  7  8  1  0  0  0  0
 17 18  1  0  0  0  0
  3  4  1  0  0  0  0
  3  5  1  0  0  0  0
  3  6  1  0  0  0  0
 40 43  1  0  0  0  0
 40 44  1  0  0  0  0
 40 45  1  0  0  0  0
 11 14  1  0  0  0  0
 11 15  1  0  0  0  0
 11 16  1  0  0  0  0
 23 30  1  0  0  0  0
 23 31  1  0  0  0  0
 23 32  1  0  0  0  0
 24 33  1  0  0  0  0
 24 34  1  0  0  0  0
 24 35  1  0  0  0  0
 47 49  1  0  0  0  0
 47 50  1  0  0  0  0
 47 51  1  0  0  0  0
 21 27  1  0  0  0  0
 21 28  1  0  0  0  0
 37 42  1  0  0  0  0
  8 13  1  0  0  0  0
 18 26  1  0  0  0  0
 22 29  1  0  0  0  0
 46 48  1  0  0  0  0
  7 12  1  0  0  0  0
 36 41  1  0  0  0  0
 17 25  1  0  0  0  0
M  END
$$$$

  -OEChem-05262214473D

 51 50  0     1  0  0  0  0  0999 V2000
    3.4018   -1.2440   -3.0186 C   0  0  0  0  0  0  0  0  0  0  0  0
    3.2697   -2.0909   -2.1427 O   0  0  0  0  0  0  0  0  0  0  0  0
    4.6845   -1.1645   -3.7779 C   0  0  0  0  0  0  0  0  0  0  0  0
    5.4123   -0.4862   -3.3041 H   0  0  0  0  0  0  0  0  0  0  0  0
    5.1949   -2.1387   -3.8443 H   0  0  0  0  0  0  0  0  0  0  0  0
    4.5953   -0.8128   -4.8182 H   0  0  0  0  0  0  0  0  0  0  0  0
    2.4540   -0.3103   -3.4040 N   0  0  0  0  0  0  0  0  0  0  0  0
    1.1494   -0.2128   -2.8039 C   0  0  2  0  0  0  0  0  0  0  0  0
    1.3350    0.0367   -1.3130 C   0  0  0  0  0  0  0  0  0  0  0  0
    2.3625   -0.2586   -0.7063 O   0  0  0  0  0  0  0  0  0  0  0  0
    0.3331   -1.4728   -3.0467 C   0  0  0  0  0  0  0  0  0  0  0  0
    2.6924    0.3404   -4.1502 H   0  0  0  0  0  0  0  0  0  0  0  0
    0.6550    0.6514   -3.2607 H   0  0  0  0  0  0  0  0  0  0  0  0
    0.8129   -2.3494   -2.5963 H   0  0  0  0  0  0  0  0  0  0  0  0
   -0.6690   -1.3857   -2.6142 H   0  0  0  0  0  0  0  0  0  0  0  0
    0.2259   -1.6670   -4.1194 H   0  0  0  0  0  0  0  0  0  0  0  0
    0.2019    0.5893   -0.7269 N   0  0  0  0  0  0  0  0  0  0  0  0
    0.1242    0.9059    0.6756 C   0  0  2  0  0  0  0  0  0  0  0  0
    0.3392   -0.3953    1.4423 C   0  0  0  0  0  0  0  0  0  0  0  0
    1.4469   -0.9048    1.5984 O   0  0  0  0  0  0  0  0  0  0  0  0
   -1.2249    1.5291    1.0562 C   0  0  0  0  0  0  0  0  0  0  0  0
   -1.4941    2.9163    0.4383 C   0  0  0  0  0  0  0  0  0  0  0  0
   -2.9216    3.3606    0.7693 C   0  0  0  0  0  0  0  0  0  0  0  0
   -1.2890    2.9290   -1.0771 C   0  0  0  0  0  0  0  0  0  0  0  0
   -0.5975    0.8179   -1.3140 H   0  0  0  0  0  0  0  0  0  0  0  0
    0.9536    1.5854    0.8962 H   0  0  0  0  0  0  0  0  0  0  0  0
   -1.2795    1.6151    2.1505 H   0  0  0  0  0  0  0  0  0  0  0  0
   -2.0352    0.8455    0.7698 H   0  0  0  0  0  0  0  0  0  0  0  0
   -0.8090    3.6478    0.8840 H   0  0  0  0  0  0  0  0  0  0  0  0
   -3.6538    2.6639    0.3474 H   0  0  0  0  0  0  0  0  0  0  0  0
   -3.1273    4.3519    0.3517 H   0  0  0  0  0  0  0  0  0  0  0  0
   -3.0831    3.4079    1.8516 H   0  0  0  0  0  0  0  0  0  0  0  0
   -1.9524    2.2126   -1.5735 H   0  0  0  0  0  0  0  0  0  0  0  0
   -1.4971    3.9227   -1.4886 H   0  0  0  0  0  0  0  0  0  0  0  0
   -0.2572    2.6803   -1.3422 H   0  0  0  0  0  0  0  0  0  0  0  0
   -0.8449   -0.8890    1.9722 N   0  0  0  0  0  0  0  0  0  0  0  0
   -0.9162   -2.0953    2.7649 C   0  0  2  0  0  0  0  0  0  0  0  0
    0.3026   -2.1312    3.6773 C   0  0  0  0  0  0  0  0  0  0  0  0
    1.3378   -1.5127    3.4385 O   0  0  0  0  0  0  0  0  0  0  0  0
   -0.9725   -3.3337    1.8841 C   0  0  0  0  0  0  0  0  0  0  0  0
   -1.7105   -0.3826    1.8113 H   0  0  0  0  0  0  0  0  0  0  0  0
   -1.8253   -2.0217    3.3717 H   0  0  0  0  0  0  0  0  0  0  0  0
   -0.0700   -3.4244    1.2687 H   0  0  0  0  0  0  0  0  0  0  0  0
   -1.0553   -4.2450    2.4855 H   0  0  0  0  0  0  0  0  0  0  0  0
   -1.8331   -3.2922    1.2077 H   0  0  0  0  0  0  0  0  0  0  0  0
    0.1141   -2.9694    4.7673 N   0  0  0  0  0  0  0  0  0  0  0  0
    1.1298   -3.1825    5.7718 C   0  0  0  0  0  0  0  0  0  0  0  0
   -0.7832   -3.4278    4.8959 H   0  0  0  0  0  0  0  0  0  0  0  0
    1.7340   -4.0613    5.5023 H   0  0  0  0  0  0  0  0  0  0  0  0
    1.7783   -2.2960    5.8312 H   0  0  0  0  0  0  0  0  0  0  0  0
    0.6506   -3.3523    6.7473 H   0  0  0  0  0  0  0  0  0  0  0  0
  1  3  1  0  0  0  0
  1  7  1  0  0  0  0
  1  2  2  0  0  0  0
 37 38  1  0  0  0  0
 38 46  1  0  0  0  0
 38 39  2  0  0  0  0
  8  9  1  0  0  0  0
  9 17  1  0  0  0  0
  9 10  2  0  0  0  0
 18 19  1  0  0  0  0
 19 36  1  0  0  0  0
 19 20  2  0  0  0  0
 37 40  1  0  0  0  0
  8 11  1  0  0  0  0
 22 23  1  0  0  0  0
 22 24  1  0  0  0  0
 46 47  1  0  0  0  0
 18 21  1  0  0  0  0
 21 22  1  0  0  0  0
 36 37  1  0  0  0  0
  7  8  1  0  0  0  0
 17 18  1  0  0  0  0
  3  4  1  0  0  0  0
  3  5  1  0  0  0  0
  3  6  1  0  0  0  0
 40 43  1  0  0  0  0
 40 44  1  0  0  0  0
 40 45  1  0  0  0  0
 11 14  1  0  0  0  0
 11 15  1  0  0  0  0
 11 16  1  0  0  0  0
 23 30  1  0  0  0  0
 23 31  1  0  0  0  0
 23 32  1  0  0  0  0
 24 33  1  0  0  0  0
 24 34  1  0  0  0  0
 24 35  1  0  0  0  0
 47 49  1  0  0  0  0
 47 50  1  0  0  0  0
 47 51  1  0  0  0  0
 21 27  1  0  0  0  0
 21 28  1  0  0  0  0
 37 42  1  0  0  0  0
  8 13  1  0  0  0  0
 18 26  1  0  0  0  0
 22 29  1  0  0  0  0
 46 48  1  0  0  0  0
  7 12  1  0  0  0  0
 36 41  1  0  0  0  0
 17 25  1  0  0  0  0
M  END
$$$$

  -OEChem-05262214473D

 51 50  0     1  0  0  0  0  0999 V2000
    3.4018   -1.2440   -3.0186 C   0  0  0  0  0  0  0  0  0  0  0  0
    3.2697   -2.0909   -2.1427 O   0  0  0  0  0  0  0  0  0  0  0  0
    4.6845   -1.1645   -3.7779 C   0  0  0  0  0  0  0  0  0  0  0  0
    5.4123   -0.4862   -3.3041 H   0  0  0  0  0  0  0  0  0  0  0  0
    5.1949   -2.1387   -3.8443 H   0  0  0  0  0  0  0  0  0  0  0  0
    4.5953   -0.8128   -4.8182 H   0  0  0  0  0  0  0  0  0  0  0  0
    2.4540   -0.3103   -3.4040 N   0  0  0  0  0  0  0  0  0  0  0  0
    1.1494   -0.2128   -2.8039 C   0  0  2  0  0  0  0  0  0  0  0  0
    1.3350    0.0367   -1.3130 C   0  0  0  0  0  0  0  0  0  0  0  0
    2.3625   -0.2586   -0.7063 O   0  0  0  0  0  0  0  0  0  0  0  0
    0.3331   -1.4728   -3.0467 C   0  0  0  0  0  0  0  0  0  0  0  0
    2.6924    0.3404   -4.1502 H   0  0  0  0  0  0  0  0  0  0  0  0
    0.6550    0.6514   -3.2607 H   0  0  0  0  0  0  0  0  0  0  0  0
    0.8129   -2.3494   -2.5963 H   0  0  0  0  0  0  0  0  0  0  0  0
   -0.6690   -1.3857   -2.6142 H   0  0  0  0  0  0  0  0  0  0  0  0
    0.2259   -1.6670   -4.1194 H   0  0  0  0  0  0  0  0  0  0  0  0
    0.2019    0.5893   -0.7269 N   0  0  0  0  0  0  0  0  0  0  0  0
    0.1242    0.9059    0.6756 C   0  0  2  0  0  0  0  0  0  0  0  0
    0.3392   -0.3953    1.4423 C   0  0  0  0  0  0  0  0  0  0  0  0
    1.4442   -0.7685    1.8305 O   0  0  0  0  0  0  0  0  0  0  0  0
   -1.2249    1.5291    1.0562 C   0  0  0  0  0  0  0  0  0  0  0  0
   -1.4941    2.9163    0.4383 C   0  0  0  0  0  0  0  0  0  0  0  0
   -2.9216    3.3606    0.7693 C   0  0  0  0  0  0  0  0  0  0  0  0
   -1.2890    2.9290   -1.0771 C   0  0  0  0  0  0  0  0  0  0  0  0
   -0.5975    0.8179   -1.3140 H   0  0  0  0  0  0  0  0  0  0  0  0
    0.9536    1.5854    0.8962 H   0  0  0  0  0  0  0  0  0  0  0  0
   -1.2795    1.6151    2.1505 H   0  0  0  0  0  0  0  0  0  0  0  0
   -2.0352    0.8455    0.7698 H   0  0  0  0  0  0  0  0  0  0  0  0
   -0.8090    3.6478    0.8840 H   0  0  0  0  0  0  0  0  0  0  0  0
   -3.6538    2.6639    0.3474 H   0  0  0  0  0  0  0  0  0  0  0  0
   -3.1273    4.3519    0.3517 H   0  0  0  0  0  0  0  0  0  0  0  0
   -3.0831    3.4079    1.8516 H   0  0  0  0  0  0  0  0  0  0  0  0
   -1.9524    2.2126   -1.5735 H   0  0  0  0  0  0  0  0  0  0  0  0
   -1.4971    3.9227   -1.4886 H   0  0  0  0  0  0  0  0  0  0  0  0
   -0.2572    2.6803   -1.3422 H   0  0  0  0  0  0  0  0  0  0  0  0
   -0.8548   -1.0607    1.6836 N   0  0  0  0  0  0  0  0  0  0  0  0
   -0.9350   -2.3053    2.4139 C   0  0  2  0  0  0  0  0  0  0  0  0
    0.0488   -2.2339    3.5743 C   0  0  0  0  0  0  0  0  0  0  0  0
    1.0184   -1.4785    3.5861 O   0  0  0  0  0  0  0  0  0  0  0  0
   -0.6309   -3.4943    1.5158 C   0  0  0  0  0  0  0  0  0  0  0  0
   -1.7244   -0.6598    1.3448 H   0  0  0  0  0  0  0  0  0  0  0  0
   -1.9561   -2.3779    2.8039 H   0  0  0  0  0  0  0  0  0  0  0  0
    0.3880   -3.4390    1.1155 H   0  0  0  0  0  0  0  0  0  0  0  0
   -0.7200   -4.4382    2.0636 H   0  0  0  0  0  0  0  0  0  0  0  0
   -1.3207   -3.5270    0.6656 H   0  0  0  0  0  0  0  0  0  0  0  0
   -0.2590   -3.1437    4.5761 N   0  0  0  0  0  0  0  0  0  0  0  0
    0.5320   -3.2782    5.7770 C   0  0  0  0  0  0  0  0  0  0  0  0
   -1.0929   -3.7174    4.4911 H   0  0  0  0  0  0  0  0  0  0  0  0
    1.2928   -4.0590    5.6301 H   0  0  0  0  0  0  0  0  0  0  0  0
    1.0269   -2.3213    5.9990 H   0  0  0  0  0  0  0  0  0  0  0  0
   -0.1214   -3.5566    6.6170 H   0  0  0  0  0  0  0  0  0  0  0  0
  1  3  1  0  0  0  0
  1  7  1  0  0  0  0
  1  2  2  0  0  0  0
 37 38  1  0  0  0  0
 38 46  1  0  0  0  0
 38 39  2  0  0  0  0
  8  9  1  0  0  0  0
  9 17  1  0  0  0  0
  9 10  2  0  0  0  0
 18 19  1  0  0  0  0
 19 36  1  0  0  0  0
 19 20  2  0  0  0  0
 37 40  1  0  0  0  0
  8 11  1  0  0  0  0
 22 23  1  0  0  0  0
 22 24  1  0  0  0  0
 46 47  1  0  0  0  0
 18 21  1  0  0  0  0
 21 22  1  0  0  0  0
 36 37  1  0  0  0  0
  7  8  1  0  0  0  0
 17 18  1  0  0  0  0
  3  4  1  0  0  0  0
  3  5  1  0  0  0  0
  3  6  1  0  0  0  0
 40 43  1  0  0  0  0
 40 44  1  0  0  0  0
 40 45  1  0  0  0  0
 11 14  1  0  0  0  0
 11 15  1  0  0  0  0
 11 16  1  0  0  0  0
 23 30  1  0  0  0  0
 23 31  1  0  0  0  0
 23 32  1  0  0  0  0
 24 33  1  0  0  0  0
 24 34  1  0  0  0  0
 24 35  1  0  0  0  0
 47 49  1  0  0  0  0
 47 50  1  0  0  0  0
 47 51  1  0  0  0  0
 21 27  1  0  0  0  0
 21 28  1  0  0  0  0
 37 42  1  0  0  0  0
  8 13  1  0  0  0  0
 18 26  1  0  0  0  0
 22 29  1  0  0  0  0
 46 48  1  0  0  0  0
  7 12  1  0  0  0  0
 36 41  1  0  0  0  0
 17 25  1  0  0  0  0
M  END
$$$$

  -OEChem-05262214473D

 51 50  0     1  0  0  0  0  0999 V2000
    3.4018   -1.2440   -3.0186 C   0  0  0  0  0  0  0  0  0  0  0  0
    3.2697   -2.0909   -2.1427 O   0  0  0  0  0  0  0  0  0  0  0  0
    4.6845   -1.1645   -3.7779 C   0  0  0  0  0  0  0  0  0  0  0  0
    5.4123   -0.4862   -3.3041 H   0  0  0  0  0  0  0  0  0  0  0  0
    5.1949   -2.1387   -3.8443 H   0  0  0  0  0  0  0  0  0  0  0  0
    4.5953   -0.8128   -4.8182 H   0  0  0  0  0  0  0  0  0  0  0  0
    2.4540   -0.3103   -3.4040 N   0  0  0  0  0  0  0  0  0  0  0  0
    1.1494   -0.2128   -2.8039 C   0  0  2  0  0  0  0  0  0  0  0  0
    1.3350    0.0367   -1.3130 C   0  0  0  0  0  0  0  0  0  0  0  0
    2.3625   -0.2586   -0.7063 O   0  0  0  0  0  0  0  0  0  0  0  0
    0.3331   -1.4728   -3.0467 C   0  0  0  0  0  0  0  0  0  0  0  0
    2.6924    0.3404   -4.1502 H   0  0  0  0  0  0  0  0  0  0  0  0
    0.6550    0.6514   -3.2607 H   0  0  0  0  0  0  0  0  0  0  0  0
    0.8129   -2.3494   -2.5963 H   0  0  0  0  0  0  0  0  0  0  0  0
   -0.6690   -1.3857   -2.6142 H   0  0  0  0  0  0  0  0  0  0  0  0
    0.2259   -1.6670   -4.1194 H   0  0  0  0  0  0  0  0  0  0  0  0
    0.2019    0.5893   -0.7269 N   0  0  0  0  0  0  0  0  0  0  0  0
    0.1242    0.9059    0.6756 C   0  0  2  0  0  0  0  0  0  0  0  0
    0.3392   -0.3953    1.4423 C   0  0  0  0  0  0  0  0  0  0  0  0
    1.3726   -0.6457    2.0591 O   0  0  0  0  0  0  0  0  0  0  0  0
   -1.2249    1.5291    1.0562 C   0  0  0  0  0  0  0  0  0  0  0  0
   -1.4941    2.9163    0.4383 C   0  0  0  0  0  0  0  0  0  0  0  0
   -2.9216    3.3606    0.7693 C   0  0  0  0  0  0  0  0  0  0  0  0
   -1.2890    2.9290   -1.0771 C   0  0  0  0  0  0  0  0  0  0  0  0
   -0.5975    0.8179   -1.3140 H   0  0  0  0  0  0  0  0  0  0  0  0
    0.9536    1.5854    0.8962 H   0  0  0  0  0  0  0  0  0  0  0  0
   -1.2795    1.6151    2.1505 H   0  0  0  0  0  0  0  0  0  0  0  0
   -2.0352    0.8455    0.7698 H   0  0  0  0  0  0  0  0  0  0  0  0
   -0.8090    3.6478    0.8840 H   0  0  0  0  0  0  0  0  0  0  0  0
   -3.6538    2.6639    0.3474 H   0  0  0  0  0  0  0  0  0  0  0  0
   -3.1273    4.3519    0.3517 H   0  0  0  0  0  0  0  0  0  0  0  0
   -3.0831    3.4079    1.8516 H   0  0  0  0  0  0  0  0  0  0  0  0
   -1.9524    2.2126   -1.5735 H   0  0  0  0  0  0  0  0  0  0  0  0
   -1.4971    3.9227   -1.4886 H   0  0  0  0  0  0  0  0  0  0  0  0
   -0.2572    2.6803   -1.3422 H   0  0  0  0  0  0  0  0  0  0  0  0
   -0.7784   -1.2172    1.3965 N   0  0  0  0  0  0  0  0  0  0  0  0
   -0.8483   -2.4977    2.0630 C   0  0  2  0  0  0  0  0  0  0  0  0
   -0.1603   -2.3623    3.4150 C   0  0  0  0  0  0  0  0  0  0  0  0
    0.6730   -1.4923    3.6595 O   0  0  0  0  0  0  0  0  0  0  0  0
   -0.1988   -3.5915    1.2297 C   0  0  0  0  0  0  0  0  0  0  0  0
   -1.5987   -0.9124    0.8809 H   0  0  0  0  0  0  0  0  0  0  0  0
   -1.9107   -2.7182    2.2136 H   0  0  0  0  0  0  0  0  0  0  0  0
    0.8661   -3.3879    1.0682 H   0  0  0  0  0  0  0  0  0  0  0  0
   -0.2778   -4.5659    1.7230 H   0  0  0  0  0  0  0  0  0  0  0  0
   -0.6755   -3.6673    0.2464 H   0  0  0  0  0  0  0  0  0  0  0  0
   -0.5545   -3.3536    4.3027 N   0  0  0  0  0  0  0  0  0  0  0  0
   -0.0341   -3.4486    5.6466 C   0  0  0  0  0  0  0  0  0  0  0  0
   -1.2650   -4.0228    4.0212 H   0  0  0  0  0  0  0  0  0  0  0  0
    0.8382   -4.1187    5.6561 H   0  0  0  0  0  0  0  0  0  0  0  0
    0.2674   -2.4495    5.9944 H   0  0  0  0  0  0  0  0  0  0  0  0
   -0.8117   -3.8496    6.3133 H   0  0  0  0  0  0  0  0  0  0  0  0
  1  3  1  0  0  0  0
  1  7  1  0  0  0  0
  1  2  2  0  0  0  0
 37 38  1  0  0  0  0
 38 46  1  0  0  0  0
 38 39  2  0  0  0  0
  8  9  1  0  0  0  0
  9 17  1  0  0  0  0
  9 10  2  0  0  0  0
 18 19  1  0  0  0  0
 19 36  1  0  0  0  0
 19 20  2  0  0  0  0
 37 40  1  0  0  0  0
  8 11  1  0  0  0  0
 22 23  1  0  0  0  0
 22 24  1  0  0  0  0
 46 47  1  0  0  0  0
 18 21  1  0  0  0  0
 21 22  1  0  0  0  0
 36 37  1  0  0  0  0
  7  8  1  0  0  0  0
 17 18  1  0  0  0  0
  3  4  1  0  0  0  0
  3  5  1  0  0  0  0
  3  6  1  0  0  0  0
 40 43  1  0  0  0  0
 40 44  1  0  0  0  0
 40 45  1  0  0  0  0
 11 14  1  0  0  0  0
 11 15  1  0  0  0  0
 11 16  1  0  0  0  0
 23 30  1  0  0  0  0
 23 31  1  0  0  0  0
 23 32  1  0  0  0  0
 24 33  1  0  0  0  0
 24 34  1  0  0  0  0
 24 35  1  0  0  0  0
 47 49  1  0  0  0  0
 47 50  1  0  0  0  0
 47 51  1  0  0  0  0
 21 27  1  0  0  0  0
 21 28  1  0  0  0  0
 37 42  1  0  0  0  0
  8 13  1  0  0  0  0
 18 26  1  0  0  0  0
 22 29  1  0  0  0  0
 46 48  1  0  0  0  0
  7 12  1  0  0  0  0
 36 41  1  0  0  0  0
 17 25  1  0  0  0  0
M  END
$$$$

  -OEChem-05262214473D

 51 50  0     1  0  0  0  0  0999 V2000
    3.4018   -1.2440   -3.0186 C   0  0  0  0  0  0  0  0  0  0  0  0
    3.2697   -2.0909   -2.1427 O   0  0  0  0  0  0  0  0  0  0  0  0
    4.6845   -1.1645   -3.7779 C   0  0  0  0  0  0  0  0  0  0  0  0
    5.4123   -0.4862   -3.3041 H   0  0  0  0  0  0  0  0  0  0  0  0
    5.1949   -2.1387   -3.8443 H   0  0  0  0  0  0  0  0  0  0  0  0
    4.5953   -0.8128   -4.8182 H   0  0  0  0  0  0  0  0  0  0  0  0
    2.4540   -0.3103   -3.4040 N   0  0  0  0  0  0  0  0  0  0  0  0
    1.1494   -0.2128   -2.8039 C   0  0  2  0  0  0  0  0  0  0  0  0
    1.3350    0.0367   -1.3130 C   0  0  0  0  0  0  0  0  0  0  0  0
    2.3625   -0.2586   -0.7063 O   0  0  0  0  0  0  0  0  0  0  0  0
    0.3331   -1.4728   -3.0467 C   0  0  0  0  0  0  0  0  0  0  0  0
    2.6924    0.3404   -4.1502 H   0  0  0  0  0  0  0  0  0  0  0  0
    0.6550    0.6514   -3.2607 H   0  0  0  0  0  0  0  0  0  0  0  0
    0.8129   -2.3494   -2.5963 H   0  0  0  0  0  0  0  0  0  0  0  0
   -0.6690   -1.3857   -2.6142 H   0  0  0  0  0  0  0  0  0  0  0  0
    0.2259   -1.6670   -4.1194 H   0  0  0  0  0  0  0  0  0  0  0  0
    0.2019    0.5893   -0.7269 N   0  0  0  0  0  0  0  0  0  0  0  0
    0.1242    0.9059    0.6756 C   0  0  2  0  0  0  0  0  0  0  0  0
    0.3392   -0.3953    1.4423 C   0  0  0  0  0  0  0  0  0  0  0  0
    1.2370   -0.5447    2.2686 O   0  0  0  0  0  0  0  0  0  0  0  0
   -1.2249    1.5291    1.0562 C   0  0  0  0  0  0  0  0  0  0  0  0
   -1.4941    2.9163    0.4383 C   0  0  0  0  0  0  0  0  0  0  0  0
   -2.9216    3.3606    0.7693 C   0  0  0  0  0  0  0  0  0  0  0  0
   -1.2890    2.9290   -1.0771 C   0  0  0  0  0  0  0  0  0  0  0  0
   -0.5975    0.8179   -1.3140 H   0  0  0  0  0  0  0  0  0  0  0  0
    0.9536    1.5854    0.8962 H   0  0  0  0  0  0  0  0  0  0  0  0
   -1.2795    1.6151    2.1505 H   0  0  0  0  0  0  0  0  0  0  0  0
   -2.0352    0.8455    0.7698 H   0  0  0  0  0  0  0  0  0  0  0  0
   -0.8090    3.6478    0.8840 H   0  0  0  0  0  0  0  0  0  0  0  0
   -3.6538    2.6639    0.3474 H   0  0  0  0  0  0  0  0  0  0  0  0
   -3.1273    4.3519    0.3517 H   0  0  0  0  0  0  0  0  0  0  0  0
   -3.0831    3.4079    1.8516 H   0  0  0  0  0  0  0  0  0  0  0  0
   -1.9524    2.2126   -1.5735 H   0  0  0  0  0  0  0  0  0  0  0  0
   -1.4971    3.9227   -1.4886 H   0  0  0  0  0  0  0  0  0  0  0  0
   -0.2572    2.6803   -1.3422 H   0  0  0  0  0  0  0  0  0  0  0  0
   -0.6207   -1.3481    1.1303 N   0  0  0  0  0  0  0  0  0  0  0  0
   -0.6621   -2.6595    1.7362 C   0  0  2  0  0  0  0  0  0  0  0  0
   -0.3105   -2.5078    3.2103 C   0  0  0  0  0  0  0  0  0  0  0  0
    0.3249   -1.5534    3.6535 O   0  0  0  0  0  0  0  0  0  0  0  0
    0.2945   -3.6187    1.0452 C   0  0  0  0  0  0  0  0  0  0  0  0
   -1.3420   -1.1230    0.4514 H   0  0  0  0  0  0  0  0  0  0  0  0
   -1.6923   -3.0195    1.6411 H   0  0  0  0  0  0  0  0  0  0  0  0
    1.3317   -3.2746    1.1299 H   0  0  0  0  0  0  0  0  0  0  0  0
    0.2411   -4.6192    1.4869 H   0  0  0  0  0  0  0  0  0  0  0  0
    0.0586   -3.7037   -0.0211 H   0  0  0  0  0  0  0  0  0  0  0  0
   -0.7523   -3.5849    3.9657 N   0  0  0  0  0  0  0  0  0  0  0  0
   -0.5300   -3.6820    5.3895 C   0  0  0  0  0  0  0  0  0  0  0  0
   -1.2878   -4.3229    3.5182 H   0  0  0  0  0  0  0  0  0  0  0  0
    0.4010   -4.2365    5.5788 H   0  0  0  0  0  0  0  0  0  0  0  0
   -0.4485   -2.6720    5.8175 H   0  0  0  0  0  0  0  0  0  0  0  0
   -1.3734   -4.2114    5.8569 H   0  0  0  0  0  0  0  0  0  0  0  0
  1  3  1  0  0  0  0
  1  7  1  0  0  0  0
  1  2  2  0  0  0  0
 37 38  1  0  0  0  0
 38 46  1  0  0  0  0
 38 39  2  0  0  0  0
  8  9  1  0  0  0  0
  9 17  1  0  0  0  0
  9 10  2  0  0  0  0
 18 19  1  0  0  0  0
 19 36  1  0  0  0  0
 19 20  2  0  0  0  0
 37 40  1  0  0  0  0
  8 11  1  0  0  0  0
 22 23  1  0  0  0  0
 22 24  1  0  0  0  0
 46 47  1  0  0  0  0
 18 21  1  0  0  0  0
 21 22  1  0  0  0  0
 36 37  1  0  0  0  0
  7  8  1  0  0  0  0
 17 18  1  0  0  0  0
  3  4  1  0  0  0  0
  3  5  1  0  0  0  0
  3  6  1  0  0  0  0
 40 43  1  0  0  0  0
 40 44  1  0  0  0  0
 40 45  1  0  0  0  0
 11 14  1  0  0  0  0
 11 15  1  0  0  0  0
 11 16  1  0  0  0  0
 23 30  1  0  0  0  0
 23 31  1  0  0  0  0
 23 32  1  0  0  0  0
 24 33  1  0  0  0  0
 24 34  1  0  0  0  0
 24 35  1  0  0  0  0
 47 49  1  0  0  0  0
 47 50  1  0  0  0  0
 47 51  1  0  0  0  0
 21 27  1  0  0  0  0
 21 28  1  0  0  0  0
 37 42  1  0  0  0  0
  8 13  1  0  0  0  0
 18 26  1  0  0  0  0
 22 29  1  0  0  0  0
 46 48  1  0  0  0  0
  7 12  1  0  0  0  0
 36 41  1  0  0  0  0
 17 25  1  0  0  0  0
M  END
$$$$

  -OEChem-05262214473D

 51 50  0     1  0  0  0  0  0999 V2000
    3.4018   -1.2440   -3.0186 C   0  0  0  0  0  0  0  0  0  0  0  0
    3.2697   -2.0909   -2.1427 O   0  0  0  0  0  0  0  0  0  0  0  0
    4.6845   -1.1645   -3.7779 C   0  0  0  0  0  0  0  0  0  0  0  0
    5.4123   -0.4862   -3.3041 H   0  0  0  0  0  0  0  0  0  0  0  0
    5.1949   -2.1387   -3.8443 H   0  0  0  0  0  0  0  0  0  0  0  0
    4.5953   -0.8128   -4.8182 H   0  0  0  0  0  0  0  0  0  0  0  0
    2.4540   -0.3103   -3.4040 N   0  0  0  0  0  0  0  0  0  0  0  0
    1.1494   -0.2128   -2.8039 C   0  0  2  0  0  0  0  0  0  0  0  0
    1.3350    0.0367   -1.3130 C   0  0  0  0  0  0  0  0  0  0  0  0
    2.3625   -0.2586   -0.7063 O   0  0  0  0  0  0  0  0  0  0  0  0
    0.3331   -1.4728   -3.0467 C   0  0  0  0  0  0  0  0  0  0  0  0
    2.6924    0.3404   -4.1502 H   0  0  0  0  0  0  0  0  0  0  0  0
    0.6550    0.6514   -3.2607 H   0  0  0  0  0  0  0  0  0  0  0  0
    0.8129   -2.3494   -2.5963 H   0  0  0  0  0  0  0  0  0  0  0  0
   -0.6690   -1.3857   -2.6142 H   0  0  0  0  0  0  0  0  0  0  0  0
    0.2259   -1.6670   -4.1194 H   0  0  0  0  0  0  0  0  0  0  0  0
    0.2019    0.5893   -0.7269 N   0  0  0  0  0  0  0  0  0  0  0  0
    0.1242    0.9059    0.6756 C   0  0  2  0  0  0  0  0  0  0  0  0
    0.3392   -0.3953    1.4423 C   0  0  0  0  0  0  0  0  0  0  0  0
    1.0466   -0.4724    2.4446 O   0  0  0  0  0  0  0  0  0  0  0  0
   -1.2249    1.5291    1.0562 C   0  0  0  0  0  0  0  0  0  0  0  0
   -1.4941    2.9163    0.4383 C   0  0  0  0  0  0  0  0  0  0  0  0
   -2.9216    3.3606    0.7693 C   0  0  0  0  0  0  0  0  0  0  0  0
   -1.2890    2.9290   -1.0771 C   0  0  0  0  0  0  0  0  0  0  0  0
   -0.5975    0.8179   -1.3140 H   0  0  0  0  0  0  0  0  0  0  0  0
    0.9536    1.5854    0.8962 H   0  0  0  0  0  0  0  0  0  0  0  0
   -1.2795    1.6151    2.1505 H   0  0  0  0  0  0  0  0  0  0  0  0
   -2.0352    0.8455    0.7698 H   0  0  0  0  0  0  0  0  0  0  0  0
   -0.8090    3.6478    0.8840 H   0  0  0  0  0  0  0  0  0  0  0  0
   -3.6538    2.6639    0.3474 H   0  0  0  0  0  0  0  0  0  0  0  0
   -3.1273    4.3519    0.3517 H   0  0  0  0  0  0  0  0  0  0  0  0
   -3.0831    3.4079    1.8516 H   0  0  0  0  0  0  0  0  0  0  0  0
   -1.9524    2.2126   -1.5735 H   0  0  0  0  0  0  0  0  0  0  0  0
   -1.4971    3.9227   -1.4886 H   0  0  0  0  0  0  0  0  0  0  0  0
   -0.2572    2.6803   -1.3422 H   0  0  0  0  0  0  0  0  0  0  0  0
   -0.3927   -1.4442    0.9032 N   0  0  0  0  0  0  0  0  0  0  0  0
   -0.3890   -2.7796    1.4558 C   0  0  2  0  0  0  0  0  0  0  0  0
   -0.3914   -2.6603    2.9741 C   0  0  0  0  0  0  0  0  0  0  0  0
   -0.0020   -1.6574    3.5687 O   0  0  0  0  0  0  0  0  0  0  0  0
    0.8152   -3.5741    0.9748 C   0  0  0  0  0  0  0  0  0  0  0  0
   -0.9718   -1.2775    0.0856 H   0  0  0  0  0  0  0  0  0  0  0  0
   -1.3158   -3.2612    1.1253 H   0  0  0  0  0  0  0  0  0  0  0  0
    1.7531   -3.1068    1.2964 H   0  0  0  0  0  0  0  0  0  0  0  0
    0.8014   -4.5946    1.3715 H   0  0  0  0  0  0  0  0  0  0  0  0
    0.8314   -3.6336   -0.1188 H   0  0  0  0  0  0  0  0  0  0  0  0
   -0.8389   -3.8217    3.5881 N   0  0  0  0  0  0  0  0  0  0  0  0
   -0.9218   -3.9627    5.0231 C   0  0  0  0  0  0  0  0  0  0  0  0
   -1.1598   -4.5975    3.0164 H   0  0  0  0  0  0  0  0  0  0  0  0
    0.0112   -4.4044    5.4032 H   0  0  0  0  0  0  0  0  0  0  0  0
   -1.0720   -2.9736    5.4805 H   0  0  0  0  0  0  0  0  0  0  0  0
   -1.7680   -4.6172    5.2788 H   0  0  0  0  0  0  0  0  0  0  0  0
  1  3  1  0  0  0  0
  1  7  1  0  0  0  0
  1  2  2  0  0  0  0
 37 38  1  0  0  0  0
 38 46  1  0  0  0  0
 38 39  2  0  0  0  0
  8  9  1  0  0  0  0
  9 17  1  0  0  0  0
  9 10  2  0  0  0  0
 18 19  1  0  0  0  0
 19 36  1  0  0  0  0
 19 20  2  0  0  0  0
 37 40  1  0  0  0  0
  8 11  1  0  0  0  0
 22 23  1  0  0  0  0
 22 24  1  0  0  0  0
 46 47  1  0  0  0  0
 18 21  1  0  0  0  0
 21 22  1  0  0  0  0
 36 37  1  0  0  0  0
  7  8  1  0  0  0  0
 17 18  1  0  0  0  0
  3  4  1  0  0  0  0
  3  5  1  0  0  0  0
  3  6  1  0  0  0  0
 40 43  1  0  0  0  0
 40 44  1  0  0  0  0
 40 45  1  0  0  0  0
 11 14  1  0  0  0  0
 11 15  1  0  0  0  0
 11 16  1  0  0  0  0
 23 30  1  0  0  0  0
 23 31  1  0  0  0  0
 23 32  1  0  0  0  0
 24 33  1  0  0  0  0
 24 34  1  0  0  0  0
 24 35  1  0  0  0  0
 47 49  1  0  0  0  0
 47 50  1  0  0  0  0
 47 51  1  0  0  0  0
 21 27  1  0  0  0  0
 21 28  1  0  0  0  0
 37 42  1  0  0  0  0
  8 13  1  0  0  0  0
 18 26  1  0  0  0  0
 22 29  1  0  0  0  0
 46 48  1  0  0  0  0
  7 12  1  0  0  0  0
 36 41  1  0  0  0  0
 17 25  1  0  0  0  0
M  END
$$$$

  -OEChem-05262214473D

 51 50  0     1  0  0  0  0  0999 V2000
    3.4018   -1.2440   -3.0186 C   0  0  0  0  0  0  0  0  0  0  0  0
    3.2697   -2.0909   -2.1427 O   0  0  0  0  0  0  0  0  0  0  0  0
    4.6845   -1.1645   -3.7779 C   0  0  0  0  0  0  0  0  0  0  0  0
    5.4123   -0.4862   -3.3041 H   0  0  0  0  0  0  0  0  0  0  0  0
    5.1949   -2.1387   -3.8443 H   0  0  0  0  0  0  0  0  0  0  0  0
    4.5953   -0.8128   -4.8182 H   0  0  0  0  0  0  0  0  0  0  0  0
    2.4540   -0.3103   -3.4040 N   0  0  0  0  0  0  0  0  0  0  0  0
    1.1494   -0.2128   -2.8039 C   0  0  2  0  0  0  0  0  0  0  0  0
    1.3350    0.0367   -1.3130 C   0  0  0  0  0  0  0  0  0  0  0  0
    2.3625   -0.2586   -0.7063 O   0  0  0  0  0  0  0  0  0  0  0  0
    0.3331   -1.4728   -3.0467 C   0  0  0  0  0  0  0  0  0  0  0  0
    2.6924    0.3404   -4.1502 H   0  0  0  0  0  0  0  0  0  0  0  0
    0.6550    0.6514   -3.2607 H   0  0  0  0  0  0  0  0  0  0  0  0
    0.8129   -2.3494   -2.5963 H   0  0  0  0  0  0  0  0  0  0  0  0
   -0.6690   -1.3857   -2.6142 H   0  0  0  0  0  0  0  0  0  0  0  0
    0.2259   -1.6670   -4.1194 H   0  0  0  0  0  0  0  0  0  0  0  0
    0.2019    0.5893   -0.7269 N   0  0  0  0  0  0  0  0  0  0  0  0
    0.1242    0.9059    0.6756 C   0  0  2  0  0  0  0  0  0  0  0  0
    0.3392   -0.3953    1.4423 C   0  0  0  0  0  0  0  0  0  0  0  0
    0.8145   -0.4337    2.5753 O   0  0  0  0  0  0  0  0  0  0  0  0
   -1.2249    1.5291    1.0562 C   0  0  0  0  0  0  0  0  0  0  0  0
   -1.4941    2.9163    0.4383 C   0  0  0  0  0  0  0  0  0  0  0  0
   -2.9216    3.3606    0.7693 C   0  0  0  0  0  0  0  0  0  0  0  0
   -1.2890    2.9290   -1.0771 C   0  0  0  0  0  0  0  0  0  0  0  0
   -0.5975    0.8179   -1.3140 H   0  0  0  0  0  0  0  0  0  0  0  0
    0.9536    1.5854    0.8962 H   0  0  0  0  0  0  0  0  0  0  0  0
   -1.2795    1.6151    2.1505 H   0  0  0  0  0  0  0  0  0  0  0  0
   -2.0352    0.8455    0.7698 H   0  0  0  0  0  0  0  0  0  0  0  0
   -0.8090    3.6478    0.8840 H   0  0  0  0  0  0  0  0  0  0  0  0
   -3.6538    2.6639    0.3474 H   0  0  0  0  0  0  0  0  0  0  0  0
   -3.1273    4.3519    0.3517 H   0  0  0  0  0  0  0  0  0  0  0  0
   -3.0831    3.4079    1.8516 H   0  0  0  0  0  0  0  0  0  0  0  0
   -1.9524    2.2126   -1.5735 H   0  0  0  0  0  0  0  0  0  0  0  0
   -1.4971    3.9227   -1.4886 H   0  0  0  0  0  0  0  0  0  0  0  0
   -0.2572    2.6803   -1.3422 H   0  0  0  0  0  0  0  0  0  0  0  0
   -0.1098   -1.4991    0.7306 N   0  0  0  0  0  0  0  0  0  0  0  0
   -0.0477   -2.8499    1.2408 C   0  0  2  0  0  0  0  0  0  0  0  0
   -0.3975   -2.8096    2.7225 C   0  0  0  0  0  0  0  0  0  0  0  0
   -0.2856   -1.7972    3.4108 O   0  0  0  0  0  0  0  0  0  0  0  0
    1.3279   -3.4608    1.0234 C   0  0  0  0  0  0  0  0  0  0  0  0
   -0.5135   -1.3651   -0.1917 H   0  0  0  0  0  0  0  0  0  0  0  0
   -0.8067   -3.4269    0.7013 H   0  0  0  0  0  0  0  0  0  0  0  0
    2.1016   -2.8961    1.5564 H   0  0  0  0  0  0  0  0  0  0  0  0
    1.3648   -4.4938    1.3847 H   0  0  0  0  0  0  0  0  0  0  0  0
    1.5903   -3.4617   -0.0400 H   0  0  0  0  0  0  0  0  0  0  0  0
   -0.8083   -4.0479    3.1956 N   0  0  0  0  0  0  0  0  0  0  0  0
   -1.1829   -4.2713    4.5725 C   0  0  0  0  0  0  0  0  0  0  0  0
   -0.8896   -4.8277    2.5499 H   0  0  0  0  0  0  0  0  0  0  0  0
   -0.3048   -4.6108    5.1415 H   0  0  0  0  0  0  0  0  0  0  0  0
   -1.5607   -3.3337    5.0064 H   0  0  0  0  0  0  0  0  0  0  0  0
   -1.9689   -5.0395    4.6185 H   0  0  0  0  0  0  0  0  0  0  0  0
  1  3  1  0  0  0  0
  1  7  1  0  0  0  0
  1  2  2  0  0  0  0
 37 38  1  0  0  0  0
 38 46  1  0  0  0  0
 38 39  2  0  0  0  0
  8  9  1  0  0  0  0
  9 17  1  0  0  0  0
  9 10  2  0  0  0  0
 18 19  1  0  0  0  0
 19 36  1  0  0  0  0
 19 20  2  0  0  0  0
 37 40  1  0  0  0  0
  8 11  1  0  0  0  0
 22 23  1  0  0  0  0
 22 24  1  0  0  0  0
 46 47  1  0  0  0  0
 18 21  1  0  0  0  0
 21 22  1  0  0  0  0
 36 37  1  0  0  0  0
  7  8  1  0  0  0  0
 17 18  1  0  0  0  0
  3  4  1  0  0  0  0
  3  5  1  0  0  0  0
  3  6  1  0  0  0  0
 40 43  1  0  0  0  0
 40 44  1  0  0  0  0
 40 45  1  0  0  0  0
 11 14  1  0  0  0  0
 11 15  1  0  0  0  0
 11 16  1  0  0  0  0
 23 30  1  0  0  0  0
 23 31  1  0  0  0  0
 23 32  1  0  0  0  0
 24 33  1  0  0  0  0
 24 34  1  0  0  0  0
 24 35  1  0  0  0  0
 47 49  1  0  0  0  0
 47 50  1  0  0  0  0
 47 51  1  0  0  0  0
 21 27  1  0  0  0  0
 21 28  1  0  0  0  0
 37 42  1  0  0  0  0
  8 13  1  0  0  0  0
 18 26  1  0  0  0  0
 22 29  1  0  0  0  0
 46 48  1  0  0  0  0
  7 12  1  0  0  0  0
 36 41  1  0  0  0  0
 17 25  1  0  0  0  0
M  END
$$$$

  -OEChem-05262214473D

 51 50  0     1  0  0  0  0  0999 V2000
    3.4018   -1.2440   -3.0186 C   0  0  0  0  0  0  0  0  0  0  0  0
    3.2697   -2.0909   -2.1427 O   0  0  0  0  0  0  0  0  0  0  0  0
    4.6845   -1.1645   -3.7779 C   0  0  0  0  0  0  0  0  0  0  0  0
    5.4123   -0.4862   -3.3041 H   0  0  0  0  0  0  0  0  0  0  0  0
    5.1949   -2.1387   -3.8443 H   0  0  0  0  0  0  0  0  0  0  0  0
    4.5953   -0.8128   -4.8182 H   0  0  0  0  0  0  0  0  0  0  0  0
    2.4540   -0.3103   -3.4040 N   0  0  0  0  0  0  0  0  0  0  0  0
    1.1494   -0.2128   -2.8039 C   0  0  2  0  0  0  0  0  0  0  0  0
    1.3350    0.0367   -1.3130 C   0  0  0  0  0  0  0  0  0  0  0  0
    2.3625   -0.2586   -0.7063 O   0  0  0  0  0  0  0  0  0  0  0  0
    0.3331   -1.4728   -3.0467 C   0  0  0  0  0  0  0  0  0  0  0  0
    2.6924    0.3404   -4.1502 H   0  0  0  0  0  0  0  0  0  0  0  0
    0.6550    0.6514   -3.2607 H   0  0  0  0  0  0  0  0  0  0  0  0
    0.8129   -2.3494   -2.5963 H   0  0  0  0  0  0  0  0  0  0  0  0
   -0.6690   -1.3857   -2.6142 H   0  0  0  0  0  0  0  0  0  0  0  0
    0.2259   -1.6670   -4.1194 H   0  0  0  0  0  0  0  0  0  0  0  0
    0.2019    0.5893   -0.7269 N   0  0  0  0  0  0  0  0  0  0  0  0
    0.1242    0.9059    0.6756 C   0  0  2  0  0  0  0  0  0  0  0  0
    0.3392   -0.3953    1.4423 C   0  0  0  0  0  0  0  0  0  0  0  0
    0.5564   -0.4314    2.6517 O   0  0  0  0  0  0  0  0  0  0  0  0
   -1.2249    1.5291    1.0562 C   0  0  0  0  0  0  0  0  0  0  0  0
   -1.4941    2.9163    0.4383 C   0  0  0  0  0  0  0  0  0  0  0  0
   -2.9216    3.3606    0.7693 C   0  0  0  0  0  0  0  0  0  0  0  0
   -1.2890    2.9290   -1.0771 C   0  0  0  0  0  0  0  0  0  0  0  0
   -0.5975    0.8179   -1.3140 H   0  0  0  0  0  0  0  0  0  0  0  0
    0.9536    1.5854    0.8962 H   0  0  0  0  0  0  0  0  0  0  0  0
   -1.2795    1.6151    2.1505 H   0  0  0  0  0  0  0  0  0  0  0  0
   -2.0352    0.8455    0.7698 H   0  0  0  0  0  0  0  0  0  0  0  0
   -0.8090    3.6478    0.8840 H   0  0  0  0  0  0  0  0  0  0  0  0
   -3.6538    2.6639    0.3474 H   0  0  0  0  0  0  0  0  0  0  0  0
   -3.1273    4.3519    0.3517 H   0  0  0  0  0  0  0  0  0  0  0  0
   -3.0831    3.4079    1.8516 H   0  0  0  0  0  0  0  0  0  0  0  0
   -1.9524    2.2126   -1.5735 H   0  0  0  0  0  0  0  0  0  0  0  0
   -1.4971    3.9227   -1.4886 H   0  0  0  0  0  0  0  0  0  0  0  0
   -0.2572    2.6803   -1.3422 H   0  0  0  0  0  0  0  0  0  0  0  0
    0.2087   -1.5091    0.6244 N   0  0  0  0  0  0  0  0  0  0  0  0
    0.3385   -2.8656    1.1059 C   0  0  2  0  0  0  0  0  0  0  0  0
   -0.3285   -2.9453    2.4727 C   0  0  0  0  0  0  0  0  0  0  0  0
   -0.5064   -1.9635    3.1906 O   0  0  0  0  0  0  0  0  0  0  0  0
    1.7976   -3.2863    1.1877 C   0  0  0  0  0  0  0  0  0  0  0  0
    0.0019   -1.3801   -0.3616 H   0  0  0  0  0  0  0  0  0  0  0  0
   -0.1999   -3.5053    0.3982 H   0  0  0  0  0  0  0  0  0  0  0  0
    2.3533   -2.6566    1.8921 H   0  0  0  0  0  0  0  0  0  0  0  0
    1.8931   -4.3236    1.5254 H   0  0  0  0  0  0  0  0  0  0  0  0
    2.2836   -3.1999    0.2099 H   0  0  0  0  0  0  0  0  0  0  0  0
   -0.6627   -4.2481    2.8150 N   0  0  0  0  0  0  0  0  0  0  0  0
   -1.2955   -4.5870    4.0684 C   0  0  0  0  0  0  0  0  0  0  0  0
   -0.4956   -4.9979    2.1505 H   0  0  0  0  0  0  0  0  0  0  0  0
   -0.5254   -4.8418    4.8114 H   0  0  0  0  0  0  0  0  0  0  0  0
   -1.8812   -3.7279    4.4273 H   0  0  0  0  0  0  0  0  0  0  0  0
   -1.9622   -5.4494    3.9210 H   0  0  0  0  0  0  0  0  0  0  0  0
  1  3  1  0  0  0  0
  1  7  1  0  0  0  0
  1  2  2  0  0  0  0
 37 38  1  0  0  0  0
 38 46  1  0  0  0  0
 38 39  2  0  0  0  0
  8  9  1  0  0  0  0
  9 17  1  0  0  0  0
  9 10  2  0  0  0  0
 18 19  1  0  0  0  0
 19 36  1  0  0  0  0
 19 20  2  0  0  0  0
 37 40  1  0  0  0  0
  8 11  1  0  0  0  0
 22 23  1  0  0  0  0
 22 24  1  0  0  0  0
 46 47  1  0  0  0  0
 18 21  1  0  0  0  0
 21 22  1  0  0  0  0
 36 37  1  0  0  0  0
  7  8  1  0  0  0  0
 17 18  1  0  0  0  0
  3  4  1  0  0  0  0
  3  5  1  0  0  0  0
  3  6  1  0  0  0  0
 40 43  1  0  0  0  0
 40 44  1  0  0  0  0
 40 45  1  0  0  0  0
 11 14  1  0  0  0  0
 11 15  1  0  0  0  0
 11 16  1  0  0  0  0
 23 30  1  0  0  0  0
 23 31  1  0  0  0  0
 23 32  1  0  0  0  0
 24 33  1  0  0  0  0
 24 34  1  0  0  0  0
 24 35  1  0  0  0  0
 47 49  1  0  0  0  0
 47 50  1  0  0  0  0
 47 51  1  0  0  0  0
 21 27  1  0  0  0  0
 21 28  1  0  0  0  0
 37 42  1  0  0  0  0
  8 13  1  0  0  0  0
 18 26  1  0  0  0  0
 22 29  1  0  0  0  0
 46 48  1  0  0  0  0
  7 12  1  0  0  0  0
 36 41  1  0  0  0  0
 17 25  1  0  0  0  0
M  END
$$$$

  -OEChem-05262214473D

 51 50  0     1  0  0  0  0  0999 V2000
    3.4018   -1.2440   -3.0186 C   0  0  0  0  0  0  0  0  0  0  0  0
    3.2697   -2.0909   -2.1427 O   0  0  0  0  0  0  0  0  0  0  0  0
    4.6845   -1.1645   -3.7779 C   0  0  0  0  0  0  0  0  0  0  0  0
    5.4123   -0.4862   -3.3041 H   0  0  0  0  0  0  0  0  0  0  0  0
    5.1949   -2.1387   -3.8443 H   0  0  0  0  0  0  0  0  0  0  0  0
    4.5953   -0.8128   -4.8182 H   0  0  0  0  0  0  0  0  0  0  0  0
    2.4540   -0.3103   -3.4040 N   0  0  0  0  0  0  0  0  0  0  0  0
    1.1494   -0.2128   -2.8039 C   0  0  2  0  0  0  0  0  0  0  0  0
    1.3350    0.0367   -1.3130 C   0  0  0  0  0  0  0  0  0  0  0  0
    2.3625   -0.2586   -0.7063 O   0  0  0  0  0  0  0  0  0  0  0  0
    0.3331   -1.4728   -3.0467 C   0  0  0  0  0  0  0  0  0  0  0  0
    2.6924    0.3404   -4.1502 H   0  0  0  0  0  0  0  0  0  0  0  0
    0.6550    0.6514   -3.2607 H   0  0  0  0  0  0  0  0  0  0  0  0
    0.8129   -2.3494   -2.5963 H   0  0  0  0  0  0  0  0  0  0  0  0
   -0.6690   -1.3857   -2.6142 H   0  0  0  0  0  0  0  0  0  0  0  0
    0.2259   -1.6670   -4.1194 H   0  0  0  0  0  0  0  0  0  0  0  0
    0.2019    0.5893   -0.7269 N   0  0  0  0  0  0  0  0  0  0  0  0
    0.1242    0.9059    0.6756 C   0  0  2  0  0  0  0  0  0  0  0  0
    0.3392   -0.3953    1.4423 C   0  0  0  0  0  0  0  0  0  0  0  0
    0.2899   -0.4654    2.6686 O   0  0  0  0  0  0  0  0  0  0  0  0
   -1.2249    1.5291    1.0562 C   0  0  0  0  0  0  0  0  0  0  0  0
   -1.4941    2.9163    0.4383 C   0  0  0  0  0  0  0  0  0  0  0  0
   -2.9216    3.3606    0.7693 C   0  0  0  0  0  0  0  0  0  0  0  0
   -1.2890    2.9290   -1.0771 C   0  0  0  0  0  0  0  0  0  0  0  0
   -0.5975    0.8179   -1.3140 H   0  0  0  0  0  0  0  0  0  0  0  0
    0.9536    1.5854    0.8962 H   0  0  0  0  0  0  0  0  0  0  0  0
   -1.2795    1.6151    2.1505 H   0  0  0  0  0  0  0  0  0  0  0  0
   -2.0352    0.8455    0.7698 H   0  0  0  0  0  0  0  0  0  0  0  0
   -0.8090    3.6478    0.8840 H   0  0  0  0  0  0  0  0  0  0  0  0
   -3.6538    2.6639    0.3474 H   0  0  0  0  0  0  0  0  0  0  0  0
   -3.1273    4.3519    0.3517 H   0  0  0  0  0  0  0  0  0  0  0  0
   -3.0831    3.4079    1.8516 H   0  0  0  0  0  0  0  0  0  0  0  0
   -1.9524    2.2126   -1.5735 H   0  0  0  0  0  0  0  0  0  0  0  0
   -1.4971    3.9227   -1.4886 H   0  0  0  0  0  0  0  0  0  0  0  0
   -0.2572    2.6803   -1.3422 H   0  0  0  0  0  0  0  0  0  0  0  0
    0.5411   -1.4734    0.5917 N   0  0  0  0  0  0  0  0  0  0  0  0
    0.7435   -2.8255    1.0603 C   0  0  2  0  0  0  0  0  0  0  0  0
   -0.1890   -3.0584    2.2417 C   0  0  0  0  0  0  0  0  0  0  0  0
   -0.6495   -2.1448    2.9230 O   0  0  0  0  0  0  0  0  0  0  0  0
    2.1924   -3.0628    1.4565 C   0  0  0  0  0  0  0  0  0  0  0  0
    0.5392   -1.3213   -0.4125 H   0  0  0  0  0  0  0  0  0  0  0  0
    0.4634   -3.4910    0.2364 H   0  0  0  0  0  0  0  0  0  0  0  0
    2.4913   -2.4049    2.2807 H   0  0  0  0  0  0  0  0  0  0  0  0
    2.3501   -4.0956    1.7842 H   0  0  0  0  0  0  0  0  0  0  0  0
    2.8641   -2.8660    0.6139 H   0  0  0  0  0  0  0  0  0  0  0  0
   -0.4121   -4.4087    2.4722 N   0  0  0  0  0  0  0  0  0  0  0  0
   -1.2518   -4.8882    3.5450 C   0  0  0  0  0  0  0  0  0  0  0  0
   -0.0048   -5.0966    1.8455 H   0  0  0  0  0  0  0  0  0  0  0  0
   -0.6355   -5.0815    4.4354 H   0  0  0  0  0  0  0  0  0  0  0  0
   -2.0116   -4.1291    3.7829 H   0  0  0  0  0  0  0  0  0  0  0  0
   -1.7484   -5.8190    3.2337 H   0  0  0  0  0  0  0  0  0  0  0  0
  1  3  1  0  0  0  0
  1  7  1  0  0  0  0
  1  2  2  0  0  0  0
 37 38  1  0  0  0  0
 38 46  1  0  0  0  0
 38 39  2  0  0  0  0
  8  9  1  0  0  0  0
  9 17  1  0  0  0  0
  9 10  2  0  0  0  0
 18 19  1  0  0  0  0
 19 36  1  0  0  0  0
 19 20  2  0  0  0  0
 37 40  1  0  0  0  0
  8 11  1  0  0  0  0
 22 23  1  0  0  0  0
 22 24  1  0  0  0  0
 46 47  1  0  0  0  0
 18 21  1  0  0  0  0
 21 22  1  0  0  0  0
 36 37  1  0  0  0  0
  7  8  1  0  0  0  0
 17 18  1  0  0  0  0
  3  4  1  0  0  0  0
  3  5  1  0  0  0  0
  3  6  1  0  0  0  0
 40 43  1  0  0  0  0
 40 44  1  0  0  0  0
 40 45  1  0  0  0  0
 11 14  1  0  0  0  0
 11 15  1  0  0  0  0
 11 16  1  0  0  0  0
 23 30  1  0  0  0  0
 23 31  1  0  0  0  0
 23 32  1  0  0  0  0
 24 33  1  0  0  0  0
 24 34  1  0  0  0  0
 24 35  1  0  0  0  0
 47 49  1  0  0  0  0
 47 50  1  0  0  0  0
 47 51  1  0  0  0  0
 21 27  1  0  0  0  0
 21 28  1  0  0  0  0
 37 42  1  0  0  0  0
  8 13  1  0  0  0  0
 18 26  1  0  0  0  0
 22 29  1  0  0  0  0
 46 48  1  0  0  0  0
  7 12  1  0  0  0  0
 36 41  1  0  0  0  0
 17 25  1  0  0  0  0
M  END
$$$$

  -OEChem-05262214473D

 51 50  0     1  0  0  0  0  0999 V2000
    3.4018   -1.2440   -3.0186 C   0  0  0  0  0  0  0  0  0  0  0  0
    3.2697   -2.0909   -2.1427 O   0  0  0  0  0  0  0  0  0  0  0  0
    4.6845   -1.1645   -3.7779 C   0  0  0  0  0  0  0  0  0  0  0  0
    5.4123   -0.4862   -3.3041 H   0  0  0  0  0  0  0  0  0  0  0  0
    5.1949   -2.1387   -3.8443 H   0  0  0  0  0  0  0  0  0  0  0  0
    4.5953   -0.8128   -4.8182 H   0  0  0  0  0  0  0  0  0  0  0  0
    2.4540   -0.3103   -3.4040 N   0  0  0  0  0  0  0  0  0  0  0  0
    1.1494   -0.2128   -2.8039 C   0  0  2  0  0  0  0  0  0  0  0  0
    1.3350    0.0367   -1.3130 C   0  0  0  0  0  0  0  0  0  0  0  0
    2.3625   -0.2586   -0.7063 O   0  0  0  0  0  0  0  0  0  0  0  0
    0.3331   -1.4728   -3.0467 C   0  0  0  0  0  0  0  0  0  0  0  0
    2.6924    0.3404   -4.1502 H   0  0  0  0  0  0  0  0  0  0  0  0
    0.6550    0.6514   -3.2607 H   0  0  0  0  0  0  0  0  0  0  0  0
    0.8129   -2.3494   -2.5963 H   0  0  0  0  0  0  0  0  0  0  0  0
   -0.6690   -1.3857   -2.6142 H   0  0  0  0  0  0  0  0  0  0  0  0
    0.2259   -1.6670   -4.1194 H   0  0  0  0  0  0  0  0  0  0  0  0
    0.2019    0.5893   -0.7269 N   0  0  0  0  0  0  0  0  0  0  0  0
    0.1242    0.9059    0.6756 C   0  0  2  0  0  0  0  0  0  0  0  0
    0.3392   -0.3953    1.4423 C   0  0  0  0  0  0  0  0  0  0  0  0
    0.0332   -0.5336    2.6248 O   0  0  0  0  0  0  0  0  0  0  0  0
   -1.2249    1.5291    1.0562 C   0  0  0  0  0  0  0  0  0  0  0  0
   -1.4941    2.9163    0.4383 C   0  0  0  0  0  0  0  0  0  0  0  0
   -2.9216    3.3606    0.7693 C   0  0  0  0  0  0  0  0  0  0  0  0
   -1.2890    2.9290   -1.0771 C   0  0  0  0  0  0  0  0  0  0  0  0
   -0.5975    0.8179   -1.3140 H   0  0  0  0  0  0  0  0  0  0  0  0
    0.9536    1.5854    0.8962 H   0  0  0  0  0  0  0  0  0  0  0  0
   -1.2795    1.6151    2.1505 H   0  0  0  0  0  0  0  0  0  0  0  0
   -2.0352    0.8455    0.7698 H   0  0  0  0  0  0  0  0  0  0  0  0
   -0.8090    3.6478    0.8840 H   0  0  0  0  0  0  0  0  0  0  0  0
   -3.6538    2.6639    0.3474 H   0  0  0  0  0  0  0  0  0  0  0  0
   -3.1273    4.3519    0.3517 H   0  0  0  0  0  0  0  0  0  0  0  0
   -3.0831    3.4079    1.8516 H   0  0  0  0  0  0  0  0  0  0  0  0
   -1.9524    2.2126   -1.5735 H   0  0  0  0  0  0  0  0  0  0  0  0
   -1.4971    3.9227   -1.4886 H   0  0  0  0  0  0  0  0  0  0  0  0
   -0.2572    2.6803   -1.3422 H   0  0  0  0  0  0  0  0  0  0  0  0
    0.8647   -1.3945    0.6349 N   0  0  0  0  0  0  0  0  0  0  0  0
    1.1395   -2.7325    1.1071 C   0  0  2  0  0  0  0  0  0  0  0  0
    0.0114   -3.1411    2.0452 C   0  0  0  0  0  0  0  0  0  0  0  0
   -0.7051   -2.3287    2.6264 O   0  0  0  0  0  0  0  0  0  0  0  0
    2.4853   -2.8052    1.8114 C   0  0  0  0  0  0  0  0  0  0  0  0
    1.0618   -1.1927   -0.3408 H   0  0  0  0  0  0  0  0  0  0  0  0
    1.1379   -3.3850    0.2272 H   0  0  0  0  0  0  0  0  0  0  0  0
    2.5060   -2.1579    2.6957 H   0  0  0  0  0  0  0  0  0  0  0  0
    2.7048   -3.8254    2.1434 H   0  0  0  0  0  0  0  0  0  0  0  0
    3.2921   -2.4826    1.1445 H   0  0  0  0  0  0  0  0  0  0  0  0
   -0.0733   -4.5187    2.1906 N   0  0  0  0  0  0  0  0  0  0  0  0
   -1.0550   -5.1543    3.0381 C   0  0  0  0  0  0  0  0  0  0  0  0
    0.5494   -5.1168    1.6557 H   0  0  0  0  0  0  0  0  0  0  0  0
   -0.6277   -5.3137    4.0392 H   0  0  0  0  0  0  0  0  0  0  0  0
   -1.9432   -4.5102    3.1170 H   0  0  0  0  0  0  0  0  0  0  0  0
   -1.3421   -6.1232    2.6036 H   0  0  0  0  0  0  0  0  0  0  0  0
  1  3  1  0  0  0  0
  1  7  1  0  0  0  0
  1  2  2  0  0  0  0
 37 38  1  0  0  0  0
 38 46  1  0  0  0  0
 38 39  2  0  0  0  0
  8  9  1  0  0  0  0
  9 17  1  0  0  0  0
  9 10  2  0  0  0  0
 18 19  1  0  0  0  0
 19 36  1  0  0  0  0
 19 20  2  0  0  0  0
 37 40  1  0  0  0  0
  8 11  1  0  0  0  0
 22 23  1  0  0  0  0
 22 24  1  0  0  0  0
 46 47  1  0  0  0  0
 18 21  1  0  0  0  0
 21 22  1  0  0  0  0
 36 37  1  0  0  0  0
  7  8  1  0  0  0  0
 17 18  1  0  0  0  0
  3  4  1  0  0  0  0
  3  5  1  0  0  0  0
  3  6  1  0  0  0  0
 40 43  1  0  0  0  0
 40 44  1  0  0  0  0
 40 45  1  0  0  0  0
 11 14  1  0  0  0  0
 11 15  1  0  0  0  0
 11 16  1  0  0  0  0
 23 30  1  0  0  0  0
 23 31  1  0  0  0  0
 23 32  1  0  0  0  0
 24 33  1  0  0  0  0
 24 34  1  0  0  0  0
 24 35  1  0  0  0  0
 47 49  1  0  0  0  0
 47 50  1  0  0  0  0
 47 51  1  0  0  0  0
 21 27  1  0  0  0  0
 21 28  1  0  0  0  0
 37 42  1  0  0  0  0
  8 13  1  0  0  0  0
 18 26  1  0  0  0  0
 22 29  1  0  0  0  0
 46 48  1  0  0  0  0
  7 12  1  0  0  0  0
 36 41  1  0  0  0  0
 17 25  1  0  0  0  0
M  END
$$$$

  -OEChem-05262214473D

 51 50  0     1  0  0  0  0  0999 V2000
    3.4018   -1.2440   -3.0186 C   0  0  0  0  0  0  0  0  0  0  0  0
    3.2697   -2.0909   -2.1427 O   0  0  0  0  0  0  0  0  0  0  0  0
    4.6845   -1.1645   -3.7779 C   0  0  0  0  0  0  0  0  0  0  0  0
    5.4123   -0.4862   -3.3041 H   0  0  0  0  0  0  0  0  0  0  0  0
    5.1949   -2.1387   -3.8443 H   0  0  0  0  0  0  0  0  0  0  0  0
    4.5953   -0.8128   -4.8182 H   0  0  0  0  0  0  0  0  0  0  0  0
    2.4540   -0.3103   -3.4040 N   0  0  0  0  0  0  0  0  0  0  0  0
    1.1494   -0.2128   -2.8039 C   0  0  2  0  0  0  0  0  0  0  0  0
    1.3350    0.0367   -1.3130 C   0  0  0  0  0  0  0  0  0  0  0  0
    2.3625   -0.2586   -0.7063 O   0  0  0  0  0  0  0  0  0  0  0  0
    0.3331   -1.4728   -3.0467 C   0  0  0  0  0  0  0  0  0  0  0  0
    2.6924    0.3404   -4.1502 H   0  0  0  0  0  0  0  0  0  0  0  0
    0.6550    0.6514   -3.2607 H   0  0  0  0  0  0  0  0  0  0  0  0
    0.8129   -2.3494   -2.5963 H   0  0  0  0  0  0  0  0  0  0  0  0
   -0.6690   -1.3857   -2.6142 H   0  0  0  0  0  0  0  0  0  0  0  0
    0.2259   -1.6670   -4.1194 H   0  0  0  0  0  0  0  0  0  0  0  0
    0.2019    0.5893   -0.7269 N   0  0  0  0  0  0  0  0  0  0  0  0
    0.1242    0.9059    0.6756 C   0  0  2  0  0  0  0  0  0  0  0  0
    0.3392   -0.3953    1.4423 C   0  0  0  0  0  0  0  0  0  0  0  0
   -0.1963   -0.6313    2.5234 O   0  0  0  0  0  0  0  0  0  0  0  0
   -1.2249    1.5291    1.0562 C   0  0  0  0  0  0  0  0  0  0  0  0
   -1.4941    2.9163    0.4383 C   0  0  0  0  0  0  0  0  0  0  0  0
   -2.9216    3.3606    0.7693 C   0  0  0  0  0  0  0  0  0  0  0  0
   -1.2890    2.9290   -1.0771 C   0  0  0  0  0  0  0  0  0  0  0  0
   -0.5975    0.8179   -1.3140 H   0  0  0  0  0  0  0  0  0  0  0  0
    0.9536    1.5854    0.8962 H   0  0  0  0  0  0  0  0  0  0  0  0
   -1.2795    1.6151    2.1505 H   0  0  0  0  0  0  0  0  0  0  0  0
   -2.0352    0.8455    0.7698 H   0  0  0  0  0  0  0  0  0  0  0  0
   -0.8090    3.6478    0.8840 H   0  0  0  0  0  0  0  0  0  0  0  0
   -3.6538    2.6639    0.3474 H   0  0  0  0  0  0  0  0  0  0  0  0
   -3.1273    4.3519    0.3517 H   0  0  0  0  0  0  0  0  0  0  0  0
   -3.0831    3.4079    1.8516 H   0  0  0  0  0  0  0  0  0  0  0  0
   -1.9524    2.2126   -1.5735 H   0  0  0  0  0  0  0  0  0  0  0  0
   -1.4971    3.9227   -1.4886 H   0  0  0  0  0  0  0  0  0  0  0  0
   -0.2572    2.6803   -1.3422 H   0  0  0  0  0  0  0  0  0  0  0  0
    1.1575   -1.2778    0.7509 N   0  0  0  0  0  0  0  0  0  0  0  0
    1.4995   -2.5929    1.2431 C   0  0  2  0  0  0  0  0  0  0  0  0
    0.2591   -3.1877    1.8967 C   0  0  0  0  0  0  0  0  0  0  0  0
   -0.6693   -2.5028    2.3209 O   0  0  0  0  0  0  0  0  0  0  0  0
    2.6564   -2.5313    2.2283 C   0  0  0  0  0  0  0  0  0  0  0  0
    1.5340   -1.0032   -0.1516 H   0  0  0  0  0  0  0  0  0  0  0  0
    1.7777   -3.1945    0.3710 H   0  0  0  0  0  0  0  0  0  0  0  0
    2.3964   -1.9326    3.1088 H   0  0  0  0  0  0  0  0  0  0  0  0
    2.9330   -3.5313    2.5785 H   0  0  0  0  0  0  0  0  0  0  0  0
    3.5386   -2.0760    1.7655 H   0  0  0  0  0  0  0  0  0  0  0  0
    0.3303   -4.5706    1.9893 N   0  0  0  0  0  0  0  0  0  0  0  0
   -0.7183   -5.3673    2.5823 C   0  0  0  0  0  0  0  0  0  0  0  0
    1.1293   -5.0574    1.5939 H   0  0  0  0  0  0  0  0  0  0  0  0
   -0.5025   -5.5225    3.6497 H   0  0  0  0  0  0  0  0  0  0  0  0
   -1.6805   -4.8451    2.4750 H   0  0  0  0  0  0  0  0  0  0  0  0
   -0.7710   -6.3412    2.0736 H   0  0  0  0  0  0  0  0  0  0  0  0
  1  3  1  0  0  0  0
  1  7  1  0  0  0  0
  1  2  2  0  0  0  0
 37 38  1  0  0  0  0
 38 46  1  0  0  0  0
 38 39  2  0  0  0  0
  8  9  1  0  0  0  0
  9 17  1  0  0  0  0
  9 10  2  0  0  0  0
 18 19  1  0  0  0  0
 19 36  1  0  0  0  0
 19 20  2  0  0  0  0
 37 40  1  0  0  0  0
  8 11  1  0  0  0  0
 22 23  1  0  0  0  0
 22 24  1  0  0  0  0
 46 47  1  0  0  0  0
 18 21  1  0  0  0  0
 21 22  1  0  0  0  0
 36 37  1  0  0  0  0
  7  8  1  0  0  0  0
 17 18  1  0  0  0  0
  3  4  1  0  0  0  0
  3  5  1  0  0  0  0
  3  6  1  0  0  0  0
 40 43  1  0  0  0  0
 40 44  1  0  0  0  0
 40 45  1  0  0  0  0
 11 14  1  0  0  0  0
 11 15  1  0  0  0  0
 11 16  1  0  0  0  0
 23 30  1  0  0  0  0
 23 31  1  0  0  0  0
 23 32  1  0  0  0  0
 24 33  1  0  0  0  0
 24 34  1  0  0  0  0
 24 35  1  0  0  0  0
 47 49  1  0  0  0  0
 47 50  1  0  0  0  0
 47 51  1  0  0  0  0
 21 27  1  0  0  0  0
 21 28  1  0  0  0  0
 37 42  1  0  0  0  0
  8 13  1  0  0  0  0
 18 26  1  0  0  0  0
 22 29  1  0  0  0  0
 46 48  1  0  0  0  0
  7 12  1  0  0  0  0
 36 41  1  0  0  0  0
 17 25  1  0  0  0  0
M  END
$$$$

  -OEChem-05262214473D

 51 50  0     1  0  0  0  0  0999 V2000
    3.4018   -1.2440   -3.0186 C   0  0  0  0  0  0  0  0  0  0  0  0
    3.2697   -2.0909   -2.1427 O   0  0  0  0  0  0  0  0  0  0  0  0
    4.6845   -1.1645   -3.7779 C   0  0  0  0  0  0  0  0  0  0  0  0
    5.4123   -0.4862   -3.3041 H   0  0  0  0  0  0  0  0  0  0  0  0
    5.1949   -2.1387   -3.8443 H   0  0  0  0  0  0  0  0  0  0  0  0
    4.5953   -0.8128   -4.8182 H   0  0  0  0  0  0  0  0  0  0  0  0
    2.4540   -0.3103   -3.4040 N   0  0  0  0  0  0  0  0  0  0  0  0
    1.1494   -0.2128   -2.8039 C   0  0  2  0  0  0  0  0  0  0  0  0
    1.3350    0.0367   -1.3130 C   0  0  0  0  0  0  0  0  0  0  0  0
    2.3625   -0.2586   -0.7063 O   0  0  0  0  0  0  0  0  0  0  0  0
    0.3331   -1.4728   -3.0467 C   0  0  0  0  0  0  0  0  0  0  0  0
    2.6924    0.3404   -4.1502 H   0  0  0  0  0  0  0  0  0  0  0  0
    0.6550    0.6514   -3.2607 H   0  0  0  0  0  0  0  0  0  0  0  0
    0.8129   -2.3494   -2.5963 H   0  0  0  0  0  0  0  0  0  0  0  0
   -0.6690   -1.3857   -2.6142 H   0  0  0  0  0  0  0  0  0  0  0  0
    0.2259   -1.6670   -4.1194 H   0  0  0  0  0  0  0  0  0  0  0  0
    0.2019    0.5893   -0.7269 N   0  0  0  0  0  0  0  0  0  0  0  0
    0.1242    0.9059    0.6756 C   0  0  2  0  0  0  0  0  0  0  0  0
    0.3392   -0.3953    1.4423 C   0  0  0  0  0  0  0  0  0  0  0  0
   -0.3828   -0.7518    2.3712 O   0  0  0  0  0  0  0  0  0  0  0  0
   -1.2249    1.5291    1.0562 C   0  0  0  0  0  0  0  0  0  0  0  0
   -1.4941    2.9163    0.4383 C   0  0  0  0  0  0  0  0  0  0  0  0
   -2.9216    3.3606    0.7693 C   0  0  0  0  0  0  0  0  0  0  0  0
   -1.2890    2.9290   -1.0771 C   0  0  0  0  0  0  0  0  0  0  0  0
   -0.5975    0.8179   -1.3140 H   0  0  0  0  0  0  0  0  0  0  0  0
    0.9536    1.5854    0.8962 H   0  0  0  0  0  0  0  0  0  0  0  0
   -1.2795    1.6151    2.1505 H   0  0  0  0  0  0  0  0  0  0  0  0
   -2.0352    0.8455    0.7698 H   0  0  0  0  0  0  0  0  0  0  0  0
   -0.8090    3.6478    0.8840 H   0  0  0  0  0  0  0  0  0  0  0  0
   -3.6538    2.6639    0.3474 H   0  0  0  0  0  0  0  0  0  0  0  0
   -3.1273    4.3519    0.3517 H   0  0  0  0  0  0  0  0  0  0  0  0
   -3.0831    3.4079    1.8516 H   0  0  0  0  0  0  0  0  0  0  0  0
   -1.9524    2.2126   -1.5735 H   0  0  0  0  0  0  0  0  0  0  0  0
   -1.4971    3.9227   -1.4886 H   0  0  0  0  0  0  0  0  0  0  0  0
   -0.2572    2.6803   -1.3422 H   0  0  0  0  0  0  0  0  0  0  0  0
    1.3995   -1.1312    0.9318 N   0  0  0  0  0  0  0  0  0  0  0  0
    1.7991   -2.4161    1.4591 C   0  0  2  0  0  0  0  0  0  0  0  0
    0.5372   -3.1950    1.8062 C   0  0  0  0  0  0  0  0  0  0  0  0
   -0.5447   -2.6552    2.0274 O   0  0  0  0  0  0  0  0  0  0  0  0
    2.6940   -2.2597    2.6787 C   0  0  0  0  0  0  0  0  0  0  0  0
    1.9236   -0.7656    0.1423 H   0  0  0  0  0  0  0  0  0  0  0  0
    2.3391   -2.9326    0.6581 H   0  0  0  0  0  0  0  0  0  0  0  0
    2.1701   -1.7443    3.4919 H   0  0  0  0  0  0  0  0  0  0  0  0
    3.0190   -3.2334    3.0598 H   0  0  0  0  0  0  0  0  0  0  0  0
    3.5867   -1.6738    2.4345 H   0  0  0  0  0  0  0  0  0  0  0  0
    0.7714   -4.5609    1.8821 N   0  0  0  0  0  0  0  0  0  0  0  0
   -0.2648   -5.5126    2.2085 C   0  0  0  0  0  0  0  0  0  0  0  0
    1.6954   -4.9223    1.6645 H   0  0  0  0  0  0  0  0  0  0  0  0
   -0.2685   -5.6937    3.2935 H   0  0  0  0  0  0  0  0  0  0  0  0
   -1.2415   -5.1110    1.9007 H   0  0  0  0  0  0  0  0  0  0  0  0
   -0.0739   -6.4581    1.6797 H   0  0  0  0  0  0  0  0  0  0  0  0
  1  3  1  0  0  0  0
  1  7  1  0  0  0  0
  1  2  2  0  0  0  0
 37 38  1  0  0  0  0
 38 46  1  0  0  0  0
 38 39  2  0  0  0  0
  8  9  1  0  0  0  0
  9 17  1  0  0  0  0
  9 10  2  0  0  0  0
 18 19  1  0  0  0  0
 19 36  1  0  0  0  0
 19 20  2  0  0  0  0
 37 40  1  0  0  0  0
  8 11  1  0  0  0  0
 22 23  1  0  0  0  0
 22 24  1  0  0  0  0
 46 47  1  0  0  0  0
 18 21  1  0  0  0  0
 21 22  1  0  0  0  0
 36 37  1  0  0  0  0
  7  8  1  0  0  0  0
 17 18  1  0  0  0  0
  3  4  1  0  0  0  0
  3  5  1  0  0  0  0
  3  6  1  0  0  0  0
 40 43  1  0  0  0  0
 40 44  1  0  0  0  0
 40 45  1  0  0  0  0
 11 14  1  0  0  0  0
 11 15  1  0  0  0  0
 11 16  1  0  0  0  0
 23 30  1  0  0  0  0
 23 31  1  0  0  0  0
 23 32  1  0  0  0  0
 24 33  1  0  0  0  0
 24 34  1  0  0  0  0
 24 35  1  0  0  0  0
 47 49  1  0  0  0  0
 47 50  1  0  0  0  0
 47 51  1  0  0  0  0
 21 27  1  0  0  0  0
 21 28  1  0  0  0  0
 37 42  1  0  0  0  0
  8 13  1  0  0  0  0
 18 26  1  0  0  0  0
 22 29  1  0  0  0  0
 46 48  1  0  0  0  0
  7 12  1  0  0  0  0
 36 41  1  0  0  0  0
 17 25  1  0  0  0  0
M  END
$$$$

  -OEChem-05262214473D

 51 50  0     1  0  0  0  0  0999 V2000
    3.4018   -1.2440   -3.0186 C   0  0  0  0  0  0  0  0  0  0  0  0
    3.2697   -2.0909   -2.1427 O   0  0  0  0  0  0  0  0  0  0  0  0
    4.6845   -1.1645   -3.7779 C   0  0  0  0  0  0  0  0  0  0  0  0
    5.4123   -0.4862   -3.3041 H   0  0  0  0  0  0  0  0  0  0  0  0
    5.1949   -2.1387   -3.8443 H   0  0  0  0  0  0  0  0  0  0  0  0
    4.5953   -0.8128   -4.8182 H   0  0  0  0  0  0  0  0  0  0  0  0
    2.4540   -0.3103   -3.4040 N   0  0  0  0  0  0  0  0  0  0  0  0
    1.1494   -0.2128   -2.8039 C   0  0  2  0  0  0  0  0  0  0  0  0
    1.3350    0.0367   -1.3130 C   0  0  0  0  0  0  0  0  0  0  0  0
    2.3625   -0.2586   -0.7063 O   0  0  0  0  0  0  0  0  0  0  0  0
    0.3331   -1.4728   -3.0467 C   0  0  0  0  0  0  0  0  0  0  0  0
    2.6924    0.3404   -4.1502 H   0  0  0  0  0  0  0  0  0  0  0  0
    0.6550    0.6514   -3.2607 H   0  0  0  0  0  0  0  0  0  0  0  0
    0.8129   -2.3494   -2.5963 H   0  0  0  0  0  0  0  0  0  0  0  0
   -0.6690   -1.3857   -2.6142 H   0  0  0  0  0  0  0  0  0  0  0  0
    0.2259   -1.6670   -4.1194 H   0  0  0  0  0  0  0  0  0  0  0  0
    0.2019    0.5893   -0.7269 N   0  0  0  0  0  0  0  0  0  0  0  0
    0.1242    0.9059    0.6756 C   0  0  2  0  0  0  0  0  0  0  0  0
    0.3392   -0.3953    1.4423 C   0  0  0  0  0  0  0  0  0  0  0  0
   -0.5137   -0.8869    2.1786 O   0  0  0  0  0  0  0  0  0  0  0  0
   -1.2249    1.5291    1.0562 C   0  0  0  0  0  0  0  0  0  0  0  0
   -1.4941    2.9163    0.4383 C   0  0  0  0  0  0  0  0  0  0  0  0
   -2.9216    3.3606    0.7693 C   0  0  0  0  0  0  0  0  0  0  0  0
   -1.2890    2.9290   -1.0771 C   0  0  0  0  0  0  0  0  0  0  0  0
   -0.5975    0.8179   -1.3140 H   0  0  0  0  0  0  0  0  0  0  0  0
    0.9536    1.5854    0.8962 H   0  0  0  0  0  0  0  0  0  0  0  0
   -1.2795    1.6151    2.1505 H   0  0  0  0  0  0  0  0  0  0  0  0
   -2.0352    0.8455    0.7698 H   0  0  0  0  0  0  0  0  0  0  0  0
   -0.8090    3.6478    0.8840 H   0  0  0  0  0  0  0  0  0  0  0  0
   -3.6538    2.6639    0.3474 H   0  0  0  0  0  0  0  0  0  0  0  0
   -3.1273    4.3519    0.3517 H   0  0  0  0  0  0  0  0  0  0  0  0
   -3.0831    3.4079    1.8516 H   0  0  0  0  0  0  0  0  0  0  0  0
   -1.9524    2.2126   -1.5735 H   0  0  0  0  0  0  0  0  0  0  0  0
   -1.4971    3.9227   -1.4886 H   0  0  0  0  0  0  0  0  0  0  0  0
   -0.2572    2.6803   -1.3422 H   0  0  0  0  0  0  0  0  0  0  0  0
    1.5743   -0.9647    1.1654 N   0  0  0  0  0  0  0  0  0  0  0  0
    2.0178   -2.2143    1.7403 C   0  0  2  0  0  0  0  0  0  0  0  0
    0.8268   -3.1627    1.7799 C   0  0  0  0  0  0  0  0  0  0  0  0
   -0.3398   -2.7755    1.7658 O   0  0  0  0  0  0  0  0  0  0  0  0
    2.5956   -2.0089    3.1320 C   0  0  0  0  0  0  0  0  0  0  0  0
    2.2043   -0.4962    0.5210 H   0  0  0  0  0  0  0  0  0  0  0  0
    2.7840   -2.6170    1.0689 H   0  0  0  0  0  0  0  0  0  0  0  0
    1.8424   -1.6058    3.8188 H   0  0  0  0  0  0  0  0  0  0  0  0
    2.9572   -2.9521    3.5547 H   0  0  0  0  0  0  0  0  0  0  0  0
    3.4331   -1.3035    3.1061 H   0  0  0  0  0  0  0  0  0  0  0  0
    1.2199   -4.4902    1.8763 N   0  0  0  0  0  0  0  0  0  0  0  0
    0.2747   -5.5803    1.9423 C   0  0  0  0  0  0  0  0  0  0  0  0
    2.2090   -4.7208    1.8625 H   0  0  0  0  0  0  0  0  0  0  0  0
    0.0586   -5.8156    2.9949 H   0  0  0  0  0  0  0  0  0  0  0  0
   -0.6561   -5.2898    1.4331 H   0  0  0  0  0  0  0  0  0  0  0  0
    0.7015   -6.4660    1.4489 H   0  0  0  0  0  0  0  0  0  0  0  0
  1  3  1  0  0  0  0
  1  7  1  0  0  0  0
  1  2  2  0  0  0  0
 37 38  1  0  0  0  0
 38 46  1  0  0  0  0
 38 39  2  0  0  0  0
  8  9  1  0  0  0  0
  9 17  1  0  0  0  0
  9 10  2  0  0  0  0
 18 19  1  0  0  0  0
 19 36  1  0  0  0  0
 19 20  2  0  0  0  0
 37 40  1  0  0  0  0
  8 11  1  0  0  0  0
 22 23  1  0  0  0  0
 22 24  1  0  0  0  0
 46 47  1  0  0  0  0
 18 21  1  0  0  0  0
 21 22  1  0  0  0  0
 36 37  1  0  0  0  0
  7  8  1  0  0  0  0
 17 18  1  0  0  0  0
  3  4  1  0  0  0  0
  3  5  1  0  0  0  0
  3  6  1  0  0  0  0
 40 43  1  0  0  0  0
 40 44  1  0  0  0  0
 40 45  1  0  0  0  0
 11 14  1  0  0  0  0
 11 15  1  0  0  0  0
 11 16  1  0  0  0  0
 23 30  1  0  0  0  0
 23 31  1  0  0  0  0
 23 32  1  0  0  0  0
 24 33  1  0  0  0  0
 24 34  1  0  0  0  0
 24 35  1  0  0  0  0
 47 49  1  0  0  0  0
 47 50  1  0  0  0  0
 47 51  1  0  0  0  0
 21 27  1  0  0  0  0
 21 28  1  0  0  0  0
 37 42  1  0  0  0  0
  8 13  1  0  0  0  0
 18 26  1  0  0  0  0
 22 29  1  0  0  0  0
 46 48  1  0  0  0  0
  7 12  1  0  0  0  0
 36 41  1  0  0  0  0
 17 25  1  0  0  0  0
M  END
$$$$

  -OEChem-05262214473D

 51 50  0     1  0  0  0  0  0999 V2000
    3.4018   -1.2440   -3.0186 C   0  0  0  0  0  0  0  0  0  0  0  0
    3.2697   -2.0909   -2.1427 O   0  0  0  0  0  0  0  0  0  0  0  0
    4.6845   -1.1645   -3.7779 C   0  0  0  0  0  0  0  0  0  0  0  0
    5.4123   -0.4862   -3.3041 H   0  0  0  0  0  0  0  0  0  0  0  0
    5.1949   -2.1387   -3.8443 H   0  0  0  0  0  0  0  0  0  0  0  0
    4.5953   -0.8128   -4.8182 H   0  0  0  0  0  0  0  0  0  0  0  0
    2.4540   -0.3103   -3.4040 N   0  0  0  0  0  0  0  0  0  0  0  0
    1.1494   -0.2128   -2.8039 C   0  0  2  0  0  0  0  0  0  0  0  0
    1.3350    0.0367   -1.3130 C   0  0  0  0  0  0  0  0  0  0  0  0
    2.3625   -0.2586   -0.7063 O   0  0  0  0  0  0  0  0  0  0  0  0
    0.3331   -1.4728   -3.0467 C   0  0  0  0  0  0  0  0  0  0  0  0
    2.6924    0.3404   -4.1502 H   0  0  0  0  0  0  0  0  0  0  0  0
    0.6550    0.6514   -3.2607 H   0  0  0  0  0  0  0  0  0  0  0  0
    0.8129   -2.3494   -2.5963 H   0  0  0  0  0  0  0  0  0  0  0  0
   -0.6690   -1.3857   -2.6142 H   0  0  0  0  0  0  0  0  0  0  0  0
    0.2259   -1.6670   -4.1194 H   0  0  0  0  0  0  0  0  0  0  0  0
    0.2019    0.5893   -0.7269 N   0  0  0  0  0  0  0  0  0  0  0  0
    0.1242    0.9059    0.6756 C   0  0  2  0  0  0  0  0  0  0  0  0
    0.3392   -0.3953    1.4423 C   0  0  0  0  0  0  0  0  0  0  0  0
   -0.5800   -1.0274    1.9588 O   0  0  0  0  0  0  0  0  0  0  0  0
   -1.2249    1.5291    1.0562 C   0  0  0  0  0  0  0  0  0  0  0  0
   -1.4941    2.9163    0.4383 C   0  0  0  0  0  0  0  0  0  0  0  0
   -2.9216    3.3606    0.7693 C   0  0  0  0  0  0  0  0  0  0  0  0
   -1.2890    2.9290   -1.0771 C   0  0  0  0  0  0  0  0  0  0  0  0
   -0.5975    0.8179   -1.3140 H   0  0  0  0  0  0  0  0  0  0  0  0
    0.9536    1.5854    0.8962 H   0  0  0  0  0  0  0  0  0  0  0  0
   -1.2795    1.6151    2.1505 H   0  0  0  0  0  0  0  0  0  0  0  0
   -2.0352    0.8455    0.7698 H   0  0  0  0  0  0  0  0  0  0  0  0
   -0.8090    3.6478    0.8840 H   0  0  0  0  0  0  0  0  0  0  0  0
   -3.6538    2.6639    0.3474 H   0  0  0  0  0  0  0  0  0  0  0  0
   -3.1273    4.3519    0.3517 H   0  0  0  0  0  0  0  0  0  0  0  0
   -3.0831    3.4079    1.8516 H   0  0  0  0  0  0  0  0  0  0  0  0
   -1.9524    2.2126   -1.5735 H   0  0  0  0  0  0  0  0  0  0  0  0
   -1.4971    3.9227   -1.4886 H   0  0  0  0  0  0  0  0  0  0  0  0
   -0.2572    2.6803   -1.3422 H   0  0  0  0  0  0  0  0  0  0  0  0
    1.6699   -0.7896    1.4357 N   0  0  0  0  0  0  0  0  0  0  0  0
    2.1407   -2.0011    2.0676 C   0  0  2  0  0  0  0  0  0  0  0  0
    1.1082   -3.0928    1.8196 C   0  0  0  0  0  0  0  0  0  0  0  0
   -0.0684   -2.8554    1.5540 O   0  0  0  0  0  0  0  0  0  0  0  0
    2.3678   -1.7959    3.5572 C   0  0  0  0  0  0  0  0  0  0  0  0
    2.3567   -0.2132    0.9585 H   0  0  0  0  0  0  0  0  0  0  0  0
    3.0820   -2.2693    1.5755 H   0  0  0  0  0  0  0  0  0  0  0  0
    1.4357   -1.5265    4.0673 H   0  0  0  0  0  0  0  0  0  0  0  0
    2.7515   -2.7064    4.0292 H   0  0  0  0  0  0  0  0  0  0  0  0
    3.0884   -0.9902    3.7343 H   0  0  0  0  0  0  0  0  0  0  0  0
    1.6451   -4.3634    1.9722 N   0  0  0  0  0  0  0  0  0  0  0  0
    0.8634   -5.5658    1.8018 C   0  0  0  0  0  0  0  0  0  0  0  0
    2.6352   -4.4665    2.1745 H   0  0  0  0  0  0  0  0  0  0  0  0
    0.4562   -5.8800    2.7742 H   0  0  0  0  0  0  0  0  0  0  0  0
    0.0359   -5.3692    1.1042 H   0  0  0  0  0  0  0  0  0  0  0  0
    1.5025   -6.3643    1.3969 H   0  0  0  0  0  0  0  0  0  0  0  0
  1  3  1  0  0  0  0
  1  7  1  0  0  0  0
  1  2  2  0  0  0  0
 37 38  1  0  0  0  0
 38 46  1  0  0  0  0
 38 39  2  0  0  0  0
  8  9  1  0  0  0  0
  9 17  1  0  0  0  0
  9 10  2  0  0  0  0
 18 19  1  0  0  0  0
 19 36  1  0  0  0  0
 19 20  2  0  0  0  0
 37 40  1  0  0  0  0
  8 11  1  0  0  0  0
 22 23  1  0  0  0  0
 22 24  1  0  0  0  0
 46 47  1  0  0  0  0
 18 21  1  0  0  0  0
 21 22  1  0  0  0  0
 36 37  1  0  0  0  0
  7  8  1  0  0  0  0
 17 18  1  0  0  0  0
  3  4  1  0  0  0  0
  3  5  1  0  0  0  0
  3  6  1  0  0  0  0
 40 43  1  0  0  0  0
 40 44  1  0  0  0  0
 40 45  1  0  0  0  0
 11 14  1  0  0  0  0
 11 15  1  0  0  0  0
 11 16  1  0  0  0  0
 23 30  1  0  0  0  0
 23 31  1  0  0  0  0
 23 32  1  0  0  0  0
 24 33  1  0  0  0  0
 24 34  1  0  0  0  0
 24 35  1  0  0  0  0
 47 49  1  0  0  0  0
 47 50  1  0  0  0  0
 47 51  1  0  0  0  0
 21 27  1  0  0  0  0
 21 28  1  0  0  0  0
 37 42  1  0  0  0  0
  8 13  1  0  0  0  0
 18 26  1  0  0  0  0
 22 29  1  0  0  0  0
 46 48  1  0  0  0  0
  7 12  1  0  0  0  0
 36 41  1  0  0  0  0
 17 25  1  0  0  0  0
M  END
$$$$

  -OEChem-05262214473D

 51 50  0     1  0  0  0  0  0999 V2000
    3.4018   -1.2440   -3.0186 C   0  0  0  0  0  0  0  0  0  0  0  0
    3.2697   -2.0909   -2.1427 O   0  0  0  0  0  0  0  0  0  0  0  0
    4.6845   -1.1645   -3.7779 C   0  0  0  0  0  0  0  0  0  0  0  0
    5.4123   -0.4862   -3.3041 H   0  0  0  0  0  0  0  0  0  0  0  0
    5.1949   -2.1387   -3.8443 H   0  0  0  0  0  0  0  0  0  0  0  0
    4.5953   -0.8128   -4.8182 H   0  0  0  0  0  0  0  0  0  0  0  0
    2.4540   -0.3103   -3.4040 N   0  0  0  0  0  0  0  0  0  0  0  0
    1.1494   -0.2128   -2.8039 C   0  0  2  0  0  0  0  0  0  0  0  0
    1.3350    0.0367   -1.3130 C   0  0  0  0  0  0  0  0  0  0  0  0
    2.3625   -0.2586   -0.7063 O   0  0  0  0  0  0  0  0  0  0  0  0
    0.3331   -1.4728   -3.0467 C   0  0  0  0  0  0  0  0  0  0  0  0
    2.6924    0.3404   -4.1502 H   0  0  0  0  0  0  0  0  0  0  0  0
    0.6550    0.6514   -3.2607 H   0  0  0  0  0  0  0  0  0  0  0  0
    0.8129   -2.3494   -2.5963 H   0  0  0  0  0  0  0  0  0  0  0  0
   -0.6690   -1.3857   -2.6142 H   0  0  0  0  0  0  0  0  0  0  0  0
    0.2259   -1.6670   -4.1194 H   0  0  0  0  0  0  0  0  0  0  0  0
    0.2019    0.5893   -0.7269 N   0  0  0  0  0  0  0  0  0  0  0  0
    0.1242    0.9059    0.6756 C   0  0  2  0  0  0  0  0  0  0  0  0
    0.3392   -0.3953    1.4423 C   0  0  0  0  0  0  0  0  0  0  0  0
   -0.5773   -1.1637    1.7267 O   0  0  0  0  0  0  0  0  0  0  0  0
   -1.2249    1.5291    1.0562 C   0  0  0  0  0  0  0  0  0  0  0  0
   -1.4941    2.9163    0.4383 C   0  0  0  0  0  0  0  0  0  0  0  0
   -2.9216    3.3606    0.7693 C   0  0  0  0  0  0  0  0  0  0  0  0
   -1.2890    2.9290   -1.0771 C   0  0  0  0  0  0  0  0  0  0  0  0
   -0.5975    0.8179   -1.3140 H   0  0  0  0  0  0  0  0  0  0  0  0
    0.9536    1.5854    0.8962 H   0  0  0  0  0  0  0  0  0  0  0  0
   -1.2795    1.6151    2.1505 H   0  0  0  0  0  0  0  0  0  0  0  0
   -2.0352    0.8455    0.7698 H   0  0  0  0  0  0  0  0  0  0  0  0
   -0.8090    3.6478    0.8840 H   0  0  0  0  0  0  0  0  0  0  0  0
   -3.6538    2.6639    0.3474 H   0  0  0  0  0  0  0  0  0  0  0  0
   -3.1273    4.3519    0.3517 H   0  0  0  0  0  0  0  0  0  0  0  0
   -3.0831    3.4079    1.8516 H   0  0  0  0  0  0  0  0  0  0  0  0
   -1.9524    2.2126   -1.5735 H   0  0  0  0  0  0  0  0  0  0  0  0
   -1.4971    3.9227   -1.4886 H   0  0  0  0  0  0  0  0  0  0  0  0
   -0.2572    2.6803   -1.3422 H   0  0  0  0  0  0  0  0  0  0  0  0
    1.6798   -0.6180    1.7242 N   0  0  0  0  0  0  0  0  0  0  0  0
    2.1595   -1.7912    2.4186 C   0  0  2  0  0  0  0  0  0  0  0  0
    1.3620   -2.9901    1.9226 C   0  0  0  0  0  0  0  0  0  0  0  0
    0.2509   -2.8896    1.4064 O   0  0  0  0  0  0  0  0  0  0  0  0
    2.0261   -1.6354    3.9255 C   0  0  0  0  0  0  0  0  0  0  0  0
    2.3705    0.0640    1.4250 H   0  0  0  0  0  0  0  0  0  0  0  0
    3.2127   -1.9132    2.1432 H   0  0  0  0  0  0  0  0  0  0  0  0
    0.9777   -1.5120    4.2205 H   0  0  0  0  0  0  0  0  0  0  0  0
    2.4162   -2.5132    4.4512 H   0  0  0  0  0  0  0  0  0  0  0  0
    2.5759   -0.7554    4.2765 H   0  0  0  0  0  0  0  0  0  0  0  0
    2.0182   -4.1891    2.1634 N   0  0  0  0  0  0  0  0  0  0  0  0
    1.4611   -5.4702    1.7966 C   0  0  0  0  0  0  0  0  0  0  0  0
    2.9449   -4.1769    2.5792 H   0  0  0  0  0  0  0  0  0  0  0  0
    0.8974   -5.8823    2.6465 H   0  0  0  0  0  0  0  0  0  0  0  0
    0.7872   -5.3440    0.9364 H   0  0  0  0  0  0  0  0  0  0  0  0
    2.2745   -6.1600    1.5271 H   0  0  0  0  0  0  0  0  0  0  0  0
  1  3  1  0  0  0  0
  1  7  1  0  0  0  0
  1  2  2  0  0  0  0
 37 38  1  0  0  0  0
 38 46  1  0  0  0  0
 38 39  2  0  0  0  0
  8  9  1  0  0  0  0
  9 17  1  0  0  0  0
  9 10  2  0  0  0  0
 18 19  1  0  0  0  0
 19 36  1  0  0  0  0
 19 20  2  0  0  0  0
 37 40  1  0  0  0  0
  8 11  1  0  0  0  0
 22 23  1  0  0  0  0
 22 24  1  0  0  0  0
 46 47  1  0  0  0  0
 18 21  1  0  0  0  0
 21 22  1  0  0  0  0
 36 37  1  0  0  0  0
  7  8  1  0  0  0  0
 17 18  1  0  0  0  0
  3  4  1  0  0  0  0
  3  5  1  0  0  0  0
  3  6  1  0  0  0  0
 40 43  1  0  0  0  0
 40 44  1  0  0  0  0
 40 45  1  0  0  0  0
 11 14  1  0  0  0  0
 11 15  1  0  0  0  0
 11 16  1  0  0  0  0
 23 30  1  0  0  0  0
 23 31  1  0  0  0  0
 23 32  1  0  0  0  0
 24 33  1  0  0  0  0
 24 34  1  0  0  0  0
 24 35  1  0  0  0  0
 47 49  1  0  0  0  0
 47 50  1  0  0  0  0
 47 51  1  0  0  0  0
 21 27  1  0  0  0  0
 21 28  1  0  0  0  0
 37 42  1  0  0  0  0
  8 13  1  0  0  0  0
 18 26  1  0  0  0  0
 22 29  1  0  0  0  0
 46 48  1  0  0  0  0
  7 12  1  0  0  0  0
 36 41  1  0  0  0  0
 17 25  1  0  0  0  0
M  END
$$$$

  -OEChem-05262214473D

 51 50  0     1  0  0  0  0  0999 V2000
    3.4018   -1.2440   -3.0186 C   0  0  0  0  0  0  0  0  0  0  0  0
    3.2697   -2.0909   -2.1427 O   0  0  0  0  0  0  0  0  0  0  0  0
    4.6845   -1.1645   -3.7779 C   0  0  0  0  0  0  0  0  0  0  0  0
    5.4123   -0.4862   -3.3041 H   0  0  0  0  0  0  0  0  0  0  0  0
    5.1949   -2.1387   -3.8443 H   0  0  0  0  0  0  0  0  0  0  0  0
    4.5953   -0.8128   -4.8182 H   0  0  0  0  0  0  0  0  0  0  0  0
    2.4540   -0.3103   -3.4040 N   0  0  0  0  0  0  0  0  0  0  0  0
    1.1494   -0.2128   -2.8039 C   0  0  2  0  0  0  0  0  0  0  0  0
    1.3350    0.0367   -1.3130 C   0  0  0  0  0  0  0  0  0  0  0  0
    2.3625   -0.2586   -0.7063 O   0  0  0  0  0  0  0  0  0  0  0  0
    0.3331   -1.4728   -3.0467 C   0  0  0  0  0  0  0  0  0  0  0  0
    2.6924    0.3404   -4.1502 H   0  0  0  0  0  0  0  0  0  0  0  0
    0.6550    0.6514   -3.2607 H   0  0  0  0  0  0  0  0  0  0  0  0
    0.8129   -2.3494   -2.5963 H   0  0  0  0  0  0  0  0  0  0  0  0
   -0.6690   -1.3857   -2.6142 H   0  0  0  0  0  0  0  0  0  0  0  0
    0.2259   -1.6670   -4.1194 H   0  0  0  0  0  0  0  0  0  0  0  0
    0.2019    0.5893   -0.7269 N   0  0  0  0  0  0  0  0  0  0  0  0
    0.1242    0.9059    0.6756 C   0  0  2  0  0  0  0  0  0  0  0  0
    0.3392   -0.3953    1.4423 C   0  0  0  0  0  0  0  0  0  0  0  0
   -0.5057   -1.2866    1.4981 O   0  0  0  0  0  0  0  0  0  0  0  0
   -1.2249    1.5291    1.0562 C   0  0  0  0  0  0  0  0  0  0  0  0
   -1.4941    2.9163    0.4383 C   0  0  0  0  0  0  0  0  0  0  0  0
   -2.9216    3.3606    0.7693 C   0  0  0  0  0  0  0  0  0  0  0  0
   -1.2890    2.9290   -1.0771 C   0  0  0  0  0  0  0  0  0  0  0  0
   -0.5975    0.8179   -1.3140 H   0  0  0  0  0  0  0  0  0  0  0  0
    0.9536    1.5854    0.8962 H   0  0  0  0  0  0  0  0  0  0  0  0
   -1.2795    1.6151    2.1505 H   0  0  0  0  0  0  0  0  0  0  0  0
   -2.0352    0.8455    0.7698 H   0  0  0  0  0  0  0  0  0  0  0  0
   -0.8090    3.6478    0.8840 H   0  0  0  0  0  0  0  0  0  0  0  0
   -3.6538    2.6639    0.3474 H   0  0  0  0  0  0  0  0  0  0  0  0
   -3.1273    4.3519    0.3517 H   0  0  0  0  0  0  0  0  0  0  0  0
   -3.0831    3.4079    1.8516 H   0  0  0  0  0  0  0  0  0  0  0  0
   -1.9524    2.2126   -1.5735 H   0  0  0  0  0  0  0  0  0  0  0  0
   -1.4971    3.9227   -1.4886 H   0  0  0  0  0  0  0  0  0  0  0  0
   -0.2572    2.6803   -1.3422 H   0  0  0  0  0  0  0  0  0  0  0  0
    1.6034   -0.4614    2.0114 N   0  0  0  0  0  0  0  0  0  0  0  0
    2.0728   -1.5987    2.7695 C   0  0  2  0  0  0  0  0  0  0  0  0
    1.5712   -2.8617    2.0819 C   0  0  0  0  0  0  0  0  0  0  0  0
    0.5964   -2.8758    1.3331 O   0  0  0  0  0  0  0  0  0  0  0  0
    1.5940   -1.5382    4.2116 C   0  0  0  0  0  0  0  0  0  0  0  0
    2.2448    0.3166    1.8889 H   0  0  0  0  0  0  0  0  0  0  0  0
    3.1674   -1.5728    2.7335 H   0  0  0  0  0  0  0  0  0  0  0  0
    0.4996   -1.5631    4.2678 H   0  0  0  0  0  0  0  0  0  0  0  0
    1.9740   -2.3855    4.7918 H   0  0  0  0  0  0  0  0  0  0  0  0
    1.9307   -0.6151    4.6956 H   0  0  0  0  0  0  0  0  0  0  0  0
    2.3138   -3.9792    2.4368 N   0  0  0  0  0  0  0  0  0  0  0  0
    2.0272   -5.2998    1.9270 C   0  0  0  0  0  0  0  0  0  0  0  0
    3.1170   -3.8715    3.0491 H   0  0  0  0  0  0  0  0  0  0  0  0
    1.3520   -5.8226    2.6204 H   0  0  0  0  0  0  0  0  0  0  0  0
    1.5467   -5.2158    0.9410 H   0  0  0  0  0  0  0  0  0  0  0  0
    2.9648   -5.8670    1.8308 H   0  0  0  0  0  0  0  0  0  0  0  0
  1  3  1  0  0  0  0
  1  7  1  0  0  0  0
  1  2  2  0  0  0  0
 37 38  1  0  0  0  0
 38 46  1  0  0  0  0
 38 39  2  0  0  0  0
  8  9  1  0  0  0  0
  9 17  1  0  0  0  0
  9 10  2  0  0  0  0
 18 19  1  0  0  0  0
 19 36  1  0  0  0  0
 19 20  2  0  0  0  0
 37 40  1  0  0  0  0
  8 11  1  0  0  0  0
 22 23  1  0  0  0  0
 22 24  1  0  0  0  0
 46 47  1  0  0  0  0
 18 21  1  0  0  0  0
 21 22  1  0  0  0  0
 36 37  1  0  0  0  0
  7  8  1  0  0  0  0
 17 18  1  0  0  0  0
  3  4  1  0  0  0  0
  3  5  1  0  0  0  0
  3  6  1  0  0  0  0
 40 43  1  0  0  0  0
 40 44  1  0  0  0  0
 40 45  1  0  0  0  0
 11 14  1  0  0  0  0
 11 15  1  0  0  0  0
 11 16  1  0  0  0  0
 23 30  1  0  0  0  0
 23 31  1  0  0  0  0
 23 32  1  0  0  0  0
 24 33  1  0  0  0  0
 24 34  1  0  0  0  0
 24 35  1  0  0  0  0
 47 49  1  0  0  0  0
 47 50  1  0  0  0  0
 47 51  1  0  0  0  0
 21 27  1  0  0  0  0
 21 28  1  0  0  0  0
 37 42  1  0  0  0  0
  8 13  1  0  0  0  0
 18 26  1  0  0  0  0
 22 29  1  0  0  0  0
 46 48  1  0  0  0  0
  7 12  1  0  0  0  0
 36 41  1  0  0  0  0
 17 25  1  0  0  0  0
M  END
$$$$

  -OEChem-05262214473D

 51 50  0     1  0  0  0  0  0999 V2000
    3.4018   -1.2440   -3.0186 C   0  0  0  0  0  0  0  0  0  0  0  0
    3.2697   -2.0909   -2.1427 O   0  0  0  0  0  0  0  0  0  0  0  0
    4.6845   -1.1645   -3.7779 C   0  0  0  0  0  0  0  0  0  0  0  0
    5.4123   -0.4862   -3.3041 H   0  0  0  0  0  0  0  0  0  0  0  0
    5.1949   -2.1387   -3.8443 H   0  0  0  0  0  0  0  0  0  0  0  0
    4.5953   -0.8128   -4.8182 H   0  0  0  0  0  0  0  0  0  0  0  0
    2.4540   -0.3103   -3.4040 N   0  0  0  0  0  0  0  0  0  0  0  0
    1.1494   -0.2128   -2.8039 C   0  0  2  0  0  0  0  0  0  0  0  0
    1.3350    0.0367   -1.3130 C   0  0  0  0  0  0  0  0  0  0  0  0
    2.3625   -0.2586   -0.7063 O   0  0  0  0  0  0  0  0  0  0  0  0
    0.3331   -1.4728   -3.0467 C   0  0  0  0  0  0  0  0  0  0  0  0
    2.6924    0.3404   -4.1502 H   0  0  0  0  0  0  0  0  0  0  0  0
    0.6550    0.6514   -3.2607 H   0  0  0  0  0  0  0  0  0  0  0  0
    0.8129   -2.3494   -2.5963 H   0  0  0  0  0  0  0  0  0  0  0  0
   -0.6690   -1.3857   -2.6142 H   0  0  0  0  0  0  0  0  0  0  0  0
    0.2259   -1.6670   -4.1194 H   0  0  0  0  0  0  0  0  0  0  0  0
    0.2019    0.5893   -0.7269 N   0  0  0  0  0  0  0  0  0  0  0  0
    0.1242    0.9059    0.6756 C   0  0  2  0  0  0  0  0  0  0  0  0
    0.3392   -0.3953    1.4423 C   0  0  0  0  0  0  0  0  0  0  0  0
   -0.3701   -1.3876    1.2887 O   0  0  0  0  0  0  0  0  0  0  0  0
   -1.2249    1.5291    1.0562 C   0  0  0  0  0  0  0  0  0  0  0  0
   -1.4941    2.9163    0.4383 C   0  0  0  0  0  0  0  0  0  0  0  0
   -2.9216    3.3606    0.7693 C   0  0  0  0  0  0  0  0  0  0  0  0
   -1.2890    2.9290   -1.0771 C   0  0  0  0  0  0  0  0  0  0  0  0
   -0.5975    0.8179   -1.3140 H   0  0  0  0  0  0  0  0  0  0  0  0
    0.9536    1.5854    0.8962 H   0  0  0  0  0  0  0  0  0  0  0  0
   -1.2795    1.6151    2.1505 H   0  0  0  0  0  0  0  0  0  0  0  0
   -2.0352    0.8455    0.7698 H   0  0  0  0  0  0  0  0  0  0  0  0
   -0.8090    3.6478    0.8840 H   0  0  0  0  0  0  0  0  0  0  0  0
   -3.6538    2.6639    0.3474 H   0  0  0  0  0  0  0  0  0  0  0  0
   -3.1273    4.3519    0.3517 H   0  0  0  0  0  0  0  0  0  0  0  0
   -3.0831    3.4079    1.8516 H   0  0  0  0  0  0  0  0  0  0  0  0
   -1.9524    2.2126   -1.5735 H   0  0  0  0  0  0  0  0  0  0  0  0
   -1.4971    3.9227   -1.4886 H   0  0  0  0  0  0  0  0  0  0  0  0
   -0.2572    2.6803   -1.3422 H   0  0  0  0  0  0  0  0  0  0  0  0
    1.4458   -0.3306    2.2776 N   0  0  0  0  0  0  0  0  0  0  0  0
    1.8866   -1.4370    3.0963 C   0  0  2  0  0  0  0  0  0  0  0  0
    1.7213   -2.7163    2.2867 C   0  0  0  0  0  0  0  0  0  0  0  0
    0.9445   -2.8148    1.3391 O   0  0  0  0  0  0  0  0  0  0  0  0
    1.1007   -1.5110    4.3962 C   0  0  0  0  0  0  0  0  0  0  0  0
    1.9881    0.5272    2.3183 H   0  0  0  0  0  0  0  0  0  0  0  0
    2.9490   -1.2715    3.3061 H   0  0  0  0  0  0  0  0  0  0  0  0
    0.0340   -1.6764    4.2061 H   0  0  0  0  0  0  0  0  0  0  0  0
    1.4551   -2.3322    5.0278 H   0  0  0  0  0  0  0  0  0  0  0  0
    1.1967   -0.5787    4.9632 H   0  0  0  0  0  0  0  0  0  0  0  0
    2.5115   -3.7480    2.7738 N   0  0  0  0  0  0  0  0  0  0  0  0
    2.5231   -5.0663    2.1841 C   0  0  0  0  0  0  0  0  0  0  0  0
    3.1398   -3.5714    3.5521 H   0  0  0  0  0  0  0  0  0  0  0  0
    1.7892   -5.7048    2.6978 H   0  0  0  0  0  0  0  0  0  0  0  0
    2.2626   -4.9933    1.1179 H   0  0  0  0  0  0  0  0  0  0  0  0
    3.5264   -5.5052    2.2872 H   0  0  0  0  0  0  0  0  0  0  0  0
  1  3  1  0  0  0  0
  1  7  1  0  0  0  0
  1  2  2  0  0  0  0
 37 38  1  0  0  0  0
 38 46  1  0  0  0  0
 38 39  2  0  0  0  0
  8  9  1  0  0  0  0
  9 17  1  0  0  0  0
  9 10  2  0  0  0  0
 18 19  1  0  0  0  0
 19 36  1  0  0  0  0
 19 20  2  0  0  0  0
 37 40  1  0  0  0  0
  8 11  1  0  0  0  0
 22 23  1  0  0  0  0
 22 24  1  0  0  0  0
 46 47  1  0  0  0  0
 18 21  1  0  0  0  0
 21 22  1  0  0  0  0
 36 37  1  0  0  0  0
  7  8  1  0  0  0  0
 17 18  1  0  0  0  0
  3  4  1  0  0  0  0
  3  5  1  0  0  0  0
  3  6  1  0  0  0  0
 40 43  1  0  0  0  0
 40 44  1  0  0  0  0
 40 45  1  0  0  0  0
 11 14  1  0  0  0  0
 11 15  1  0  0  0  0
 11 16  1  0  0  0  0
 23 30  1  0  0  0  0
 23 31  1  0  0  0  0
 23 32  1  0  0  0  0
 24 33  1  0  0  0  0
 24 34  1  0  0  0  0
 24 35  1  0  0  0  0
 47 49  1  0  0  0  0
 47 50  1  0  0  0  0
 47 51  1  0  0  0  0
 21 27  1  0  0  0  0
 21 28  1  0  0  0  0
 37 42  1  0  0  0  0
  8 13  1  0  0  0  0
 18 26  1  0  0  0  0
 22 29  1  0  0  0  0
 46 48  1  0  0  0  0
  7 12  1  0  0  0  0
 36 41  1  0  0  0  0
 17 25  1  0  0  0  0
M  END
$$$$

  -OEChem-05262214473D

 51 50  0     1  0  0  0  0  0999 V2000
    3.4018   -1.2440   -3.0186 C   0  0  0  0  0  0  0  0  0  0  0  0
    3.2697   -2.0909   -2.1427 O   0  0  0  0  0  0  0  0  0  0  0  0
    4.6845   -1.1645   -3.7779 C   0  0  0  0  0  0  0  0  0  0  0  0
    5.4123   -0.4862   -3.3041 H   0  0  0  0  0  0  0  0  0  0  0  0
    5.1949   -2.1387   -3.8443 H   0  0  0  0  0  0  0  0  0  0  0  0
    4.5953   -0.8128   -4.8182 H   0  0  0  0  0  0  0  0  0  0  0  0
    2.4540   -0.3103   -3.4040 N   0  0  0  0  0  0  0  0  0  0  0  0
    1.1494   -0.2128   -2.8039 C   0  0  2  0  0  0  0  0  0  0  0  0
    1.3350    0.0367   -1.3130 C   0  0  0  0  0  0  0  0  0  0  0  0
    2.3625   -0.2586   -0.7063 O   0  0  0  0  0  0  0  0  0  0  0  0
    0.3331   -1.4728   -3.0467 C   0  0  0  0  0  0  0  0  0  0  0  0
    2.6924    0.3404   -4.1502 H   0  0  0  0  0  0  0  0  0  0  0  0
    0.6550    0.6514   -3.2607 H   0  0  0  0  0  0  0  0  0  0  0  0
    0.8129   -2.3494   -2.5963 H   0  0  0  0  0  0  0  0  0  0  0  0
   -0.6690   -1.3857   -2.6142 H   0  0  0  0  0  0  0  0  0  0  0  0
    0.2259   -1.6670   -4.1194 H   0  0  0  0  0  0  0  0  0  0  0  0
    0.2019    0.5893   -0.7269 N   0  0  0  0  0  0  0  0  0  0  0  0
    0.1242    0.9059    0.6756 C   0  0  2  0  0  0  0  0  0  0  0  0
    0.3392   -0.3953    1.4423 C   0  0  0  0  0  0  0  0  0  0  0  0
   -0.1797   -1.4599    1.1126 O   0  0  0  0  0  0  0  0  0  0  0  0
   -1.2249    1.5291    1.0562 C   0  0  0  0  0  0  0  0  0  0  0  0
   -1.4941    2.9163    0.4383 C   0  0  0  0  0  0  0  0  0  0  0  0
   -2.9216    3.3606    0.7693 C   0  0  0  0  0  0  0  0  0  0  0  0
   -1.2890    2.9290   -1.0771 C   0  0  0  0  0  0  0  0  0  0  0  0
   -0.5975    0.8179   -1.3140 H   0  0  0  0  0  0  0  0  0  0  0  0
    0.9536    1.5854    0.8962 H   0  0  0  0  0  0  0  0  0  0  0  0
   -1.2795    1.6151    2.1505 H   0  0  0  0  0  0  0  0  0  0  0  0
   -2.0352    0.8455    0.7698 H   0  0  0  0  0  0  0  0  0  0  0  0
   -0.8090    3.6478    0.8840 H   0  0  0  0  0  0  0  0  0  0  0  0
   -3.6538    2.6639    0.3474 H   0  0  0  0  0  0  0  0  0  0  0  0
   -3.1273    4.3519    0.3517 H   0  0  0  0  0  0  0  0  0  0  0  0
   -3.0831    3.4079    1.8516 H   0  0  0  0  0  0  0  0  0  0  0  0
   -1.9524    2.2126   -1.5735 H   0  0  0  0  0  0  0  0  0  0  0  0
   -1.4971    3.9227   -1.4886 H   0  0  0  0  0  0  0  0  0  0  0  0
   -0.2572    2.6803   -1.3422 H   0  0  0  0  0  0  0  0  0  0  0  0
    1.2178   -0.2344    2.5047 N   0  0  0  0  0  0  0  0  0  0  0  0
    1.6135   -1.3168    3.3767 C   0  0  2  0  0  0  0  0  0  0  0  0
    1.8022   -2.5637    2.5229 C   0  0  0  0  0  0  0  0  0  0  0  0
    1.2714   -2.7108    1.4239 O   0  0  0  0  0  0  0  0  0  0  0  0
    0.5800   -1.5555    4.4665 C   0  0  0  0  0  0  0  0  0  0  0  0
    1.6180    0.6816    2.6842 H   0  0  0  0  0  0  0  0  0  0  0  0
    2.5724   -1.0298    3.8219 H   0  0  0  0  0  0  0  0  0  0  0  0
   -0.3874   -1.8441    4.0396 H   0  0  0  0  0  0  0  0  0  0  0  0
    0.8948   -2.3568    5.1432 H   0  0  0  0  0  0  0  0  0  0  0  0
    0.4239   -0.6488    5.0609 H   0  0  0  0  0  0  0  0  0  0  0  0
    2.5981   -3.5112    3.1514 N   0  0  0  0  0  0  0  0  0  0  0  0
    2.9149   -4.7857    2.5505 C   0  0  0  0  0  0  0  0  0  0  0  0
    3.0118   -3.2968    4.0540 H   0  0  0  0  0  0  0  0  0  0  0  0
    2.1790   -5.5369    2.8733 H   0  0  0  0  0  0  0  0  0  0  0  0
    2.8862   -4.6917    1.4549 H   0  0  0  0  0  0  0  0  0  0  0  0
    3.9211   -5.0994    2.8653 H   0  0  0  0  0  0  0  0  0  0  0  0
  1  3  1  0  0  0  0
  1  7  1  0  0  0  0
  1  2  2  0  0  0  0
 37 38  1  0  0  0  0
 38 46  1  0  0  0  0
 38 39  2  0  0  0  0
  8  9  1  0  0  0  0
  9 17  1  0  0  0  0
  9 10  2  0  0  0  0
 18 19  1  0  0  0  0
 19 36  1  0  0  0  0
 19 20  2  0  0  0  0
 37 40  1  0  0  0  0
  8 11  1  0  0  0  0
 22 23  1  0  0  0  0
 22 24  1  0  0  0  0
 46 47  1  0  0  0  0
 18 21  1  0  0  0  0
 21 22  1  0  0  0  0
 36 37  1  0  0  0  0
  7  8  1  0  0  0  0
 17 18  1  0  0  0  0
  3  4  1  0  0  0  0
  3  5  1  0  0  0  0
  3  6  1  0  0  0  0
 40 43  1  0  0  0  0
 40 44  1  0  0  0  0
 40 45  1  0  0  0  0
 11 14  1  0  0  0  0
 11 15  1  0  0  0  0
 11 16  1  0  0  0  0
 23 30  1  0  0  0  0
 23 31  1  0  0  0  0
 23 32  1  0  0  0  0
 24 33  1  0  0  0  0
 24 34  1  0  0  0  0
 24 35  1  0  0  0  0
 47 49  1  0  0  0  0
 47 50  1  0  0  0  0
 47 51  1  0  0  0  0
 21 27  1  0  0  0  0
 21 28  1  0  0  0  0
 37 42  1  0  0  0  0
  8 13  1  0  0  0  0
 18 26  1  0  0  0  0
 22 29  1  0  0  0  0
 46 48  1  0  0  0  0
  7 12  1  0  0  0  0
 36 41  1  0  0  0  0
 17 25  1  0  0  0  0
M  END
$$$$

  -OEChem-05262214473D

 51 50  0     1  0  0  0  0  0999 V2000
    3.4018   -1.2440   -3.0186 C   0  0  0  0  0  0  0  0  0  0  0  0
    3.2697   -2.0909   -2.1427 O   0  0  0  0  0  0  0  0  0  0  0  0
    4.6845   -1.1645   -3.7779 C   0  0  0  0  0  0  0  0  0  0  0  0
    5.4123   -0.4862   -3.3041 H   0  0  0  0  0  0  0  0  0  0  0  0
    5.1949   -2.1387   -3.8443 H   0  0  0  0  0  0  0  0  0  0  0  0
    4.5953   -0.8128   -4.8182 H   0  0  0  0  0  0  0  0  0  0  0  0
    2.4540   -0.3103   -3.4040 N   0  0  0  0  0  0  0  0  0  0  0  0
    1.1494   -0.2128   -2.8039 C   0  0  2  0  0  0  0  0  0  0  0  0
    1.3350    0.0367   -1.3130 C   0  0  0  0  0  0  0  0  0  0  0  0
    2.3625   -0.2586   -0.7063 O   0  0  0  0  0  0  0  0  0  0  0  0
    0.3331   -1.4728   -3.0467 C   0  0  0  0  0  0  0  0  0  0  0  0
    2.6924    0.3404   -4.1502 H   0  0  0  0  0  0  0  0  0  0  0  0
    0.6550    0.6514   -3.2607 H   0  0  0  0  0  0  0  0  0  0  0  0
    0.8129   -2.3494   -2.5963 H   0  0  0  0  0  0  0  0  0  0  0  0
   -0.6690   -1.3857   -2.6142 H   0  0  0  0  0  0  0  0  0  0  0  0
    0.2259   -1.6670   -4.1194 H   0  0  0  0  0  0  0  0  0  0  0  0
    0.2019    0.5893   -0.7269 N   0  0  0  0  0  0  0  0  0  0  0  0
    0.1242    0.9059    0.6756 C   0  0  2  0  0  0  0  0  0  0  0  0
    0.3392   -0.3953    1.4423 C   0  0  0  0  0  0  0  0  0  0  0  0
    0.0524   -1.4985    0.9819 O   0  0  0  0  0  0  0  0  0  0  0  0
   -1.2249    1.5291    1.0562 C   0  0  0  0  0  0  0  0  0  0  0  0
   -1.4941    2.9163    0.4383 C   0  0  0  0  0  0  0  0  0  0  0  0
   -2.9216    3.3606    0.7693 C   0  0  0  0  0  0  0  0  0  0  0  0
   -1.2890    2.9290   -1.0771 C   0  0  0  0  0  0  0  0  0  0  0  0
   -0.5975    0.8179   -1.3140 H   0  0  0  0  0  0  0  0  0  0  0  0
    0.9536    1.5854    0.8962 H   0  0  0  0  0  0  0  0  0  0  0  0
   -1.2795    1.6151    2.1505 H   0  0  0  0  0  0  0  0  0  0  0  0
   -2.0352    0.8455    0.7698 H   0  0  0  0  0  0  0  0  0  0  0  0
   -0.8090    3.6478    0.8840 H   0  0  0  0  0  0  0  0  0  0  0  0
   -3.6538    2.6639    0.3474 H   0  0  0  0  0  0  0  0  0  0  0  0
   -3.1273    4.3519    0.3517 H   0  0  0  0  0  0  0  0  0  0  0  0
   -3.0831    3.4079    1.8516 H   0  0  0  0  0  0  0  0  0  0  0  0
   -1.9524    2.2126   -1.5735 H   0  0  0  0  0  0  0  0  0  0  0  0
   -1.4971    3.9227   -1.4886 H   0  0  0  0  0  0  0  0  0  0  0  0
   -0.2572    2.6803   -1.3422 H   0  0  0  0  0  0  0  0  0  0  0  0
    0.9349   -0.1795    2.6772 N   0  0  0  0  0  0  0  0  0  0  0  0
    1.2722   -1.2465    3.5917 C   0  0  2  0  0  0  0  0  0  0  0  0
    1.8083   -2.4145    2.7744 C   0  0  0  0  0  0  0  0  0  0  0  0
    1.5550   -2.5709    1.5818 O   0  0  0  0  0  0  0  0  0  0  0  0
    0.0673   -1.6689    4.4179 C   0  0  0  0  0  0  0  0  0  0  0  0
    1.1596    0.7693    2.9615 H   0  0  0  0  0  0  0  0  0  0  0  0
    2.0634   -0.8641    4.2458 H   0  0  0  0  0  0  0  0  0  0  0  0
   -0.7359   -2.0549    3.7796 H   0  0  0  0  0  0  0  0  0  0  0  0
    0.3314   -2.4576    5.1301 H   0  0  0  0  0  0  0  0  0  0  0  0
   -0.3351   -0.8206    4.9821 H   0  0  0  0  0  0  0  0  0  0  0  0
    2.5676   -3.2849    3.5439 N   0  0  0  0  0  0  0  0  0  0  0  0
    3.1760   -4.4771    3.0011 C   0  0  0  0  0  0  0  0  0  0  0  0
    2.7416   -3.0666    4.5205 H   0  0  0  0  0  0  0  0  0  0  0  0
    2.4950   -5.3305    3.1350 H   0  0  0  0  0  0  0  0  0  0  0  0
    3.3748   -4.3316    1.9290 H   0  0  0  0  0  0  0  0  0  0  0  0
    4.1220   -4.6771    3.5256 H   0  0  0  0  0  0  0  0  0  0  0  0
  1  3  1  0  0  0  0
  1  7  1  0  0  0  0
  1  2  2  0  0  0  0
 37 38  1  0  0  0  0
 38 46  1  0  0  0  0
 38 39  2  0  0  0  0
  8  9  1  0  0  0  0
  9 17  1  0  0  0  0
  9 10  2  0  0  0  0
 18 19  1  0  0  0  0
 19 36  1  0  0  0  0
 19 20  2  0  0  0  0
 37 40  1  0  0  0  0
  8 11  1  0  0  0  0
 22 23  1  0  0  0  0
 22 24  1  0  0  0  0
 46 47  1  0  0  0  0
 18 21  1  0  0  0  0
 21 22  1  0  0  0  0
 36 37  1  0  0  0  0
  7  8  1  0  0  0  0
 17 18  1  0  0  0  0
  3  4  1  0  0  0  0
  3  5  1  0  0  0  0
  3  6  1  0  0  0  0
 40 43  1  0  0  0  0
 40 44  1  0  0  0  0
 40 45  1  0  0  0  0
 11 14  1  0  0  0  0
 11 15  1  0  0  0  0
 11 16  1  0  0  0  0
 23 30  1  0  0  0  0
 23 31  1  0  0  0  0
 23 32  1  0  0  0  0
 24 33  1  0  0  0  0
 24 34  1  0  0  0  0
 24 35  1  0  0  0  0
 47 49  1  0  0  0  0
 47 50  1  0  0  0  0
 47 51  1  0  0  0  0
 21 27  1  0  0  0  0
 21 28  1  0  0  0  0
 37 42  1  0  0  0  0
  8 13  1  0  0  0  0
 18 26  1  0  0  0  0
 22 29  1  0  0  0  0
 46 48  1  0  0  0  0
  7 12  1  0  0  0  0
 36 41  1  0  0  0  0
 17 25  1  0  0  0  0
M  END
$$$$

  -OEChem-05262214473D

 51 50  0     1  0  0  0  0  0999 V2000
    3.4018   -1.2440   -3.0186 C   0  0  0  0  0  0  0  0  0  0  0  0
    3.2697   -2.0909   -2.1427 O   0  0  0  0  0  0  0  0  0  0  0  0
    4.6845   -1.1645   -3.7779 C   0  0  0  0  0  0  0  0  0  0  0  0
    5.4123   -0.4862   -3.3041 H   0  0  0  0  0  0  0  0  0  0  0  0
    5.1949   -2.1387   -3.8443 H   0  0  0  0  0  0  0  0  0  0  0  0
    4.5953   -0.8128   -4.8182 H   0  0  0  0  0  0  0  0  0  0  0  0
    2.4540   -0.3103   -3.4040 N   0  0  0  0  0  0  0  0  0  0  0  0
    1.1494   -0.2128   -2.8039 C   0  0  2  0  0  0  0  0  0  0  0  0
    1.3350    0.0367   -1.3130 C   0  0  0  0  0  0  0  0  0  0  0  0
    2.3625   -0.2586   -0.7063 O   0  0  0  0  0  0  0  0  0  0  0  0
    0.3331   -1.4728   -3.0467 C   0  0  0  0  0  0  0  0  0  0  0  0
    2.6924    0.3404   -4.1502 H   0  0  0  0  0  0  0  0  0  0  0  0
    0.6550    0.6514   -3.2607 H   0  0  0  0  0  0  0  0  0  0  0  0
    0.8129   -2.3494   -2.5963 H   0  0  0  0  0  0  0  0  0  0  0  0
   -0.6690   -1.3857   -2.6142 H   0  0  0  0  0  0  0  0  0  0  0  0
    0.2259   -1.6670   -4.1194 H   0  0  0  0  0  0  0  0  0  0  0  0
    0.2019    0.5893   -0.7269 N   0  0  0  0  0  0  0  0  0  0  0  0
    0.1242    0.9059    0.6756 C   0  0  2  0  0  0  0  0  0  0  0  0
    0.3392   -0.3953    1.4423 C   0  0  0  0  0  0  0  0  0  0  0  0
    0.3106   -1.5009    0.9056 O   0  0  0  0  0  0  0  0  0  0  0  0
   -1.2249    1.5291    1.0562 C   0  0  0  0  0  0  0  0  0  0  0  0
   -1.4941    2.9163    0.4383 C   0  0  0  0  0  0  0  0  0  0  0  0
   -2.9216    3.3606    0.7693 C   0  0  0  0  0  0  0  0  0  0  0  0
   -1.2890    2.9290   -1.0771 C   0  0  0  0  0  0  0  0  0  0  0  0
   -0.5975    0.8179   -1.3140 H   0  0  0  0  0  0  0  0  0  0  0  0
    0.9536    1.5854    0.8962 H   0  0  0  0  0  0  0  0  0  0  0  0
   -1.2795    1.6151    2.1505 H   0  0  0  0  0  0  0  0  0  0  0  0
   -2.0352    0.8455    0.7698 H   0  0  0  0  0  0  0  0  0  0  0  0
   -0.8090    3.6478    0.8840 H   0  0  0  0  0  0  0  0  0  0  0  0
   -3.6538    2.6639    0.3474 H   0  0  0  0  0  0  0  0  0  0  0  0
   -3.1273    4.3519    0.3517 H   0  0  0  0  0  0  0  0  0  0  0  0
   -3.0831    3.4079    1.8516 H   0  0  0  0  0  0  0  0  0  0  0  0
   -1.9524    2.2126   -1.5735 H   0  0  0  0  0  0  0  0  0  0  0  0
   -1.4971    3.9227   -1.4886 H   0  0  0  0  0  0  0  0  0  0  0  0
   -0.2572    2.6803   -1.3422 H   0  0  0  0  0  0  0  0  0  0  0  0
    0.6164   -0.1695    2.7834 N   0  0  0  0  0  0  0  0  0  0  0  0
    0.8860   -1.2309    3.7266 C   0  0  2  0  0  0  0  0  0  0  0  0
    1.7393   -2.2787    3.0242 C   0  0  0  0  0  0  0  0  0  0  0  0
    1.7758   -2.4046    1.8020 O   0  0  0  0  0  0  0  0  0  0  0  0
   -0.4024   -1.8433    4.2536 C   0  0  0  0  0  0  0  0  0  0  0  0
    0.6442    0.7843    3.1314 H   0  0  0  0  0  0  0  0  0  0  0  0
    1.4566   -0.7857    4.5490 H   0  0  0  0  0  0  0  0  0  0  0  0
   -0.9877   -2.2943    3.4439 H   0  0  0  0  0  0  0  0  0  0  0  0
   -0.1969   -2.6278    4.9893 H   0  0  0  0  0  0  0  0  0  0  0  0
   -1.0284   -1.0825    4.7322 H   0  0  0  0  0  0  0  0  0  0  0  0
    2.4220   -3.0847    3.9245 N   0  0  0  0  0  0  0  0  0  0  0  0
    3.2886   -4.1614    3.5053 C   0  0  0  0  0  0  0  0  0  0  0  0
    2.3476   -2.8964    4.9198 H   0  0  0  0  0  0  0  0  0  0  0  0
    2.7156   -5.0995    3.4652 H   0  0  0  0  0  0  0  0  0  0  0  0
    3.6953   -3.9374    2.5081 H   0  0  0  0  0  0  0  0  0  0  0  0
    4.1153   -4.2672    4.2231 H   0  0  0  0  0  0  0  0  0  0  0  0
  1  3  1  0  0  0  0
  1  7  1  0  0  0  0
  1  2  2  0  0  0  0
 37 38  1  0  0  0  0
 38 46  1  0  0  0  0
 38 39  2  0  0  0  0
  8  9  1  0  0  0  0
  9 17  1  0  0  0  0
  9 10  2  0  0  0  0
 18 19  1  0  0  0  0
 19 36  1  0  0  0  0
 19 20  2  0  0  0  0
 37 40  1  0  0  0  0
  8 11  1  0  0  0  0
 22 23  1  0  0  0  0
 22 24  1  0  0  0  0
 46 47  1  0  0  0  0
 18 21  1  0  0  0  0
 21 22  1  0  0  0  0
 36 37  1  0  0  0  0
  7  8  1  0  0  0  0
 17 18  1  0  0  0  0
  3  4  1  0  0  0  0
  3  5  1  0  0  0  0
  3  6  1  0  0  0  0
 40 43  1  0  0  0  0
 40 44  1  0  0  0  0
 40 45  1  0  0  0  0
 11 14  1  0  0  0  0
 11 15  1  0  0  0  0
 11 16  1  0  0  0  0
 23 30  1  0  0  0  0
 23 31  1  0  0  0  0
 23 32  1  0  0  0  0
 24 33  1  0  0  0  0
 24 34  1  0  0  0  0
 24 35  1  0  0  0  0
 47 49  1  0  0  0  0
 47 50  1  0  0  0  0
 47 51  1  0  0  0  0
 21 27  1  0  0  0  0
 21 28  1  0  0  0  0
 37 42  1  0  0  0  0
  8 13  1  0  0  0  0
 18 26  1  0  0  0  0
 22 29  1  0  0  0  0
 46 48  1  0  0  0  0
  7 12  1  0  0  0  0
 36 41  1  0  0  0  0
 17 25  1  0  0  0  0
M  END
$$$$

  -OEChem-05262214473D

 51 50  0     1  0  0  0  0  0999 V2000
    3.4018   -1.2440   -3.0186 C   0  0  0  0  0  0  0  0  0  0  0  0
    3.2697   -2.0909   -2.1427 O   0  0  0  0  0  0  0  0  0  0  0  0
    4.6845   -1.1645   -3.7779 C   0  0  0  0  0  0  0  0  0  0  0  0
    5.4123   -0.4862   -3.3041 H   0  0  0  0  0  0  0  0  0  0  0  0
    5.1949   -2.1387   -3.8443 H   0  0  0  0  0  0  0  0  0  0  0  0
    4.5953   -0.8128   -4.8182 H   0  0  0  0  0  0  0  0  0  0  0  0
    2.4540   -0.3103   -3.4040 N   0  0  0  0  0  0  0  0  0  0  0  0
    1.1494   -0.2128   -2.8039 C   0  0  2  0  0  0  0  0  0  0  0  0
    1.3350    0.0367   -1.3130 C   0  0  0  0  0  0  0  0  0  0  0  0
    2.3625   -0.2586   -0.7063 O   0  0  0  0  0  0  0  0  0  0  0  0
    0.3331   -1.4728   -3.0467 C   0  0  0  0  0  0  0  0  0  0  0  0
    2.6924    0.3404   -4.1502 H   0  0  0  0  0  0  0  0  0  0  0  0
    0.6550    0.6514   -3.2607 H   0  0  0  0  0  0  0  0  0  0  0  0
    0.8129   -2.3494   -2.5963 H   0  0  0  0  0  0  0  0  0  0  0  0
   -0.6690   -1.3857   -2.6142 H   0  0  0  0  0  0  0  0  0  0  0  0
    0.2259   -1.6670   -4.1194 H   0  0  0  0  0  0  0  0  0  0  0  0
    0.2019    0.5893   -0.7269 N   0  0  0  0  0  0  0  0  0  0  0  0
    0.1242    0.9059    0.6756 C   0  0  2  0  0  0  0  0  0  0  0  0
    0.7027   -0.2827    1.4370 C   0  0  0  0  0  0  0  0  0  0  0  0
    1.1725   -1.2713    0.8775 O   0  0  0  0  0  0  0  0  0  0  0  0
   -1.3155    1.1774    1.1306 C   0  0  0  0  0  0  0  0  0  0  0  0
   -1.9598    2.4388    0.5203 C   0  0  0  0  0  0  0  0  0  0  0  0
   -3.4327    2.5164    0.9315 C   0  0  0  0  0  0  0  0  0  0  0  0
   -1.8485    2.4704   -1.0046 C   0  0  0  0  0  0  0  0  0  0  0  0
   -0.5975    0.8179   -1.3140 H   0  0  0  0  0  0  0  0  0  0  0  0
    0.7660    1.7768    0.8426 H   0  0  0  0  0  0  0  0  0  0  0  0
   -1.3296    1.2702    2.2256 H   0  0  0  0  0  0  0  0  0  0  0  0
   -1.9414    0.3060    0.8968 H   0  0  0  0  0  0  0  0  0  0  0  0
   -1.4581    3.3285    0.9201 H   0  0  0  0  0  0  0  0  0  0  0  0
   -3.9874    1.6491    0.5580 H   0  0  0  0  0  0  0  0  0  0  0  0
   -3.9048    3.4149    0.5202 H   0  0  0  0  0  0  0  0  0  0  0  0
   -3.5410    2.5445    2.0212 H   0  0  0  0  0  0  0  0  0  0  0  0
   -2.3358    1.5998   -1.4564 H   0  0  0  0  0  0  0  0  0  0  0  0
   -2.3231    3.3707   -1.4097 H   0  0  0  0  0  0  0  0  0  0  0  0
   -0.8035    2.4838   -1.3281 H   0  0  0  0  0  0  0  0  0  0  0  0
    0.6771   -0.0834    2.8104 N   0  0  0  0  0  0  0  0  0  0  0  0
    1.1892   -1.0446    3.7604 C   0  0  2  0  0  0  0  0  0  0  0  0
    2.4675   -1.6397    3.1846 C   0  0  0  0  0  0  0  0  0  0  0  0
    2.7249   -1.6405    1.9826 O   0  0  0  0  0  0  0  0  0  0  0  0
    0.1672   -2.1320    4.0530 C   0  0  0  0  0  0  0  0  0  0  0  0
    0.2912    0.7803    3.1801 H   0  0  0  0  0  0  0  0  0  0  0  0
    1.4237   -0.4905    4.6758 H   0  0  0  0  0  0  0  0  0  0  0  0
   -0.0803   -2.6981    3.1475 H   0  0  0  0  0  0  0  0  0  0  0  0
    0.5459   -2.8434    4.7943 H   0  0  0  0  0  0  0  0  0  0  0  0
   -0.7623   -1.6996    4.4390 H   0  0  0  0  0  0  0  0  0  0  0  0
    3.2668   -2.2083    4.1664 N   0  0  0  0  0  0  0  0  0  0  0  0
    4.5272   -2.8489    3.8714 C   0  0  0  0  0  0  0  0  0  0  0  0
    2.9839   -2.1448    5.1399 H   0  0  0  0  0  0  0  0  0  0  0  0
    4.3643   -3.9255    3.7155 H   0  0  0  0  0  0  0  0  0  0  0  0
    4.9582   -2.4077    2.9605 H   0  0  0  0  0  0  0  0  0  0  0  0
    5.2195   -2.7010    4.7133 H   0  0  0  0  0  0  0  0  0  0  0  0
  1  3  1  0  0  0  0
  1  7  1  0  0  0  0
  1  2  2  0  0  0  0
 37 38  1  0  0  0  0
 38 46  1  0  0  0  0
 38 39  2  0  0  0  0
  8  9  1  0  0  0  0
  9 17  1  0  0  0  0
  9 10  2  0  0  0  0
 18 19  1  0  0  0  0
 19 36  1  0  0  0  0
 19 20  2  0  0  0  0
 37 40  1  0  0  0  0
  8 11  1  0  0  0  0
 22 23  1  0  0  0  0
 22 24  1  0  0  0  0
 46 47  1  0  0  0  0
 18 21  1  0  0  0  0
 21 22  1  0  0  0  0
 36 37  1  0  0  0  0
  7  8  1  0  0  0  0
 17 18  1  0  0  0  0
  3  4  1  0  0  0  0
  3  5  1  0  0  0  0
  3  6  1  0  0  0  0
 40 43  1  0  0  0  0
 40 44  1  0  0  0  0
 40 45  1  0  0  0  0
 11 14  1  0  0  0  0
 11 15  1  0  0  0  0
 11 16  1  0  0  0  0
 23 30  1  0  0  0  0
 23 31  1  0  0  0  0
 23 32  1  0  0  0  0
 24 33  1  0  0  0  0
 24 34  1  0  0  0  0
 24 35  1  0  0  0  0
 47 49  1  0  0  0  0
 47 50  1  0  0  0  0
 47 51  1  0  0  0  0
 21 27  1  0  0  0  0
 21 28  1  0  0  0  0
 37 42  1  0  0  0  0
  8 13  1  0  0  0  0
 18 26  1  0  0  0  0
 22 29  1  0  0  0  0
 46 48  1  0  0  0  0
  7 12  1  0  0  0  0
 36 41  1  0  0  0  0
 17 25  1  0  0  0  0
M  END
$$$$

  -OEChem-05262214473D

 51 50  0     1  0  0  0  0  0999 V2000
    3.4018   -1.2440   -3.0186 C   0  0  0  0  0  0  0  0  0  0  0  0
    3.2697   -2.0909   -2.1427 O   0  0  0  0  0  0  0  0  0  0  0  0
    4.6845   -1.1645   -3.7779 C   0  0  0  0  0  0  0  0  0  0  0  0
    5.4123   -0.4862   -3.3041 H   0  0  0  0  0  0  0  0  0  0  0  0
    5.1949   -2.1387   -3.8443 H   0  0  0  0  0  0  0  0  0  0  0  0
    4.5953   -0.8128   -4.8182 H   0  0  0  0  0  0  0  0  0  0  0  0
    2.4540   -0.3103   -3.4040 N   0  0  0  0  0  0  0  0  0  0  0  0
    1.1494   -0.2128   -2.8039 C   0  0  2  0  0  0  0  0  0  0  0  0
    1.3350    0.0367   -1.3130 C   0  0  0  0  0  0  0  0  0  0  0  0
    2.3625   -0.2586   -0.7063 O   0  0  0  0  0  0  0  0  0  0  0  0
    0.3331   -1.4728   -3.0467 C   0  0  0  0  0  0  0  0  0  0  0  0
    2.6924    0.3404   -4.1502 H   0  0  0  0  0  0  0  0  0  0  0  0
    0.6550    0.6514   -3.2607 H   0  0  0  0  0  0  0  0  0  0  0  0
    0.8129   -2.3494   -2.5963 H   0  0  0  0  0  0  0  0  0  0  0  0
   -0.6690   -1.3857   -2.6142 H   0  0  0  0  0  0  0  0  0  0  0  0
    0.2259   -1.6670   -4.1194 H   0  0  0  0  0  0  0  0  0  0  0  0
    0.2019    0.5893   -0.7269 N   0  0  0  0  0  0  0  0  0  0  0  0
    0.1242    0.9059    0.6756 C   0  0  2  0  0  0  0  0  0  0  0  0
    0.7027   -0.2827    1.4370 C   0  0  0  0  0  0  0  0  0  0  0  0
    1.4057   -1.1398    0.9057 O   0  0  0  0  0  0  0  0  0  0  0  0
   -1.3155    1.1774    1.1306 C   0  0  0  0  0  0  0  0  0  0  0  0
   -1.9598    2.4388    0.5203 C   0  0  0  0  0  0  0  0  0  0  0  0
   -3.4327    2.5164    0.9315 C   0  0  0  0  0  0  0  0  0  0  0  0
   -1.8485    2.4704   -1.0046 C   0  0  0  0  0  0  0  0  0  0  0  0
   -0.5975    0.8179   -1.3140 H   0  0  0  0  0  0  0  0  0  0  0  0
    0.7660    1.7768    0.8426 H   0  0  0  0  0  0  0  0  0  0  0  0
   -1.3296    1.2702    2.2256 H   0  0  0  0  0  0  0  0  0  0  0  0
   -1.9414    0.3060    0.8968 H   0  0  0  0  0  0  0  0  0  0  0  0
   -1.4581    3.3285    0.9201 H   0  0  0  0  0  0  0  0  0  0  0  0
   -3.9874    1.6491    0.5580 H   0  0  0  0  0  0  0  0  0  0  0  0
   -3.9048    3.4149    0.5202 H   0  0  0  0  0  0  0  0  0  0  0  0
   -3.5410    2.5445    2.0212 H   0  0  0  0  0  0  0  0  0  0  0  0
   -2.3358    1.5998   -1.4564 H   0  0  0  0  0  0  0  0  0  0  0  0
   -2.3231    3.3707   -1.4097 H   0  0  0  0  0  0  0  0  0  0  0  0
   -0.8035    2.4838   -1.3281 H   0  0  0  0  0  0  0  0  0  0  0  0
    0.3820   -0.2422    2.7868 N   0  0  0  0  0  0  0  0  0  0  0  0
    0.8276   -1.2353    3.7375 C   0  0  2  0  0  0  0  0  0  0  0  0
    2.2638   -1.6060    3.3920 C   0  0  0  0  0  0  0  0  0  0  0  0
    2.7485   -1.4422    2.2742 O   0  0  0  0  0  0  0  0  0  0  0  0
   -0.0704   -2.4625    3.7176 C   0  0  0  0  0  0  0  0  0  0  0  0
   -0.1850    0.5229    3.1401 H   0  0  0  0  0  0  0  0  0  0  0  0
    0.7994   -0.7626    4.7253 H   0  0  0  0  0  0  0  0  0  0  0  0
   -0.0550   -2.9495    2.7358 H   0  0  0  0  0  0  0  0  0  0  0  0
    0.2517   -3.2018    4.4584 H   0  0  0  0  0  0  0  0  0  0  0  0
   -1.1082   -2.1896    3.9371 H   0  0  0  0  0  0  0  0  0  0  0  0
    2.9274   -2.1811    4.4667 N   0  0  0  0  0  0  0  0  0  0  0  0
    4.2978   -2.6301    4.3871 C   0  0  0  0  0  0  0  0  0  0  0  0
    2.4538   -2.2606    5.3618 H   0  0  0  0  0  0  0  0  0  0  0  0
    4.3200   -3.6944    4.1099 H   0  0  0  0  0  0  0  0  0  0  0  0
    4.8326   -2.0421    3.6267 H   0  0  0  0  0  0  0  0  0  0  0  0
    4.7849   -2.4956    5.3642 H   0  0  0  0  0  0  0  0  0  0  0  0
  1  3  1  0  0  0  0
  1  7  1  0  0  0  0
  1  2  2  0  0  0  0
 37 38  1  0  0  0  0
 38 46  1  0  0  0  0
 38 39  2  0  0  0  0
  8  9  1  0  0  0  0
  9 17  1  0  0  0  0
  9 10  2  0  0  0  0
 18 19  1  0  0  0  0
 19 36  1  0  0  0  0
 19 20  2  0  0  0  0
 37 40  1  0  0  0  0
  8 11  1  0  0  0  0
 22 23  1  0  0  0  0
 22 24  1  0  0  0  0
 46 47  1  0  0  0  0
 18 21  1  0  0  0  0
 21 22  1  0  0  0  0
 36 37  1  0  0  0  0
  7  8  1  0  0  0  0
 17 18  1  0  0  0  0
  3  4  1  0  0  0  0
  3  5  1  0  0  0  0
  3  6  1  0  0  0  0
 40 43  1  0  0  0  0
 40 44  1  0  0  0  0
 40 45  1  0  0  0  0
 11 14  1  0  0  0  0
 11 15  1  0  0  0  0
 11 16  1  0  0  0  0
 23 30  1  0  0  0  0
 23 31  1  0  0  0  0
 23 32  1  0  0  0  0
 24 33  1  0  0  0  0
 24 34  1  0  0  0  0
 24 35  1  0  0  0  0
 47 49  1  0  0  0  0
 47 50  1  0  0  0  0
 47 51  1  0  0  0  0
 21 27  1  0  0  0  0
 21 28  1  0  0  0  0
 37 42  1  0  0  0  0
  8 13  1  0  0  0  0
 18 26  1  0  0  0  0
 22 29  1  0  0  0  0
 46 48  1  0  0  0  0
  7 12  1  0  0  0  0
 36 41  1  0  0  0  0
 17 25  1  0  0  0  0
M  END
$$$$

  -OEChem-05262214473D

 51 50  0     1  0  0  0  0  0999 V2000
    3.4018   -1.2440   -3.0186 C   0  0  0  0  0  0  0  0  0  0  0  0
    3.2697   -2.0909   -2.1427 O   0  0  0  0  0  0  0  0  0  0  0  0
    4.6845   -1.1645   -3.7779 C   0  0  0  0  0  0  0  0  0  0  0  0
    5.4123   -0.4862   -3.3041 H   0  0  0  0  0  0  0  0  0  0  0  0
    5.1949   -2.1387   -3.8443 H   0  0  0  0  0  0  0  0  0  0  0  0
    4.5953   -0.8128   -4.8182 H   0  0  0  0  0  0  0  0  0  0  0  0
    2.4540   -0.3103   -3.4040 N   0  0  0  0  0  0  0  0  0  0  0  0
    1.1494   -0.2128   -2.8039 C   0  0  2  0  0  0  0  0  0  0  0  0
    1.3350    0.0367   -1.3130 C   0  0  0  0  0  0  0  0  0  0  0  0
    2.3625   -0.2586   -0.7063 O   0  0  0  0  0  0  0  0  0  0  0  0
    0.3331   -1.4728   -3.0467 C   0  0  0  0  0  0  0  0  0  0  0  0
    2.6924    0.3404   -4.1502 H   0  0  0  0  0  0  0  0  0  0  0  0
    0.6550    0.6514   -3.2607 H   0  0  0  0  0  0  0  0  0  0  0  0
    0.8129   -2.3494   -2.5963 H   0  0  0  0  0  0  0  0  0  0  0  0
   -0.6690   -1.3857   -2.6142 H   0  0  0  0  0  0  0  0  0  0  0  0
    0.2259   -1.6670   -4.1194 H   0  0  0  0  0  0  0  0  0  0  0  0
    0.2019    0.5893   -0.7269 N   0  0  0  0  0  0  0  0  0  0  0  0
    0.1242    0.9059    0.6756 C   0  0  2  0  0  0  0  0  0  0  0  0
    0.7027   -0.2827    1.4370 C   0  0  0  0  0  0  0  0  0  0  0  0
    1.6083   -0.9854    0.9928 O   0  0  0  0  0  0  0  0  0  0  0  0
   -1.3155    1.1774    1.1306 C   0  0  0  0  0  0  0  0  0  0  0  0
   -1.9598    2.4388    0.5203 C   0  0  0  0  0  0  0  0  0  0  0  0
   -3.4327    2.5164    0.9315 C   0  0  0  0  0  0  0  0  0  0  0  0
   -1.8485    2.4704   -1.0046 C   0  0  0  0  0  0  0  0  0  0  0  0
   -0.5975    0.8179   -1.3140 H   0  0  0  0  0  0  0  0  0  0  0  0
    0.7660    1.7768    0.8426 H   0  0  0  0  0  0  0  0  0  0  0  0
   -1.3296    1.2702    2.2256 H   0  0  0  0  0  0  0  0  0  0  0  0
   -1.9414    0.3060    0.8968 H   0  0  0  0  0  0  0  0  0  0  0  0
   -1.4581    3.3285    0.9201 H   0  0  0  0  0  0  0  0  0  0  0  0
   -3.9874    1.6491    0.5580 H   0  0  0  0  0  0  0  0  0  0  0  0
   -3.9048    3.4149    0.5202 H   0  0  0  0  0  0  0  0  0  0  0  0
   -3.5410    2.5445    2.0212 H   0  0  0  0  0  0  0  0  0  0  0  0
   -2.3358    1.5998   -1.4564 H   0  0  0  0  0  0  0  0  0  0  0  0
   -2.3231    3.3707   -1.4097 H   0  0  0  0  0  0  0  0  0  0  0  0
   -0.8035    2.4838   -1.3281 H   0  0  0  0  0  0  0  0  0  0  0  0
    0.1222   -0.4313    2.6890 N   0  0  0  0  0  0  0  0  0  0  0  0
    0.5076   -1.4639    3.6238 C   0  0  2  0  0  0  0  0  0  0  0  0
    2.0209   -1.6201    3.5545 C   0  0  0  0  0  0  0  0  0  0  0  0
    2.6868   -1.2762    2.5801 O   0  0  0  0  0  0  0  0  0  0  0  0
   -0.1894   -2.7794    3.3133 C   0  0  0  0  0  0  0  0  0  0  0  0
   -0.6038    0.2166    2.9802 H   0  0  0  0  0  0  0  0  0  0  0  0
    0.2215   -1.1110    4.6206 H   0  0  0  0  0  0  0  0  0  0  0  0
    0.0849   -3.1488    2.3184 H   0  0  0  0  0  0  0  0  0  0  0  0
    0.0815   -3.5530    4.0394 H   0  0  0  0  0  0  0  0  0  0  0  0
   -1.2779   -2.6582    3.3344 H   0  0  0  0  0  0  0  0  0  0  0  0
    2.5354   -2.2282    4.6910 N   0  0  0  0  0  0  0  0  0  0  0  0
    3.9439   -2.4991    4.8605 C   0  0  0  0  0  0  0  0  0  0  0  0
    1.9120   -2.4627    5.4579 H   0  0  0  0  0  0  0  0  0  0  0  0
    4.1678   -3.5156    4.5047 H   0  0  0  0  0  0  0  0  0  0  0  0
    4.5296   -1.7705    4.2808 H   0  0  0  0  0  0  0  0  0  0  0  0
    4.2074   -2.4172    5.9253 H   0  0  0  0  0  0  0  0  0  0  0  0
  1  3  1  0  0  0  0
  1  7  1  0  0  0  0
  1  2  2  0  0  0  0
 37 38  1  0  0  0  0
 38 46  1  0  0  0  0
 38 39  2  0  0  0  0
  8  9  1  0  0  0  0
  9 17  1  0  0  0  0
  9 10  2  0  0  0  0
 18 19  1  0  0  0  0
 19 36  1  0  0  0  0
 19 20  2  0  0  0  0
 37 40  1  0  0  0  0
  8 11  1  0  0  0  0
 22 23  1  0  0  0  0
 22 24  1  0  0  0  0
 46 47  1  0  0  0  0
 18 21  1  0  0  0  0
 21 22  1  0  0  0  0
 36 37  1  0  0  0  0
  7  8  1  0  0  0  0
 17 18  1  0  0  0  0
  3  4  1  0  0  0  0
  3  5  1  0  0  0  0
  3  6  1  0  0  0  0
 40 43  1  0  0  0  0
 40 44  1  0  0  0  0
 40 45  1  0  0  0  0
 11 14  1  0  0  0  0
 11 15  1  0  0  0  0
 11 16  1  0  0  0  0
 23 30  1  0  0  0  0
 23 31  1  0  0  0  0
 23 32  1  0  0  0  0
 24 33  1  0  0  0  0
 24 34  1  0  0  0  0
 24 35  1  0  0  0  0
 47 49  1  0  0  0  0
 47 50  1  0  0  0  0
 47 51  1  0  0  0  0
 21 27  1  0  0  0  0
 21 28  1  0  0  0  0
 37 42  1  0  0  0  0
  8 13  1  0  0  0  0
 18 26  1  0  0  0  0
 22 29  1  0  0  0  0
 46 48  1  0  0  0  0
  7 12  1  0  0  0  0
 36 41  1  0  0  0  0
 17 25  1  0  0  0  0
M  END
$$$$

  -OEChem-05262214473D

 51 50  0     1  0  0  0  0  0999 V2000
    3.4018   -1.2440   -3.0186 C   0  0  0  0  0  0  0  0  0  0  0  0
    3.2697   -2.0909   -2.1427 O   0  0  0  0  0  0  0  0  0  0  0  0
    4.6845   -1.1645   -3.7779 C   0  0  0  0  0  0  0  0  0  0  0  0
    5.4123   -0.4862   -3.3041 H   0  0  0  0  0  0  0  0  0  0  0  0
    5.1949   -2.1387   -3.8443 H   0  0  0  0  0  0  0  0  0  0  0  0
    4.5953   -0.8128   -4.8182 H   0  0  0  0  0  0  0  0  0  0  0  0
    2.4540   -0.3103   -3.4040 N   0  0  0  0  0  0  0  0  0  0  0  0
    1.1494   -0.2128   -2.8039 C   0  0  2  0  0  0  0  0  0  0  0  0
    1.3350    0.0367   -1.3130 C   0  0  0  0  0  0  0  0  0  0  0  0
    2.3625   -0.2586   -0.7063 O   0  0  0  0  0  0  0  0  0  0  0  0
    0.3331   -1.4728   -3.0467 C   0  0  0  0  0  0  0  0  0  0  0  0
    2.6924    0.3404   -4.1502 H   0  0  0  0  0  0  0  0  0  0  0  0
    0.6550    0.6514   -3.2607 H   0  0  0  0  0  0  0  0  0  0  0  0
    0.8129   -2.3494   -2.5963 H   0  0  0  0  0  0  0  0  0  0  0  0
   -0.6690   -1.3857   -2.6142 H   0  0  0  0  0  0  0  0  0  0  0  0
    0.2259   -1.6670   -4.1194 H   0  0  0  0  0  0  0  0  0  0  0  0
    0.2019    0.5893   -0.7269 N   0  0  0  0  0  0  0  0  0  0  0  0
    0.1242    0.9059    0.6756 C   0  0  2  0  0  0  0  0  0  0  0  0
    0.7027   -0.2827    1.4370 C   0  0  0  0  0  0  0  0  0  0  0  0
    1.7664   -0.8186    1.1330 O   0  0  0  0  0  0  0  0  0  0  0  0
   -1.3155    1.1774    1.1306 C   0  0  0  0  0  0  0  0  0  0  0  0
   -1.9598    2.4388    0.5203 C   0  0  0  0  0  0  0  0  0  0  0  0
   -3.4327    2.5164    0.9315 C   0  0  0  0  0  0  0  0  0  0  0  0
   -1.8485    2.4704   -1.0046 C   0  0  0  0  0  0  0  0  0  0  0  0
   -0.5975    0.8179   -1.3140 H   0  0  0  0  0  0  0  0  0  0  0  0
    0.7660    1.7768    0.8426 H   0  0  0  0  0  0  0  0  0  0  0  0
   -1.3296    1.2702    2.2256 H   0  0  0  0  0  0  0  0  0  0  0  0
   -1.9414    0.3060    0.8968 H   0  0  0  0  0  0  0  0  0  0  0  0
   -1.4581    3.3285    0.9201 H   0  0  0  0  0  0  0  0  0  0  0  0
   -3.9874    1.6491    0.5580 H   0  0  0  0  0  0  0  0  0  0  0  0
   -3.9048    3.4149    0.5202 H   0  0  0  0  0  0  0  0  0  0  0  0
   -3.5410    2.5445    2.0212 H   0  0  0  0  0  0  0  0  0  0  0  0
   -2.3358    1.5998   -1.4564 H   0  0  0  0  0  0  0  0  0  0  0  0
   -2.3231    3.3707   -1.4097 H   0  0  0  0  0  0  0  0  0  0  0  0
   -0.8035    2.4838   -1.3281 H   0  0  0  0  0  0  0  0  0  0  0  0
   -0.0846   -0.6379    2.5236 N   0  0  0  0  0  0  0  0  0  0  0  0
    0.2509   -1.7150    3.4269 C   0  0  2  0  0  0  0  0  0  0  0  0
    1.7554   -1.6811    3.6611 C   0  0  0  0  0  0  0  0  0  0  0  0
    2.5442   -1.1539    2.8794 O   0  0  0  0  0  0  0  0  0  0  0  0
   -0.1820   -3.0613    2.8677 C   0  0  0  0  0  0  0  0  0  0  0  0
   -0.9364   -0.1176    2.7112 H   0  0  0  0  0  0  0  0  0  0  0  0
   -0.2706   -1.5118    4.3687 H   0  0  0  0  0  0  0  0  0  0  0  0
    0.3300   -3.2822    1.9240 H   0  0  0  0  0  0  0  0  0  0  0  0
    0.0471   -3.8731    3.5659 H   0  0  0  0  0  0  0  0  0  0  0  0
   -1.2597   -3.0737    2.6720 H   0  0  0  0  0  0  0  0  0  0  0  0
    2.1177   -2.3463    4.8240 N   0  0  0  0  0  0  0  0  0  0  0  0
    3.4897   -2.4647    5.2593 C   0  0  0  0  0  0  0  0  0  0  0  0
    1.3954   -2.7374    5.4216 H   0  0  0  0  0  0  0  0  0  0  0  0
    3.9180   -3.4013    4.8729 H   0  0  0  0  0  0  0  0  0  0  0  0
    4.0701   -1.6115    4.8781 H   0  0  0  0  0  0  0  0  0  0  0  0
    3.5262   -2.4711    6.3586 H   0  0  0  0  0  0  0  0  0  0  0  0
  1  3  1  0  0  0  0
  1  7  1  0  0  0  0
  1  2  2  0  0  0  0
 37 38  1  0  0  0  0
 38 46  1  0  0  0  0
 38 39  2  0  0  0  0
  8  9  1  0  0  0  0
  9 17  1  0  0  0  0
  9 10  2  0  0  0  0
 18 19  1  0  0  0  0
 19 36  1  0  0  0  0
 19 20  2  0  0  0  0
 37 40  1  0  0  0  0
  8 11  1  0  0  0  0
 22 23  1  0  0  0  0
 22 24  1  0  0  0  0
 46 47  1  0  0  0  0
 18 21  1  0  0  0  0
 21 22  1  0  0  0  0
 36 37  1  0  0  0  0
  7  8  1  0  0  0  0
 17 18  1  0  0  0  0
  3  4  1  0  0  0  0
  3  5  1  0  0  0  0
  3  6  1  0  0  0  0
 40 43  1  0  0  0  0
 40 44  1  0  0  0  0
 40 45  1  0  0  0  0
 11 14  1  0  0  0  0
 11 15  1  0  0  0  0
 11 16  1  0  0  0  0
 23 30  1  0  0  0  0
 23 31  1  0  0  0  0
 23 32  1  0  0  0  0
 24 33  1  0  0  0  0
 24 34  1  0  0  0  0
 24 35  1  0  0  0  0
 47 49  1  0  0  0  0
 47 50  1  0  0  0  0
 47 51  1  0  0  0  0
 21 27  1  0  0  0  0
 21 28  1  0  0  0  0
 37 42  1  0  0  0  0
  8 13  1  0  0  0  0
 18 26  1  0  0  0  0
 22 29  1  0  0  0  0
 46 48  1  0  0  0  0
  7 12  1  0  0  0  0
 36 41  1  0  0  0  0
 17 25  1  0  0  0  0
M  END
$$$$

  -OEChem-05262214473D

 51 50  0     1  0  0  0  0  0999 V2000
    3.4018   -1.2440   -3.0186 C   0  0  0  0  0  0  0  0  0  0  0  0
    3.2697   -2.0909   -2.1427 O   0  0  0  0  0  0  0  0  0  0  0  0
    4.6845   -1.1645   -3.7779 C   0  0  0  0  0  0  0  0  0  0  0  0
    5.4123   -0.4862   -3.3041 H   0  0  0  0  0  0  0  0  0  0  0  0
    5.1949   -2.1387   -3.8443 H   0  0  0  0  0  0  0  0  0  0  0  0
    4.5953   -0.8128   -4.8182 H   0  0  0  0  0  0  0  0  0  0  0  0
    2.4540   -0.3103   -3.4040 N   0  0  0  0  0  0  0  0  0  0  0  0
    1.1494   -0.2128   -2.8039 C   0  0  2  0  0  0  0  0  0  0  0  0
    1.3350    0.0367   -1.3130 C   0  0  0  0  0  0  0  0  0  0  0  0
    2.3625   -0.2586   -0.7063 O   0  0  0  0  0  0  0  0  0  0  0  0
    0.3331   -1.4728   -3.0467 C   0  0  0  0  0  0  0  0  0  0  0  0
    2.6924    0.3404   -4.1502 H   0  0  0  0  0  0  0  0  0  0  0  0
    0.6550    0.6514   -3.2607 H   0  0  0  0  0  0  0  0  0  0  0  0
    0.8129   -2.3494   -2.5963 H   0  0  0  0  0  0  0  0  0  0  0  0
   -0.6690   -1.3857   -2.6142 H   0  0  0  0  0  0  0  0  0  0  0  0
    0.2259   -1.6670   -4.1194 H   0  0  0  0  0  0  0  0  0  0  0  0
    0.2019    0.5893   -0.7269 N   0  0  0  0  0  0  0  0  0  0  0  0
    0.1242    0.9059    0.6756 C   0  0  2  0  0  0  0  0  0  0  0  0
    0.7027   -0.2827    1.4370 C   0  0  0  0  0  0  0  0  0  0  0  0
    1.8693   -0.6509    1.3166 O   0  0  0  0  0  0  0  0  0  0  0  0
   -1.3155    1.1774    1.1306 C   0  0  0  0  0  0  0  0  0  0  0  0
   -1.9598    2.4388    0.5203 C   0  0  0  0  0  0  0  0  0  0  0  0
   -3.4327    2.5164    0.9315 C   0  0  0  0  0  0  0  0  0  0  0  0
   -1.8485    2.4704   -1.0046 C   0  0  0  0  0  0  0  0  0  0  0  0
   -0.5975    0.8179   -1.3140 H   0  0  0  0  0  0  0  0  0  0  0  0
    0.7660    1.7768    0.8426 H   0  0  0  0  0  0  0  0  0  0  0  0
   -1.3296    1.2702    2.2256 H   0  0  0  0  0  0  0  0  0  0  0  0
   -1.9414    0.3060    0.8968 H   0  0  0  0  0  0  0  0  0  0  0  0
   -1.4581    3.3285    0.9201 H   0  0  0  0  0  0  0  0  0  0  0  0
   -3.9874    1.6491    0.5580 H   0  0  0  0  0  0  0  0  0  0  0  0
   -3.9048    3.4149    0.5202 H   0  0  0  0  0  0  0  0  0  0  0  0
   -3.5410    2.5445    2.0212 H   0  0  0  0  0  0  0  0  0  0  0  0
   -2.3358    1.5998   -1.4564 H   0  0  0  0  0  0  0  0  0  0  0  0
   -2.3231    3.3707   -1.4097 H   0  0  0  0  0  0  0  0  0  0  0  0
   -0.8035    2.4838   -1.3281 H   0  0  0  0  0  0  0  0  0  0  0  0
   -0.2242   -0.8480    2.3018 N   0  0  0  0  0  0  0  0  0  0  0  0
    0.0751   -1.9713    3.1604 C   0  0  2  0  0  0  0  0  0  0  0  0
    1.4852   -1.7847    3.7045 C   0  0  0  0  0  0  0  0  0  0  0  0
    2.3302   -1.0836    3.1518 O   0  0  0  0  0  0  0  0  0  0  0  0
   -0.0485   -3.2888    2.4111 C   0  0  0  0  0  0  0  0  0  0  0  0
   -1.1603   -0.4570    2.3515 H   0  0  0  0  0  0  0  0  0  0  0  0
   -0.6433   -1.9379    3.9868 H   0  0  0  0  0  0  0  0  0  0  0  0
    0.6635   -3.3407    1.5794 H   0  0  0  0  0  0  0  0  0  0  0  0
    0.1506   -4.1403    3.0702 H   0  0  0  0  0  0  0  0  0  0  0  0
   -1.0548   -3.4077    1.9951 H   0  0  0  0  0  0  0  0  0  0  0  0
    1.7026   -2.5275    4.8566 N   0  0  0  0  0  0  0  0  0  0  0  0
    2.9661   -2.5293    5.5562 C   0  0  0  0  0  0  0  0  0  0  0  0
    0.9392   -3.0659    5.2554 H   0  0  0  0  0  0  0  0  0  0  0  0
    3.5878   -3.3593    5.1893 H   0  0  0  0  0  0  0  0  0  0  0  0
    3.4852   -1.5759    5.3780 H   0  0  0  0  0  0  0  0  0  0  0  0
    2.7878   -2.6537    6.6345 H   0  0  0  0  0  0  0  0  0  0  0  0
  1  3  1  0  0  0  0
  1  7  1  0  0  0  0
  1  2  2  0  0  0  0
 37 38  1  0  0  0  0
 38 46  1  0  0  0  0
 38 39  2  0  0  0  0
  8  9  1  0  0  0  0
  9 17  1  0  0  0  0
  9 10  2  0  0  0  0
 18 19  1  0  0  0  0
 19 36  1  0  0  0  0
 19 20  2  0  0  0  0
 37 40  1  0  0  0  0
  8 11  1  0  0  0  0
 22 23  1  0  0  0  0
 22 24  1  0  0  0  0
 46 47  1  0  0  0  0
 18 21  1  0  0  0  0
 21 22  1  0  0  0  0
 36 37  1  0  0  0  0
  7  8  1  0  0  0  0
 17 18  1  0  0  0  0
  3  4  1  0  0  0  0
  3  5  1  0  0  0  0
  3  6  1  0  0  0  0
 40 43  1  0  0  0  0
 40 44  1  0  0  0  0
 40 45  1  0  0  0  0
 11 14  1  0  0  0  0
 11 15  1  0  0  0  0
 11 16  1  0  0  0  0
 23 30  1  0  0  0  0
 23 31  1  0  0  0  0
 23 32  1  0  0  0  0
 24 33  1  0  0  0  0
 24 34  1  0  0  0  0
 24 35  1  0  0  0  0
 47 49  1  0  0  0  0
 47 50  1  0  0  0  0
 47 51  1  0  0  0  0
 21 27  1  0  0  0  0
 21 28  1  0  0  0  0
 37 42  1  0  0  0  0
  8 13  1  0  0  0  0
 18 26  1  0  0  0  0
 22 29  1  0  0  0  0
 46 48  1  0  0  0  0
  7 12  1  0  0  0  0
 36 41  1  0  0  0  0
 17 25  1  0  0  0  0
M  END
$$$$

  -OEChem-05262214473D

 51 50  0     1  0  0  0  0  0999 V2000
    3.4018   -1.2440   -3.0186 C   0  0  0  0  0  0  0  0  0  0  0  0
    3.2697   -2.0909   -2.1427 O   0  0  0  0  0  0  0  0  0  0  0  0
    4.6845   -1.1645   -3.7779 C   0  0  0  0  0  0  0  0  0  0  0  0
    5.4123   -0.4862   -3.3041 H   0  0  0  0  0  0  0  0  0  0  0  0
    5.1949   -2.1387   -3.8443 H   0  0  0  0  0  0  0  0  0  0  0  0
    4.5953   -0.8128   -4.8182 H   0  0  0  0  0  0  0  0  0  0  0  0
    2.4540   -0.3103   -3.4040 N   0  0  0  0  0  0  0  0  0  0  0  0
    1.1494   -0.2128   -2.8039 C   0  0  2  0  0  0  0  0  0  0  0  0
    1.3350    0.0367   -1.3130 C   0  0  0  0  0  0  0  0  0  0  0  0
    2.3625   -0.2586   -0.7063 O   0  0  0  0  0  0  0  0  0  0  0  0
    0.3331   -1.4728   -3.0467 C   0  0  0  0  0  0  0  0  0  0  0  0
    2.6924    0.3404   -4.1502 H   0  0  0  0  0  0  0  0  0  0  0  0
    0.6550    0.6514   -3.2607 H   0  0  0  0  0  0  0  0  0  0  0  0
    0.8129   -2.3494   -2.5963 H   0  0  0  0  0  0  0  0  0  0  0  0
   -0.6690   -1.3857   -2.6142 H   0  0  0  0  0  0  0  0  0  0  0  0
    0.2259   -1.6670   -4.1194 H   0  0  0  0  0  0  0  0  0  0  0  0
    0.2019    0.5893   -0.7269 N   0  0  0  0  0  0  0  0  0  0  0  0
    0.1242    0.9059    0.6756 C   0  0  2  0  0  0  0  0  0  0  0  0
    0.7027   -0.2827    1.4370 C   0  0  0  0  0  0  0  0  0  0  0  0
    1.9101   -0.4936    1.5313 O   0  0  0  0  0  0  0  0  0  0  0  0
   -1.3155    1.1774    1.1306 C   0  0  0  0  0  0  0  0  0  0  0  0
   -1.9598    2.4388    0.5203 C   0  0  0  0  0  0  0  0  0  0  0  0
   -3.4327    2.5164    0.9315 C   0  0  0  0  0  0  0  0  0  0  0  0
   -1.8485    2.4704   -1.0046 C   0  0  0  0  0  0  0  0  0  0  0  0
   -0.5975    0.8179   -1.3140 H   0  0  0  0  0  0  0  0  0  0  0  0
    0.7660    1.7768    0.8426 H   0  0  0  0  0  0  0  0  0  0  0  0
   -1.3296    1.2702    2.2256 H   0  0  0  0  0  0  0  0  0  0  0  0
   -1.9414    0.3060    0.8968 H   0  0  0  0  0  0  0  0  0  0  0  0
   -1.4581    3.3285    0.9201 H   0  0  0  0  0  0  0  0  0  0  0  0
   -3.9874    1.6491    0.5580 H   0  0  0  0  0  0  0  0  0  0  0  0
   -3.9048    3.4149    0.5202 H   0  0  0  0  0  0  0  0  0  0  0  0
   -3.5410    2.5445    2.0212 H   0  0  0  0  0  0  0  0  0  0  0  0
   -2.3358    1.5998   -1.4564 H   0  0  0  0  0  0  0  0  0  0  0  0
   -2.3231    3.3707   -1.4097 H   0  0  0  0  0  0  0  0  0  0  0  0
   -0.8035    2.4838   -1.3281 H   0  0  0  0  0  0  0  0  0  0  0  0
   -0.2873   -1.0471    2.0388 N   0  0  0  0  0  0  0  0  0  0  0  0
   -0.0079   -2.2154    2.8424 C   0  0  2  0  0  0  0  0  0  0  0  0
    1.2289   -1.9240    3.6819 C   0  0  0  0  0  0  0  0  0  0  0  0
    2.0595   -1.0700    3.3786 O   0  0  0  0  0  0  0  0  0  0  0  0
    0.2018   -3.4466    1.9746 C   0  0  0  0  0  0  0  0  0  0  0  0
   -1.2602   -0.7785    1.9256 H   0  0  0  0  0  0  0  0  0  0  0  0
   -0.8713   -2.3601    3.5009 H   0  0  0  0  0  0  0  0  0  0  0  0
    1.0627   -3.3202    1.3079 H   0  0  0  0  0  0  0  0  0  0  0  0
    0.3851   -4.3363    2.5860 H   0  0  0  0  0  0  0  0  0  0  0  0
   -0.6773   -3.6373    1.3497 H   0  0  0  0  0  0  0  0  0  0  0  0
    1.3185   -2.7592    4.7866 N   0  0  0  0  0  0  0  0  0  0  0  0
    2.4088   -2.6885    5.7311 C   0  0  0  0  0  0  0  0  0  0  0  0
    0.5745   -3.4258    4.9707 H   0  0  0  0  0  0  0  0  0  0  0  0
    3.1996   -3.3924    5.4325 H   0  0  0  0  0  0  0  0  0  0  0  0
    2.8148   -1.6662    5.7464 H   0  0  0  0  0  0  0  0  0  0  0  0
    2.0426   -2.9526    6.7342 H   0  0  0  0  0  0  0  0  0  0  0  0
  1  3  1  0  0  0  0
  1  7  1  0  0  0  0
  1  2  2  0  0  0  0
 37 38  1  0  0  0  0
 38 46  1  0  0  0  0
 38 39  2  0  0  0  0
  8  9  1  0  0  0  0
  9 17  1  0  0  0  0
  9 10  2  0  0  0  0
 18 19  1  0  0  0  0
 19 36  1  0  0  0  0
 19 20  2  0  0  0  0
 37 40  1  0  0  0  0
  8 11  1  0  0  0  0
 22 23  1  0  0  0  0
 22 24  1  0  0  0  0
 46 47  1  0  0  0  0
 18 21  1  0  0  0  0
 21 22  1  0  0  0  0
 36 37  1  0  0  0  0
  7  8  1  0  0  0  0
 17 18  1  0  0  0  0
  3  4  1  0  0  0  0
  3  5  1  0  0  0  0
  3  6  1  0  0  0  0
 40 43  1  0  0  0  0
 40 44  1  0  0  0  0
 40 45  1  0  0  0  0
 11 14  1  0  0  0  0
 11 15  1  0  0  0  0
 11 16  1  0  0  0  0
 23 30  1  0  0  0  0
 23 31  1  0  0  0  0
 23 32  1  0  0  0  0
 24 33  1  0  0  0  0
 24 34  1  0  0  0  0
 24 35  1  0  0  0  0
 47 49  1  0  0  0  0
 47 50  1  0  0  0  0
 47 51  1  0  0  0  0
 21 27  1  0  0  0  0
 21 28  1  0  0  0  0
 37 42  1  0  0  0  0
  8 13  1  0  0  0  0
 18 26  1  0  0  0  0
 22 29  1  0  0  0  0
 46 48  1  0  0  0  0
  7 12  1  0  0  0  0
 36 41  1  0  0  0  0
 17 25  1  0  0  0  0
M  END
$$$$

  -OEChem-05262214473D

 51 50  0     1  0  0  0  0  0999 V2000
    3.4018   -1.2440   -3.0186 C   0  0  0  0  0  0  0  0  0  0  0  0
    3.2697   -2.0909   -2.1427 O   0  0  0  0  0  0  0  0  0  0  0  0
    4.6845   -1.1645   -3.7779 C   0  0  0  0  0  0  0  0  0  0  0  0
    5.4123   -0.4862   -3.3041 H   0  0  0  0  0  0  0  0  0  0  0  0
    5.1949   -2.1387   -3.8443 H   0  0  0  0  0  0  0  0  0  0  0  0
    4.5953   -0.8128   -4.8182 H   0  0  0  0  0  0  0  0  0  0  0  0
    2.4540   -0.3103   -3.4040 N   0  0  0  0  0  0  0  0  0  0  0  0
    1.1494   -0.2128   -2.8039 C   0  0  2  0  0  0  0  0  0  0  0  0
    1.3350    0.0367   -1.3130 C   0  0  0  0  0  0  0  0  0  0  0  0
    2.3625   -0.2586   -0.7063 O   0  0  0  0  0  0  0  0  0  0  0  0
    0.3331   -1.4728   -3.0467 C   0  0  0  0  0  0  0  0  0  0  0  0
    2.6924    0.3404   -4.1502 H   0  0  0  0  0  0  0  0  0  0  0  0
    0.6550    0.6514   -3.2607 H   0  0  0  0  0  0  0  0  0  0  0  0
    0.8129   -2.3494   -2.5963 H   0  0  0  0  0  0  0  0  0  0  0  0
   -0.6690   -1.3857   -2.6142 H   0  0  0  0  0  0  0  0  0  0  0  0
    0.2259   -1.6670   -4.1194 H   0  0  0  0  0  0  0  0  0  0  0  0
    0.2019    0.5893   -0.7269 N   0  0  0  0  0  0  0  0  0  0  0  0
    0.1242    0.9059    0.6756 C   0  0  2  0  0  0  0  0  0  0  0  0
    0.7027   -0.2827    1.4370 C   0  0  0  0  0  0  0  0  0  0  0  0
    1.8858   -0.3574    1.7622 O   0  0  0  0  0  0  0  0  0  0  0  0
   -1.3155    1.1774    1.1306 C   0  0  0  0  0  0  0  0  0  0  0  0
   -1.9598    2.4388    0.5203 C   0  0  0  0  0  0  0  0  0  0  0  0
   -3.4327    2.5164    0.9315 C   0  0  0  0  0  0  0  0  0  0  0  0
   -1.8485    2.4704   -1.0046 C   0  0  0  0  0  0  0  0  0  0  0  0
   -0.5975    0.8179   -1.3140 H   0  0  0  0  0  0  0  0  0  0  0  0
    0.7660    1.7768    0.8426 H   0  0  0  0  0  0  0  0  0  0  0  0
   -1.3296    1.2702    2.2256 H   0  0  0  0  0  0  0  0  0  0  0  0
   -1.9414    0.3060    0.8968 H   0  0  0  0  0  0  0  0  0  0  0  0
   -1.4581    3.3285    0.9201 H   0  0  0  0  0  0  0  0  0  0  0  0
   -3.9874    1.6491    0.5580 H   0  0  0  0  0  0  0  0  0  0  0  0
   -3.9048    3.4149    0.5202 H   0  0  0  0  0  0  0  0  0  0  0  0
   -3.5410    2.5445    2.0212 H   0  0  0  0  0  0  0  0  0  0  0  0
   -2.3358    1.5998   -1.4564 H   0  0  0  0  0  0  0  0  0  0  0  0
   -2.3231    3.3707   -1.4097 H   0  0  0  0  0  0  0  0  0  0  0  0
   -0.8035    2.4838   -1.3281 H   0  0  0  0  0  0  0  0  0  0  0  0
   -0.2694   -1.2219    1.7525 N   0  0  0  0  0  0  0  0  0  0  0  0
    0.0076   -2.4307    2.4944 C   0  0  2  0  0  0  0  0  0  0  0  0
    1.0039   -2.0894    3.5946 C   0  0  0  0  0  0  0  0  0  0  0  0
    1.7506   -1.1141    3.5445 O   0  0  0  0  0  0  0  0  0  0  0  0
    0.5521   -3.5238    1.5881 C   0  0  0  0  0  0  0  0  0  0  0  0
   -1.2293   -1.0601    1.4626 H   0  0  0  0  0  0  0  0  0  0  0  0
   -0.9389   -2.7497    2.9442 H   0  0  0  0  0  0  0  0  0  0  0  0
    1.5004   -3.2223    1.1283 H   0  0  0  0  0  0  0  0  0  0  0  0
    0.7346   -4.4479    2.1464 H   0  0  0  0  0  0  0  0  0  0  0  0
   -0.1529   -3.7471    0.7800 H   0  0  0  0  0  0  0  0  0  0  0  0
    0.9916   -3.0259    4.6188 N   0  0  0  0  0  0  0  0  0  0  0  0
    1.8558   -2.9314    5.7721 C   0  0  0  0  0  0  0  0  0  0  0  0
    0.3262   -3.7927    4.5868 H   0  0  0  0  0  0  0  0  0  0  0  0
    2.7799   -3.4984    5.5859 H   0  0  0  0  0  0  0  0  0  0  0  0
    2.1046   -1.8762    5.9583 H   0  0  0  0  0  0  0  0  0  0  0  0
    1.3413   -3.3473    6.6509 H   0  0  0  0  0  0  0  0  0  0  0  0
  1  3  1  0  0  0  0
  1  7  1  0  0  0  0
  1  2  2  0  0  0  0
 37 38  1  0  0  0  0
 38 46  1  0  0  0  0
 38 39  2  0  0  0  0
  8  9  1  0  0  0  0
  9 17  1  0  0  0  0
  9 10  2  0  0  0  0
 18 19  1  0  0  0  0
 19 36  1  0  0  0  0
 19 20  2  0  0  0  0
 37 40  1  0  0  0  0
  8 11  1  0  0  0  0
 22 23  1  0  0  0  0
 22 24  1  0  0  0  0
 46 47  1  0  0  0  0
 18 21  1  0  0  0  0
 21 22  1  0  0  0  0
 36 37  1  0  0  0  0
  7  8  1  0  0  0  0
 17 18  1  0  0  0  0
  3  4  1  0  0  0  0
  3  5  1  0  0  0  0
  3  6  1  0  0  0  0
 40 43  1  0  0  0  0
 40 44  1  0  0  0  0
 40 45  1  0  0  0  0
 11 14  1  0  0  0  0
 11 15  1  0  0  0  0
 11 16  1  0  0  0  0
 23 30  1  0  0  0  0
 23 31  1  0  0  0  0
 23 32  1  0  0  0  0
 24 33  1  0  0  0  0
 24 34  1  0  0  0  0
 24 35  1  0  0  0  0
 47 49  1  0  0  0  0
 47 50  1  0  0  0  0
 47 51  1  0  0  0  0
 21 27  1  0  0  0  0
 21 28  1  0  0  0  0
 37 42  1  0  0  0  0
  8 13  1  0  0  0  0
 18 26  1  0  0  0  0
 22 29  1  0  0  0  0
 46 48  1  0  0  0  0
  7 12  1  0  0  0  0
 36 41  1  0  0  0  0
 17 25  1  0  0  0  0
M  END
$$$$

  -OEChem-05262214473D

 51 50  0     1  0  0  0  0  0999 V2000
    3.4018   -1.2440   -3.0186 C   0  0  0  0  0  0  0  0  0  0  0  0
    3.2697   -2.0909   -2.1427 O   0  0  0  0  0  0  0  0  0  0  0  0
    4.6845   -1.1645   -3.7779 C   0  0  0  0  0  0  0  0  0  0  0  0
    5.4123   -0.4862   -3.3041 H   0  0  0  0  0  0  0  0  0  0  0  0
    5.1949   -2.1387   -3.8443 H   0  0  0  0  0  0  0  0  0  0  0  0
    4.5953   -0.8128   -4.8182 H   0  0  0  0  0  0  0  0  0  0  0  0
    2.4540   -0.3103   -3.4040 N   0  0  0  0  0  0  0  0  0  0  0  0
    1.1494   -0.2128   -2.8039 C   0  0  2  0  0  0  0  0  0  0  0  0
    1.3350    0.0367   -1.3130 C   0  0  0  0  0  0  0  0  0  0  0  0
    2.3625   -0.2586   -0.7063 O   0  0  0  0  0  0  0  0  0  0  0  0
    0.3331   -1.4728   -3.0467 C   0  0  0  0  0  0  0  0  0  0  0  0
    2.6924    0.3404   -4.1502 H   0  0  0  0  0  0  0  0  0  0  0  0
    0.6550    0.6514   -3.2607 H   0  0  0  0  0  0  0  0  0  0  0  0
    0.8129   -2.3494   -2.5963 H   0  0  0  0  0  0  0  0  0  0  0  0
   -0.6690   -1.3857   -2.6142 H   0  0  0  0  0  0  0  0  0  0  0  0
    0.2259   -1.6670   -4.1194 H   0  0  0  0  0  0  0  0  0  0  0  0
    0.2019    0.5893   -0.7269 N   0  0  0  0  0  0  0  0  0  0  0  0
    0.1242    0.9059    0.6756 C   0  0  2  0  0  0  0  0  0  0  0  0
    0.7027   -0.2827    1.4370 C   0  0  0  0  0  0  0  0  0  0  0  0
    1.7982   -0.2517    1.9938 O   0  0  0  0  0  0  0  0  0  0  0  0
   -1.3155    1.1774    1.1306 C   0  0  0  0  0  0  0  0  0  0  0  0
   -1.9598    2.4388    0.5203 C   0  0  0  0  0  0  0  0  0  0  0  0
   -3.4327    2.5164    0.9315 C   0  0  0  0  0  0  0  0  0  0  0  0
   -1.8485    2.4704   -1.0046 C   0  0  0  0  0  0  0  0  0  0  0  0
   -0.5975    0.8179   -1.3140 H   0  0  0  0  0  0  0  0  0  0  0  0
    0.7660    1.7768    0.8426 H   0  0  0  0  0  0  0  0  0  0  0  0
   -1.3296    1.2702    2.2256 H   0  0  0  0  0  0  0  0  0  0  0  0
   -1.9414    0.3060    0.8968 H   0  0  0  0  0  0  0  0  0  0  0  0
   -1.4581    3.3285    0.9201 H   0  0  0  0  0  0  0  0  0  0  0  0
   -3.9874    1.6491    0.5580 H   0  0  0  0  0  0  0  0  0  0  0  0
   -3.9048    3.4149    0.5202 H   0  0  0  0  0  0  0  0  0  0  0  0
   -3.5410    2.5445    2.0212 H   0  0  0  0  0  0  0  0  0  0  0  0
   -2.3358    1.5998   -1.4564 H   0  0  0  0  0  0  0  0  0  0  0  0
   -2.3231    3.3707   -1.4097 H   0  0  0  0  0  0  0  0  0  0  0  0
   -0.8035    2.4838   -1.3281 H   0  0  0  0  0  0  0  0  0  0  0  0
   -0.1719   -1.3602    1.4624 N   0  0  0  0  0  0  0  0  0  0  0  0
    0.1206   -2.6026    2.1404 C   0  0  2  0  0  0  0  0  0  0  0  0
    0.8256   -2.2697    3.4487 C   0  0  0  0  0  0  0  0  0  0  0  0
    1.4244   -1.2130    3.6380 O   0  0  0  0  0  0  0  0  0  0  0  0
    0.9783   -3.5151    1.2777 C   0  0  0  0  0  0  0  0  0  0  0  0
   -1.0697   -1.2827    0.9938 H   0  0  0  0  0  0  0  0  0  0  0  0
   -0.8417   -3.0801    2.3546 H   0  0  0  0  0  0  0  0  0  0  0  0
    1.9467   -3.0535    1.0526 H   0  0  0  0  0  0  0  0  0  0  0  0
    1.1752   -4.4673    1.7813 H   0  0  0  0  0  0  0  0  0  0  0  0
    0.4828   -3.7294    0.3246 H   0  0  0  0  0  0  0  0  0  0  0  0
    0.7440   -3.3092    4.3647 N   0  0  0  0  0  0  0  0  0  0  0  0
    1.3448   -3.2415    5.6763 C   0  0  0  0  0  0  0  0  0  0  0  0
    0.2111   -4.1414    4.1298 H   0  0  0  0  0  0  0  0  0  0  0  0
    2.3572   -3.6701    5.6391 H   0  0  0  0  0  0  0  0  0  0  0  0
    1.4030   -2.1915    5.9991 H   0  0  0  0  0  0  0  0  0  0  0  0
    0.7316   -3.8111    6.3902 H   0  0  0  0  0  0  0  0  0  0  0  0
  1  3  1  0  0  0  0
  1  7  1  0  0  0  0
  1  2  2  0  0  0  0
 37 38  1  0  0  0  0
 38 46  1  0  0  0  0
 38 39  2  0  0  0  0
  8  9  1  0  0  0  0
  9 17  1  0  0  0  0
  9 10  2  0  0  0  0
 18 19  1  0  0  0  0
 19 36  1  0  0  0  0
 19 20  2  0  0  0  0
 37 40  1  0  0  0  0
  8 11  1  0  0  0  0
 22 23  1  0  0  0  0
 22 24  1  0  0  0  0
 46 47  1  0  0  0  0
 18 21  1  0  0  0  0
 21 22  1  0  0  0  0
 36 37  1  0  0  0  0
  7  8  1  0  0  0  0
 17 18  1  0  0  0  0
  3  4  1  0  0  0  0
  3  5  1  0  0  0  0
  3  6  1  0  0  0  0
 40 43  1  0  0  0  0
 40 44  1  0  0  0  0
 40 45  1  0  0  0  0
 11 14  1  0  0  0  0
 11 15  1  0  0  0  0
 11 16  1  0  0  0  0
 23 30  1  0  0  0  0
 23 31  1  0  0  0  0
 23 32  1  0  0  0  0
 24 33  1  0  0  0  0
 24 34  1  0  0  0  0
 24 35  1  0  0  0  0
 47 49  1  0  0  0  0
 47 50  1  0  0  0  0
 47 51  1  0  0  0  0
 21 27  1  0  0  0  0
 21 28  1  0  0  0  0
 37 42  1  0  0  0  0
  8 13  1  0  0  0  0
 18 26  1  0  0  0  0
 22 29  1  0  0  0  0
 46 48  1  0  0  0  0
  7 12  1  0  0  0  0
 36 41  1  0  0  0  0
 17 25  1  0  0  0  0
M  END
$$$$

  -OEChem-05262214473D

 51 50  0     1  0  0  0  0  0999 V2000
    3.4018   -1.2440   -3.0186 C   0  0  0  0  0  0  0  0  0  0  0  0
    3.2697   -2.0909   -2.1427 O   0  0  0  0  0  0  0  0  0  0  0  0
    4.6845   -1.1645   -3.7779 C   0  0  0  0  0  0  0  0  0  0  0  0
    5.4123   -0.4862   -3.3041 H   0  0  0  0  0  0  0  0  0  0  0  0
    5.1949   -2.1387   -3.8443 H   0  0  0  0  0  0  0  0  0  0  0  0
    4.5953   -0.8128   -4.8182 H   0  0  0  0  0  0  0  0  0  0  0  0
    2.4540   -0.3103   -3.4040 N   0  0  0  0  0  0  0  0  0  0  0  0
    1.1494   -0.2128   -2.8039 C   0  0  2  0  0  0  0  0  0  0  0  0
    1.3350    0.0367   -1.3130 C   0  0  0  0  0  0  0  0  0  0  0  0
    2.3625   -0.2586   -0.7063 O   0  0  0  0  0  0  0  0  0  0  0  0
    0.3331   -1.4728   -3.0467 C   0  0  0  0  0  0  0  0  0  0  0  0
    2.6924    0.3404   -4.1502 H   0  0  0  0  0  0  0  0  0  0  0  0
    0.6550    0.6514   -3.2607 H   0  0  0  0  0  0  0  0  0  0  0  0
    0.8129   -2.3494   -2.5963 H   0  0  0  0  0  0  0  0  0  0  0  0
   -0.6690   -1.3857   -2.6142 H   0  0  0  0  0  0  0  0  0  0  0  0
    0.2259   -1.6670   -4.1194 H   0  0  0  0  0  0  0  0  0  0  0  0
    0.2019    0.5893   -0.7269 N   0  0  0  0  0  0  0  0  0  0  0  0
    0.1242    0.9059    0.6756 C   0  0  2  0  0  0  0  0  0  0  0  0
    0.7027   -0.2827    1.4370 C   0  0  0  0  0  0  0  0  0  0  0  0
    1.6533   -0.1836    2.2101 O   0  0  0  0  0  0  0  0  0  0  0  0
   -1.3155    1.1774    1.1306 C   0  0  0  0  0  0  0  0  0  0  0  0
   -1.9598    2.4388    0.5203 C   0  0  0  0  0  0  0  0  0  0  0  0
   -3.4327    2.5164    0.9315 C   0  0  0  0  0  0  0  0  0  0  0  0
   -1.8485    2.4704   -1.0046 C   0  0  0  0  0  0  0  0  0  0  0  0
   -0.5975    0.8179   -1.3140 H   0  0  0  0  0  0  0  0  0  0  0  0
    0.7660    1.7768    0.8426 H   0  0  0  0  0  0  0  0  0  0  0  0
   -1.3296    1.2702    2.2256 H   0  0  0  0  0  0  0  0  0  0  0  0
   -1.9414    0.3060    0.8968 H   0  0  0  0  0  0  0  0  0  0  0  0
   -1.4581    3.3285    0.9201 H   0  0  0  0  0  0  0  0  0  0  0  0
   -3.9874    1.6491    0.5580 H   0  0  0  0  0  0  0  0  0  0  0  0
   -3.9048    3.4149    0.5202 H   0  0  0  0  0  0  0  0  0  0  0  0
   -3.5410    2.5445    2.0212 H   0  0  0  0  0  0  0  0  0  0  0  0
   -2.3358    1.5998   -1.4564 H   0  0  0  0  0  0  0  0  0  0  0  0
   -2.3231    3.3707   -1.4097 H   0  0  0  0  0  0  0  0  0  0  0  0
   -0.8035    2.4838   -1.3281 H   0  0  0  0  0  0  0  0  0  0  0  0
   -0.0013   -1.4528    1.1883 N   0  0  0  0  0  0  0  0  0  0  0  0
    0.3233   -2.7192    1.8043 C   0  0  2  0  0  0  0  0  0  0  0  0
    0.7060   -2.4525    3.2541 C   0  0  0  0  0  0  0  0  0  0  0  0
    1.1032   -1.3597    3.6529 O   0  0  0  0  0  0  0  0  0  0  0  0
    1.4515   -3.4213    1.0647 C   0  0  0  0  0  0  0  0  0  0  0  0
   -0.7922   -1.4310    0.5515 H   0  0  0  0  0  0  0  0  0  0  0  0
   -0.5862   -3.3289    1.7722 H   0  0  0  0  0  0  0  0  0  0  0  0
    2.3713   -2.8254    1.0861 H   0  0  0  0  0  0  0  0  0  0  0  0
    1.6769   -4.3934    1.5155 H   0  0  0  0  0  0  0  0  0  0  0  0
    1.1863   -3.5855    0.0147 H   0  0  0  0  0  0  0  0  0  0  0  0
    0.5928   -3.5899    4.0414 N   0  0  0  0  0  0  0  0  0  0  0  0
    0.9106   -3.5976    5.4503 C   0  0  0  0  0  0  0  0  0  0  0  0
    0.2371   -4.4483    3.6311 H   0  0  0  0  0  0  0  0  0  0  0  0
    1.9604   -3.8958    5.5883 H   0  0  0  0  0  0  0  0  0  0  0  0
    0.7578   -2.5907    5.8660 H   0  0  0  0  0  0  0  0  0  0  0  0
    0.2552   -4.3121    5.9699 H   0  0  0  0  0  0  0  0  0  0  0  0
  1  3  1  0  0  0  0
  1  7  1  0  0  0  0
  1  2  2  0  0  0  0
 37 38  1  0  0  0  0
 38 46  1  0  0  0  0
 38 39  2  0  0  0  0
  8  9  1  0  0  0  0
  9 17  1  0  0  0  0
  9 10  2  0  0  0  0
 18 19  1  0  0  0  0
 19 36  1  0  0  0  0
 19 20  2  0  0  0  0
 37 40  1  0  0  0  0
  8 11  1  0  0  0  0
 22 23  1  0  0  0  0
 22 24  1  0  0  0  0
 46 47  1  0  0  0  0
 18 21  1  0  0  0  0
 21 22  1  0  0  0  0
 36 37  1  0  0  0  0
  7  8  1  0  0  0  0
 17 18  1  0  0  0  0
  3  4  1  0  0  0  0
  3  5  1  0  0  0  0
  3  6  1  0  0  0  0
 40 43  1  0  0  0  0
 40 44  1  0  0  0  0
 40 45  1  0  0  0  0
 11 14  1  0  0  0  0
 11 15  1  0  0  0  0
 11 16  1  0  0  0  0
 23 30  1  0  0  0  0
 23 31  1  0  0  0  0
 23 32  1  0  0  0  0
 24 33  1  0  0  0  0
 24 34  1  0  0  0  0
 24 35  1  0  0  0  0
 47 49  1  0  0  0  0
 47 50  1  0  0  0  0
 47 51  1  0  0  0  0
 21 27  1  0  0  0  0
 21 28  1  0  0  0  0
 37 42  1  0  0  0  0
  8 13  1  0  0  0  0
 18 26  1  0  0  0  0
 22 29  1  0  0  0  0
 46 48  1  0  0  0  0
  7 12  1  0  0  0  0
 36 41  1  0  0  0  0
 17 25  1  0  0  0  0
M  END
$$$$

  -OEChem-05262214473D

 51 50  0     1  0  0  0  0  0999 V2000
    3.4018   -1.2440   -3.0186 C   0  0  0  0  0  0  0  0  0  0  0  0
    3.2697   -2.0909   -2.1427 O   0  0  0  0  0  0  0  0  0  0  0  0
    4.6845   -1.1645   -3.7779 C   0  0  0  0  0  0  0  0  0  0  0  0
    5.4123   -0.4862   -3.3041 H   0  0  0  0  0  0  0  0  0  0  0  0
    5.1949   -2.1387   -3.8443 H   0  0  0  0  0  0  0  0  0  0  0  0
    4.5953   -0.8128   -4.8182 H   0  0  0  0  0  0  0  0  0  0  0  0
    2.4540   -0.3103   -3.4040 N   0  0  0  0  0  0  0  0  0  0  0  0
    1.1494   -0.2128   -2.8039 C   0  0  2  0  0  0  0  0  0  0  0  0
    1.3350    0.0367   -1.3130 C   0  0  0  0  0  0  0  0  0  0  0  0
    2.3625   -0.2586   -0.7063 O   0  0  0  0  0  0  0  0  0  0  0  0
    0.3331   -1.4728   -3.0467 C   0  0  0  0  0  0  0  0  0  0  0  0
    2.6924    0.3404   -4.1502 H   0  0  0  0  0  0  0  0  0  0  0  0
    0.6550    0.6514   -3.2607 H   0  0  0  0  0  0  0  0  0  0  0  0
    0.8129   -2.3494   -2.5963 H   0  0  0  0  0  0  0  0  0  0  0  0
   -0.6690   -1.3857   -2.6142 H   0  0  0  0  0  0  0  0  0  0  0  0
    0.2259   -1.6670   -4.1194 H   0  0  0  0  0  0  0  0  0  0  0  0
    0.2019    0.5893   -0.7269 N   0  0  0  0  0  0  0  0  0  0  0  0
    0.1242    0.9059    0.6756 C   0  0  2  0  0  0  0  0  0  0  0  0
    0.7027   -0.2827    1.4370 C   0  0  0  0  0  0  0  0  0  0  0  0
    1.4608   -0.1579    2.3966 O   0  0  0  0  0  0  0  0  0  0  0  0
   -1.3155    1.1774    1.1306 C   0  0  0  0  0  0  0  0  0  0  0  0
   -1.9598    2.4388    0.5203 C   0  0  0  0  0  0  0  0  0  0  0  0
   -3.4327    2.5164    0.9315 C   0  0  0  0  0  0  0  0  0  0  0  0
   -1.8485    2.4704   -1.0046 C   0  0  0  0  0  0  0  0  0  0  0  0
   -0.5975    0.8179   -1.3140 H   0  0  0  0  0  0  0  0  0  0  0  0
    0.7660    1.7768    0.8426 H   0  0  0  0  0  0  0  0  0  0  0  0
   -1.3296    1.2702    2.2256 H   0  0  0  0  0  0  0  0  0  0  0  0
   -1.9414    0.3060    0.8968 H   0  0  0  0  0  0  0  0  0  0  0  0
   -1.4581    3.3285    0.9201 H   0  0  0  0  0  0  0  0  0  0  0  0
   -3.9874    1.6491    0.5580 H   0  0  0  0  0  0  0  0  0  0  0  0
   -3.9048    3.4149    0.5202 H   0  0  0  0  0  0  0  0  0  0  0  0
   -3.5410    2.5445    2.0212 H   0  0  0  0  0  0  0  0  0  0  0  0
   -2.3358    1.5998   -1.4564 H   0  0  0  0  0  0  0  0  0  0  0  0
   -2.3231    3.3707   -1.4097 H   0  0  0  0  0  0  0  0  0  0  0  0
   -0.8035    2.4838   -1.3281 H   0  0  0  0  0  0  0  0  0  0  0  0
    0.2308   -1.4933    0.9488 N   0  0  0  0  0  0  0  0  0  0  0  0
    0.6020   -2.7727    1.5091 C   0  0  2  0  0  0  0  0  0  0  0  0
    0.6533   -2.6255    3.0241 C   0  0  0  0  0  0  0  0  0  0  0  0
    0.8090   -1.5444    3.5882 O   0  0  0  0  0  0  0  0  0  0  0  0
    1.9394   -3.2486    0.9636 C   0  0  0  0  0  0  0  0  0  0  0  0
   -0.4158   -1.4951    0.1655 H   0  0  0  0  0  0  0  0  0  0  0  0
   -0.1899   -3.4789    1.2368 H   0  0  0  0  0  0  0  0  0  0  0  0
    2.7452   -2.5535    1.2265 H   0  0  0  0  0  0  0  0  0  0  0  0
    2.2056   -4.2310    1.3673 H   0  0  0  0  0  0  0  0  0  0  0  0
    1.9098   -3.3253   -0.1286 H   0  0  0  0  0  0  0  0  0  0  0  0
    0.5481   -3.8488    3.6711 N   0  0  0  0  0  0  0  0  0  0  0  0
    0.5827   -3.9756    5.1094 C   0  0  0  0  0  0  0  0  0  0  0  0
    0.4025   -4.6924    3.1244 H   0  0  0  0  0  0  0  0  0  0  0  0
    1.6165   -4.1601    5.4371 H   0  0  0  0  0  0  0  0  0  0  0  0
    0.2131   -3.0466    5.5683 H   0  0  0  0  0  0  0  0  0  0  0  0
   -0.0554   -4.8165    5.4188 H   0  0  0  0  0  0  0  0  0  0  0  0
  1  3  1  0  0  0  0
  1  7  1  0  0  0  0
  1  2  2  0  0  0  0
 37 38  1  0  0  0  0
 38 46  1  0  0  0  0
 38 39  2  0  0  0  0
  8  9  1  0  0  0  0
  9 17  1  0  0  0  0
  9 10  2  0  0  0  0
 18 19  1  0  0  0  0
 19 36  1  0  0  0  0
 19 20  2  0  0  0  0
 37 40  1  0  0  0  0
  8 11  1  0  0  0  0
 22 23  1  0  0  0  0
 22 24  1  0  0  0  0
 46 47  1  0  0  0  0
 18 21  1  0  0  0  0
 21 22  1  0  0  0  0
 36 37  1  0  0  0  0
  7  8  1  0  0  0  0
 17 18  1  0  0  0  0
  3  4  1  0  0  0  0
  3  5  1  0  0  0  0
  3  6  1  0  0  0  0
 40 43  1  0  0  0  0
 40 44  1  0  0  0  0
 40 45  1  0  0  0  0
 11 14  1  0  0  0  0
 11 15  1  0  0  0  0
 11 16  1  0  0  0  0
 23 30  1  0  0  0  0
 23 31  1  0  0  0  0
 23 32  1  0  0  0  0
 24 33  1  0  0  0  0
 24 34  1  0  0  0  0
 24 35  1  0  0  0  0
 47 49  1  0  0  0  0
 47 50  1  0  0  0  0
 47 51  1  0  0  0  0
 21 27  1  0  0  0  0
 21 28  1  0  0  0  0
 37 42  1  0  0  0  0
  8 13  1  0  0  0  0
 18 26  1  0  0  0  0
 22 29  1  0  0  0  0
 46 48  1  0  0  0  0
  7 12  1  0  0  0  0
 36 41  1  0  0  0  0
 17 25  1  0  0  0  0
M  END
$$$$

  -OEChem-05262214473D

 51 50  0     1  0  0  0  0  0999 V2000
    3.4018   -1.2440   -3.0186 C   0  0  0  0  0  0  0  0  0  0  0  0
    3.2697   -2.0909   -2.1427 O   0  0  0  0  0  0  0  0  0  0  0  0
    4.6845   -1.1645   -3.7779 C   0  0  0  0  0  0  0  0  0  0  0  0
    5.4123   -0.4862   -3.3041 H   0  0  0  0  0  0  0  0  0  0  0  0
    5.1949   -2.1387   -3.8443 H   0  0  0  0  0  0  0  0  0  0  0  0
    4.5953   -0.8128   -4.8182 H   0  0  0  0  0  0  0  0  0  0  0  0
    2.4540   -0.3103   -3.4040 N   0  0  0  0  0  0  0  0  0  0  0  0
    1.1494   -0.2128   -2.8039 C   0  0  2  0  0  0  0  0  0  0  0  0
    1.3350    0.0367   -1.3130 C   0  0  0  0  0  0  0  0  0  0  0  0
    2.3625   -0.2586   -0.7063 O   0  0  0  0  0  0  0  0  0  0  0  0
    0.3331   -1.4728   -3.0467 C   0  0  0  0  0  0  0  0  0  0  0  0
    2.6924    0.3404   -4.1502 H   0  0  0  0  0  0  0  0  0  0  0  0
    0.6550    0.6514   -3.2607 H   0  0  0  0  0  0  0  0  0  0  0  0
    0.8129   -2.3494   -2.5963 H   0  0  0  0  0  0  0  0  0  0  0  0
   -0.6690   -1.3857   -2.6142 H   0  0  0  0  0  0  0  0  0  0  0  0
    0.2259   -1.6670   -4.1194 H   0  0  0  0  0  0  0  0  0  0  0  0
    0.2019    0.5893   -0.7269 N   0  0  0  0  0  0  0  0  0  0  0  0
    0.1242    0.9059    0.6756 C   0  0  2  0  0  0  0  0  0  0  0  0
    0.7027   -0.2827    1.4370 C   0  0  0  0  0  0  0  0  0  0  0  0
    1.2340   -0.1761    2.5404 O   0  0  0  0  0  0  0  0  0  0  0  0
   -1.3155    1.1774    1.1306 C   0  0  0  0  0  0  0  0  0  0  0  0
   -1.9598    2.4388    0.5203 C   0  0  0  0  0  0  0  0  0  0  0  0
   -3.4327    2.5164    0.9315 C   0  0  0  0  0  0  0  0  0  0  0  0
   -1.8485    2.4704   -1.0046 C   0  0  0  0  0  0  0  0  0  0  0  0
   -0.5975    0.8179   -1.3140 H   0  0  0  0  0  0  0  0  0  0  0  0
    0.7660    1.7768    0.8426 H   0  0  0  0  0  0  0  0  0  0  0  0
   -1.3296    1.2702    2.2256 H   0  0  0  0  0  0  0  0  0  0  0  0
   -1.9414    0.3060    0.8968 H   0  0  0  0  0  0  0  0  0  0  0  0
   -1.4581    3.3285    0.9201 H   0  0  0  0  0  0  0  0  0  0  0  0
   -3.9874    1.6491    0.5580 H   0  0  0  0  0  0  0  0  0  0  0  0
   -3.9048    3.4149    0.5202 H   0  0  0  0  0  0  0  0  0  0  0  0
   -3.5410    2.5445    2.0212 H   0  0  0  0  0  0  0  0  0  0  0  0
   -2.3358    1.5998   -1.4564 H   0  0  0  0  0  0  0  0  0  0  0  0
   -2.3231    3.3707   -1.4097 H   0  0  0  0  0  0  0  0  0  0  0  0
   -0.8035    2.4838   -1.3281 H   0  0  0  0  0  0  0  0  0  0  0  0
    0.5084   -1.4789    0.7603 N   0  0  0  0  0  0  0  0  0  0  0  0
    0.9376   -2.7594    1.2749 C   0  0  2  0  0  0  0  0  0  0  0  0
    0.6712   -2.7768    2.7743 C   0  0  0  0  0  0  0  0  0  0  0  0
    0.5616   -1.7545    3.4481 O   0  0  0  0  0  0  0  0  0  0  0  0
    2.4088   -3.0088    0.9813 C   0  0  0  0  0  0  0  0  0  0  0  0
    0.0338   -1.4704   -0.1376 H   0  0  0  0  0  0  0  0  0  0  0  0
    0.3203   -3.5202    0.7849 H   0  0  0  0  0  0  0  0  0  0  0  0
    3.0429   -2.2564    1.4641 H   0  0  0  0  0  0  0  0  0  0  0  0
    2.7252   -3.9914    1.3466 H   0  0  0  0  0  0  0  0  0  0  0  0
    2.6039   -2.9663   -0.0957 H   0  0  0  0  0  0  0  0  0  0  0  0
    0.6131   -4.0684    3.2791 N   0  0  0  0  0  0  0  0  0  0  0  0
    0.3836   -4.3495    4.6770 C   0  0  0  0  0  0  0  0  0  0  0  0
    0.6959   -4.8571    2.6444 H   0  0  0  0  0  0  0  0  0  0  0  0
    1.3489   -4.4449    5.1957 H   0  0  0  0  0  0  0  0  0  0  0  0
   -0.1942   -3.5282    5.1260 H   0  0  0  0  0  0  0  0  0  0  0  0
   -0.1792   -5.2896    4.7742 H   0  0  0  0  0  0  0  0  0  0  0  0
  1  3  1  0  0  0  0
  1  7  1  0  0  0  0
  1  2  2  0  0  0  0
 37 38  1  0  0  0  0
 38 46  1  0  0  0  0
 38 39  2  0  0  0  0
  8  9  1  0  0  0  0
  9 17  1  0  0  0  0
  9 10  2  0  0  0  0
 18 19  1  0  0  0  0
 19 36  1  0  0  0  0
 19 20  2  0  0  0  0
 37 40  1  0  0  0  0
  8 11  1  0  0  0  0
 22 23  1  0  0  0  0
 22 24  1  0  0  0  0
 46 47  1  0  0  0  0
 18 21  1  0  0  0  0
 21 22  1  0  0  0  0
 36 37  1  0  0  0  0
  7  8  1  0  0  0  0
 17 18  1  0  0  0  0
  3  4  1  0  0  0  0
  3  5  1  0  0  0  0
  3  6  1  0  0  0  0
 40 43  1  0  0  0  0
 40 44  1  0  0  0  0
 40 45  1  0  0  0  0
 11 14  1  0  0  0  0
 11 15  1  0  0  0  0
 11 16  1  0  0  0  0
 23 30  1  0  0  0  0
 23 31  1  0  0  0  0
 23 32  1  0  0  0  0
 24 33  1  0  0  0  0
 24 34  1  0  0  0  0
 24 35  1  0  0  0  0
 47 49  1  0  0  0  0
 47 50  1  0  0  0  0
 47 51  1  0  0  0  0
 21 27  1  0  0  0  0
 21 28  1  0  0  0  0
 37 42  1  0  0  0  0
  8 13  1  0  0  0  0
 18 26  1  0  0  0  0
 22 29  1  0  0  0  0
 46 48  1  0  0  0  0
  7 12  1  0  0  0  0
 36 41  1  0  0  0  0
 17 25  1  0  0  0  0
M  END
$$$$

  -OEChem-05262214473D

 51 50  0     1  0  0  0  0  0999 V2000
    3.4018   -1.2440   -3.0186 C   0  0  0  0  0  0  0  0  0  0  0  0
    3.2697   -2.0909   -2.1427 O   0  0  0  0  0  0  0  0  0  0  0  0
    4.6845   -1.1645   -3.7779 C   0  0  0  0  0  0  0  0  0  0  0  0
    5.4123   -0.4862   -3.3041 H   0  0  0  0  0  0  0  0  0  0  0  0
    5.1949   -2.1387   -3.8443 H   0  0  0  0  0  0  0  0  0  0  0  0
    4.5953   -0.8128   -4.8182 H   0  0  0  0  0  0  0  0  0  0  0  0
    2.4540   -0.3103   -3.4040 N   0  0  0  0  0  0  0  0  0  0  0  0
    1.1494   -0.2128   -2.8039 C   0  0  2  0  0  0  0  0  0  0  0  0
    1.3350    0.0367   -1.3130 C   0  0  0  0  0  0  0  0  0  0  0  0
    2.3625   -0.2586   -0.7063 O   0  0  0  0  0  0  0  0  0  0  0  0
    0.3331   -1.4728   -3.0467 C   0  0  0  0  0  0  0  0  0  0  0  0
    2.6924    0.3404   -4.1502 H   0  0  0  0  0  0  0  0  0  0  0  0
    0.6550    0.6514   -3.2607 H   0  0  0  0  0  0  0  0  0  0  0  0
    0.8129   -2.3494   -2.5963 H   0  0  0  0  0  0  0  0  0  0  0  0
   -0.6690   -1.3857   -2.6142 H   0  0  0  0  0  0  0  0  0  0  0  0
    0.2259   -1.6670   -4.1194 H   0  0  0  0  0  0  0  0  0  0  0  0
    0.2019    0.5893   -0.7269 N   0  0  0  0  0  0  0  0  0  0  0  0
    0.1242    0.9059    0.6756 C   0  0  2  0  0  0  0  0  0  0  0  0
    0.7027   -0.2827    1.4370 C   0  0  0  0  0  0  0  0  0  0  0  0
    0.9883   -0.2372    2.6318 O   0  0  0  0  0  0  0  0  0  0  0  0
   -1.3155    1.1774    1.1306 C   0  0  0  0  0  0  0  0  0  0  0  0
   -1.9598    2.4388    0.5203 C   0  0  0  0  0  0  0  0  0  0  0  0
   -3.4327    2.5164    0.9315 C   0  0  0  0  0  0  0  0  0  0  0  0
   -1.8485    2.4704   -1.0046 C   0  0  0  0  0  0  0  0  0  0  0  0
   -0.5975    0.8179   -1.3140 H   0  0  0  0  0  0  0  0  0  0  0  0
    0.7660    1.7768    0.8426 H   0  0  0  0  0  0  0  0  0  0  0  0
   -1.3296    1.2702    2.2256 H   0  0  0  0  0  0  0  0  0  0  0  0
   -1.9414    0.3060    0.8968 H   0  0  0  0  0  0  0  0  0  0  0  0
   -1.4581    3.3285    0.9201 H   0  0  0  0  0  0  0  0  0  0  0  0
   -3.9874    1.6491    0.5580 H   0  0  0  0  0  0  0  0  0  0  0  0
   -3.9048    3.4149    0.5202 H   0  0  0  0  0  0  0  0  0  0  0  0
   -3.5410    2.5445    2.0212 H   0  0  0  0  0  0  0  0  0  0  0  0
   -2.3358    1.5998   -1.4564 H   0  0  0  0  0  0  0  0  0  0  0  0
   -2.3231    3.3707   -1.4097 H   0  0  0  0  0  0  0  0  0  0  0  0
   -0.8035    2.4838   -1.3281 H   0  0  0  0  0  0  0  0  0  0  0  0
    0.8128   -1.4106    0.6356 N   0  0  0  0  0  0  0  0  0  0  0  0
    1.3073   -2.6802    1.1177 C   0  0  2  0  0  0  0  0  0  0  0  0
    0.7584   -2.8962    2.5218 C   0  0  0  0  0  0  0  0  0  0  0  0
    0.3781   -1.9757    3.2424 O   0  0  0  0  0  0  0  0  0  0  0  0
    2.8276   -2.7183    1.1166 C   0  0  0  0  0  0  0  0  0  0  0  0
    0.5261   -1.3588   -0.3374 H   0  0  0  0  0  0  0  0  0  0  0  0
    0.9096   -3.4497    0.4471 H   0  0  0  0  0  0  0  0  0  0  0  0
    3.2442   -1.9542    1.7829 H   0  0  0  0  0  0  0  0  0  0  0  0
    3.2003   -3.6907    1.4550 H   0  0  0  0  0  0  0  0  0  0  0  0
    3.2213   -2.5332    0.1114 H   0  0  0  0  0  0  0  0  0  0  0  0
    0.7833   -4.2335    2.8919 N   0  0  0  0  0  0  0  0  0  0  0  0
    0.3267   -4.6940    4.1824 C   0  0  0  0  0  0  0  0  0  0  0  0
    1.0974   -4.9311    2.2237 H   0  0  0  0  0  0  0  0  0  0  0  0
    1.1759   -4.7309    4.8807 H   0  0  0  0  0  0  0  0  0  0  0  0
   -0.4362   -4.0025    4.5695 H   0  0  0  0  0  0  0  0  0  0  0  0
   -0.1077   -5.6994    4.0802 H   0  0  0  0  0  0  0  0  0  0  0  0
  1  3  1  0  0  0  0
  1  7  1  0  0  0  0
  1  2  2  0  0  0  0
 37 38  1  0  0  0  0
 38 46  1  0  0  0  0
 38 39  2  0  0  0  0
  8  9  1  0  0  0  0
  9 17  1  0  0  0  0
  9 10  2  0  0  0  0
 18 19  1  0  0  0  0
 19 36  1  0  0  0  0
 19 20  2  0  0  0  0
 37 40  1  0  0  0  0
  8 11  1  0  0  0  0
 22 23  1  0  0  0  0
 22 24  1  0  0  0  0
 46 47  1  0  0  0  0
 18 21  1  0  0  0  0
 21 22  1  0  0  0  0
 36 37  1  0  0  0  0
  7  8  1  0  0  0  0
 17 18  1  0  0  0  0
  3  4  1  0  0  0  0
  3  5  1  0  0  0  0
  3  6  1  0  0  0  0
 40 43  1  0  0  0  0
 40 44  1  0  0  0  0
 40 45  1  0  0  0  0
 11 14  1  0  0  0  0
 11 15  1  0  0  0  0
 11 16  1  0  0  0  0
 23 30  1  0  0  0  0
 23 31  1  0  0  0  0
 23 32  1  0  0  0  0
 24 33  1  0  0  0  0
 24 34  1  0  0  0  0
 24 35  1  0  0  0  0
 47 49  1  0  0  0  0
 47 50  1  0  0  0  0
 47 51  1  0  0  0  0
 21 27  1  0  0  0  0
 21 28  1  0  0  0  0
 37 42  1  0  0  0  0
  8 13  1  0  0  0  0
 18 26  1  0  0  0  0
 22 29  1  0  0  0  0
 46 48  1  0  0  0  0
  7 12  1  0  0  0  0
 36 41  1  0  0  0  0
 17 25  1  0  0  0  0
M  END
$$$$

  -OEChem-05262214473D

 51 50  0     1  0  0  0  0  0999 V2000
    3.4018   -1.2440   -3.0186 C   0  0  0  0  0  0  0  0  0  0  0  0
    3.2697   -2.0909   -2.1427 O   0  0  0  0  0  0  0  0  0  0  0  0
    4.6845   -1.1645   -3.7779 C   0  0  0  0  0  0  0  0  0  0  0  0
    5.4123   -0.4862   -3.3041 H   0  0  0  0  0  0  0  0  0  0  0  0
    5.1949   -2.1387   -3.8443 H   0  0  0  0  0  0  0  0  0  0  0  0
    4.5953   -0.8128   -4.8182 H   0  0  0  0  0  0  0  0  0  0  0  0
    2.4540   -0.3103   -3.4040 N   0  0  0  0  0  0  0  0  0  0  0  0
    1.1494   -0.2128   -2.8039 C   0  0  2  0  0  0  0  0  0  0  0  0
    1.3350    0.0367   -1.3130 C   0  0  0  0  0  0  0  0  0  0  0  0
    2.3625   -0.2586   -0.7063 O   0  0  0  0  0  0  0  0  0  0  0  0
    0.3331   -1.4728   -3.0467 C   0  0  0  0  0  0  0  0  0  0  0  0
    2.6924    0.3404   -4.1502 H   0  0  0  0  0  0  0  0  0  0  0  0
    0.6550    0.6514   -3.2607 H   0  0  0  0  0  0  0  0  0  0  0  0
    0.8129   -2.3494   -2.5963 H   0  0  0  0  0  0  0  0  0  0  0  0
   -0.6690   -1.3857   -2.6142 H   0  0  0  0  0  0  0  0  0  0  0  0
    0.2259   -1.6670   -4.1194 H   0  0  0  0  0  0  0  0  0  0  0  0
    0.2019    0.5893   -0.7269 N   0  0  0  0  0  0  0  0  0  0  0  0
    0.1242    0.9059    0.6756 C   0  0  2  0  0  0  0  0  0  0  0  0
    0.7027   -0.2827    1.4370 C   0  0  0  0  0  0  0  0  0  0  0  0
    0.7404   -0.3369    2.6645 O   0  0  0  0  0  0  0  0  0  0  0  0
   -1.3155    1.1774    1.1306 C   0  0  0  0  0  0  0  0  0  0  0  0
   -1.9598    2.4388    0.5203 C   0  0  0  0  0  0  0  0  0  0  0  0
   -3.4327    2.5164    0.9315 C   0  0  0  0  0  0  0  0  0  0  0  0
   -1.8485    2.4704   -1.0046 C   0  0  0  0  0  0  0  0  0  0  0  0
   -0.5975    0.8179   -1.3140 H   0  0  0  0  0  0  0  0  0  0  0  0
    0.7660    1.7768    0.8426 H   0  0  0  0  0  0  0  0  0  0  0  0
   -1.3296    1.2702    2.2256 H   0  0  0  0  0  0  0  0  0  0  0  0
   -1.9414    0.3060    0.8968 H   0  0  0  0  0  0  0  0  0  0  0  0
   -1.4581    3.3285    0.9201 H   0  0  0  0  0  0  0  0  0  0  0  0
   -3.9874    1.6491    0.5580 H   0  0  0  0  0  0  0  0  0  0  0  0
   -3.9048    3.4149    0.5202 H   0  0  0  0  0  0  0  0  0  0  0  0
   -3.5410    2.5445    2.0212 H   0  0  0  0  0  0  0  0  0  0  0  0
   -2.3358    1.5998   -1.4564 H   0  0  0  0  0  0  0  0  0  0  0  0
   -2.3231    3.3707   -1.4097 H   0  0  0  0  0  0  0  0  0  0  0  0
   -0.8035    2.4838   -1.3281 H   0  0  0  0  0  0  0  0  0  0  0  0
    1.1231   -1.2931    0.5833 N   0  0  0  0  0  0  0  0  0  0  0  0
    1.6858   -2.5405    1.0482 C   0  0  2  0  0  0  0  0  0  0  0  0
    0.9089   -2.9754    2.2838 C   0  0  0  0  0  0  0  0  0  0  0  0
    0.2709   -2.1928    2.9849 O   0  0  0  0  0  0  0  0  0  0  0  0
    3.1673   -2.3969    1.3602 C   0  0  0  0  0  0  0  0  0  0  0  0
    1.0275   -1.1677   -0.4201 H   0  0  0  0  0  0  0  0  0  0  0  0
    1.5378   -3.2724    0.2467 H   0  0  0  0  0  0  0  0  0  0  0  0
    3.3353   -1.6676    2.1611 H   0  0  0  0  0  0  0  0  0  0  0  0
    3.5985   -3.3496    1.6850 H   0  0  0  0  0  0  0  0  0  0  0  0
    3.7200   -2.0554    0.4784 H   0  0  0  0  0  0  0  0  0  0  0  0
    1.0471   -4.3331    2.5361 N   0  0  0  0  0  0  0  0  0  0  0  0
    0.4161   -4.9856    3.6595 C   0  0  0  0  0  0  0  0  0  0  0  0
    1.5797   -4.9095    1.8911 H   0  0  0  0  0  0  0  0  0  0  0  0
    1.1093   -4.9986    4.5134 H   0  0  0  0  0  0  0  0  0  0  0  0
   -0.4964   -4.4373    3.9365 H   0  0  0  0  0  0  0  0  0  0  0  0
    0.1543   -6.0179    3.3841 H   0  0  0  0  0  0  0  0  0  0  0  0
  1  3  1  0  0  0  0
  1  7  1  0  0  0  0
  1  2  2  0  0  0  0
 37 38  1  0  0  0  0
 38 46  1  0  0  0  0
 38 39  2  0  0  0  0
  8  9  1  0  0  0  0
  9 17  1  0  0  0  0
  9 10  2  0  0  0  0
 18 19  1  0  0  0  0
 19 36  1  0  0  0  0
 19 20  2  0  0  0  0
 37 40  1  0  0  0  0
  8 11  1  0  0  0  0
 22 23  1  0  0  0  0
 22 24  1  0  0  0  0
 46 47  1  0  0  0  0
 18 21  1  0  0  0  0
 21 22  1  0  0  0  0
 36 37  1  0  0  0  0
  7  8  1  0  0  0  0
 17 18  1  0  0  0  0
  3  4  1  0  0  0  0
  3  5  1  0  0  0  0
  3  6  1  0  0  0  0
 40 43  1  0  0  0  0
 40 44  1  0  0  0  0
 40 45  1  0  0  0  0
 11 14  1  0  0  0  0
 11 15  1  0  0  0  0
 11 16  1  0  0  0  0
 23 30  1  0  0  0  0
 23 31  1  0  0  0  0
 23 32  1  0  0  0  0
 24 33  1  0  0  0  0
 24 34  1  0  0  0  0
 24 35  1  0  0  0  0
 47 49  1  0  0  0  0
 47 50  1  0  0  0  0
 47 51  1  0  0  0  0
 21 27  1  0  0  0  0
 21 28  1  0  0  0  0
 37 42  1  0  0  0  0
  8 13  1  0  0  0  0
 18 26  1  0  0  0  0
 22 29  1  0  0  0  0
 46 48  1  0  0  0  0
  7 12  1  0  0  0  0
 36 41  1  0  0  0  0
 17 25  1  0  0  0  0
M  END
$$$$

  -OEChem-05262214473D

 51 50  0     1  0  0  0  0  0999 V2000
    3.4018   -1.2440   -3.0186 C   0  0  0  0  0  0  0  0  0  0  0  0
    3.2697   -2.0909   -2.1427 O   0  0  0  0  0  0  0  0  0  0  0  0
    4.6845   -1.1645   -3.7779 C   0  0  0  0  0  0  0  0  0  0  0  0
    5.4123   -0.4862   -3.3041 H   0  0  0  0  0  0  0  0  0  0  0  0
    5.1949   -2.1387   -3.8443 H   0  0  0  0  0  0  0  0  0  0  0  0
    4.5953   -0.8128   -4.8182 H   0  0  0  0  0  0  0  0  0  0  0  0
    2.4540   -0.3103   -3.4040 N   0  0  0  0  0  0  0  0  0  0  0  0
    1.1494   -0.2128   -2.8039 C   0  0  2  0  0  0  0  0  0  0  0  0
    1.3350    0.0367   -1.3130 C   0  0  0  0  0  0  0  0  0  0  0  0
    2.3625   -0.2586   -0.7063 O   0  0  0  0  0  0  0  0  0  0  0  0
    0.3331   -1.4728   -3.0467 C   0  0  0  0  0  0  0  0  0  0  0  0
    2.6924    0.3404   -4.1502 H   0  0  0  0  0  0  0  0  0  0  0  0
    0.6550    0.6514   -3.2607 H   0  0  0  0  0  0  0  0  0  0  0  0
    0.8129   -2.3494   -2.5963 H   0  0  0  0  0  0  0  0  0  0  0  0
   -0.6690   -1.3857   -2.6142 H   0  0  0  0  0  0  0  0  0  0  0  0
    0.2259   -1.6670   -4.1194 H   0  0  0  0  0  0  0  0  0  0  0  0
    0.2019    0.5893   -0.7269 N   0  0  0  0  0  0  0  0  0  0  0  0
    0.1242    0.9059    0.6756 C   0  0  2  0  0  0  0  0  0  0  0  0
    0.7027   -0.2827    1.4370 C   0  0  0  0  0  0  0  0  0  0  0  0
    0.5072   -0.4684    2.6364 O   0  0  0  0  0  0  0  0  0  0  0  0
   -1.3155    1.1774    1.1306 C   0  0  0  0  0  0  0  0  0  0  0  0
   -1.9598    2.4388    0.5203 C   0  0  0  0  0  0  0  0  0  0  0  0
   -3.4327    2.5164    0.9315 C   0  0  0  0  0  0  0  0  0  0  0  0
   -1.8485    2.4704   -1.0046 C   0  0  0  0  0  0  0  0  0  0  0  0
   -0.5975    0.8179   -1.3140 H   0  0  0  0  0  0  0  0  0  0  0  0
    0.7660    1.7768    0.8426 H   0  0  0  0  0  0  0  0  0  0  0  0
   -1.3296    1.2702    2.2256 H   0  0  0  0  0  0  0  0  0  0  0  0
   -1.9414    0.3060    0.8968 H   0  0  0  0  0  0  0  0  0  0  0  0
   -1.4581    3.3285    0.9201 H   0  0  0  0  0  0  0  0  0  0  0  0
   -3.9874    1.6491    0.5580 H   0  0  0  0  0  0  0  0  0  0  0  0
   -3.9048    3.4149    0.5202 H   0  0  0  0  0  0  0  0  0  0  0  0
   -3.5410    2.5445    2.0212 H   0  0  0  0  0  0  0  0  0  0  0  0
   -2.3358    1.5998   -1.4564 H   0  0  0  0  0  0  0  0  0  0  0  0
   -2.3231    3.3707   -1.4097 H   0  0  0  0  0  0  0  0  0  0  0  0
   -0.8035    2.4838   -1.3281 H   0  0  0  0  0  0  0  0  0  0  0  0
    1.4181   -1.1344    0.6069 N   0  0  0  0  0  0  0  0  0  0  0  0
    2.0475   -2.3498    1.0710 C   0  0  2  0  0  0  0  0  0  0  0  0
    1.1126   -3.0091    2.0765 C   0  0  0  0  0  0  0  0  0  0  0  0
    0.2474   -2.3911    2.6933 O   0  0  0  0  0  0  0  0  0  0  0  0
    3.4048   -2.0664    1.6956 C   0  0  0  0  0  0  0  0  0  0  0  0
    1.5038   -0.9103   -0.3801 H   0  0  0  0  0  0  0  0  0  0  0  0
    2.1622   -3.0003    0.1971 H   0  0  0  0  0  0  0  0  0  0  0  0
    3.3100   -1.4161    2.5728 H   0  0  0  0  0  0  0  0  0  0  0  0
    3.8927   -2.9912    2.0209 H   0  0  0  0  0  0  0  0  0  0  0  0
    4.0660   -1.5654    0.9803 H   0  0  0  0  0  0  0  0  0  0  0  0
    1.3866   -4.3603    2.2358 N   0  0  0  0  0  0  0  0  0  0  0  0
    0.6455   -5.2043    3.1437 C   0  0  0  0  0  0  0  0  0  0  0  0
    2.1097   -4.7937    1.6692 H   0  0  0  0  0  0  0  0  0  0  0  0
    1.1537   -5.2297    4.1190 H   0  0  0  0  0  0  0  0  0  0  0  0
   -0.3708   -4.8030    3.2703 H   0  0  0  0  0  0  0  0  0  0  0  0
    0.5888   -6.2233    2.7333 H   0  0  0  0  0  0  0  0  0  0  0  0
  1  3  1  0  0  0  0
  1  7  1  0  0  0  0
  1  2  2  0  0  0  0
 37 38  1  0  0  0  0
 38 46  1  0  0  0  0
 38 39  2  0  0  0  0
  8  9  1  0  0  0  0
  9 17  1  0  0  0  0
  9 10  2  0  0  0  0
 18 19  1  0  0  0  0
 19 36  1  0  0  0  0
 19 20  2  0  0  0  0
 37 40  1  0  0  0  0
  8 11  1  0  0  0  0
 22 23  1  0  0  0  0
 22 24  1  0  0  0  0
 46 47  1  0  0  0  0
 18 21  1  0  0  0  0
 21 22  1  0  0  0  0
 36 37  1  0  0  0  0
  7  8  1  0  0  0  0
 17 18  1  0  0  0  0
  3  4  1  0  0  0  0
  3  5  1  0  0  0  0
  3  6  1  0  0  0  0
 40 43  1  0  0  0  0
 40 44  1  0  0  0  0
 40 45  1  0  0  0  0
 11 14  1  0  0  0  0
 11 15  1  0  0  0  0
 11 16  1  0  0  0  0
 23 30  1  0  0  0  0
 23 31  1  0  0  0  0
 23 32  1  0  0  0  0
 24 33  1  0  0  0  0
 24 34  1  0  0  0  0
 24 35  1  0  0  0  0
 47 49  1  0  0  0  0
 47 50  1  0  0  0  0
 47 51  1  0  0  0  0
 21 27  1  0  0  0  0
 21 28  1  0  0  0  0
 37 42  1  0  0  0  0
  8 13  1  0  0  0  0
 18 26  1  0  0  0  0
 22 29  1  0  0  0  0
 46 48  1  0  0  0  0
  7 12  1  0  0  0  0
 36 41  1  0  0  0  0
 17 25  1  0  0  0  0
M  END
$$$$

  -OEChem-05262214473D

 51 50  0     1  0  0  0  0  0999 V2000
    3.4018   -1.2440   -3.0186 C   0  0  0  0  0  0  0  0  0  0  0  0
    3.2697   -2.0909   -2.1427 O   0  0  0  0  0  0  0  0  0  0  0  0
    4.6845   -1.1645   -3.7779 C   0  0  0  0  0  0  0  0  0  0  0  0
    5.4123   -0.4862   -3.3041 H   0  0  0  0  0  0  0  0  0  0  0  0
    5.1949   -2.1387   -3.8443 H   0  0  0  0  0  0  0  0  0  0  0  0
    4.5953   -0.8128   -4.8182 H   0  0  0  0  0  0  0  0  0  0  0  0
    2.4540   -0.3103   -3.4040 N   0  0  0  0  0  0  0  0  0  0  0  0
    1.1494   -0.2128   -2.8039 C   0  0  2  0  0  0  0  0  0  0  0  0
    1.3350    0.0367   -1.3130 C   0  0  0  0  0  0  0  0  0  0  0  0
    2.3625   -0.2586   -0.7063 O   0  0  0  0  0  0  0  0  0  0  0  0
    0.3331   -1.4728   -3.0467 C   0  0  0  0  0  0  0  0  0  0  0  0
    2.6924    0.3404   -4.1502 H   0  0  0  0  0  0  0  0  0  0  0  0
    0.6550    0.6514   -3.2607 H   0  0  0  0  0  0  0  0  0  0  0  0
    0.8129   -2.3494   -2.5963 H   0  0  0  0  0  0  0  0  0  0  0  0
   -0.6690   -1.3857   -2.6142 H   0  0  0  0  0  0  0  0  0  0  0  0
    0.2259   -1.6670   -4.1194 H   0  0  0  0  0  0  0  0  0  0  0  0
    0.2019    0.5893   -0.7269 N   0  0  0  0  0  0  0  0  0  0  0  0
    0.1242    0.9059    0.6756 C   0  0  2  0  0  0  0  0  0  0  0  0
    0.7027   -0.2827    1.4370 C   0  0  0  0  0  0  0  0  0  0  0  0
    0.3046   -0.6228    2.5492 O   0  0  0  0  0  0  0  0  0  0  0  0
   -1.3155    1.1774    1.1306 C   0  0  0  0  0  0  0  0  0  0  0  0
   -1.9598    2.4388    0.5203 C   0  0  0  0  0  0  0  0  0  0  0  0
   -3.4327    2.5164    0.9315 C   0  0  0  0  0  0  0  0  0  0  0  0
   -1.8485    2.4704   -1.0046 C   0  0  0  0  0  0  0  0  0  0  0  0
   -0.5975    0.8179   -1.3140 H   0  0  0  0  0  0  0  0  0  0  0  0
    0.7660    1.7768    0.8426 H   0  0  0  0  0  0  0  0  0  0  0  0
   -1.3296    1.2702    2.2256 H   0  0  0  0  0  0  0  0  0  0  0  0
   -1.9414    0.3060    0.8968 H   0  0  0  0  0  0  0  0  0  0  0  0
   -1.4581    3.3285    0.9201 H   0  0  0  0  0  0  0  0  0  0  0  0
   -3.9874    1.6491    0.5580 H   0  0  0  0  0  0  0  0  0  0  0  0
   -3.9048    3.4149    0.5202 H   0  0  0  0  0  0  0  0  0  0  0  0
   -3.5410    2.5445    2.0212 H   0  0  0  0  0  0  0  0  0  0  0  0
   -2.3358    1.5998   -1.4564 H   0  0  0  0  0  0  0  0  0  0  0  0
   -2.3231    3.3707   -1.4097 H   0  0  0  0  0  0  0  0  0  0  0  0
   -0.8035    2.4838   -1.3281 H   0  0  0  0  0  0  0  0  0  0  0  0
    1.6779   -0.9453    0.7047 N   0  0  0  0  0  0  0  0  0  0  0  0
    2.3675   -2.1212    1.1848 C   0  0  2  0  0  0  0  0  0  0  0  0
    1.3555   -2.9950    1.9139 C   0  0  0  0  0  0  0  0  0  0  0  0
    0.3090   -2.5570    2.3874 O   0  0  0  0  0  0  0  0  0  0  0  0
    3.5239   -1.7495    2.0999 C   0  0  0  0  0  0  0  0  0  0  0  0
    1.9225   -0.6041   -0.2202 H   0  0  0  0  0  0  0  0  0  0  0  0
    2.7401   -2.6519    0.3018 H   0  0  0  0  0  0  0  0  0  0  0  0
    3.1701   -1.2169    2.9901 H   0  0  0  0  0  0  0  0  0  0  0  0
    4.0628   -2.6400    2.4399 H   0  0  0  0  0  0  0  0  0  0  0  0
    4.2356   -1.0967    1.5830 H   0  0  0  0  0  0  0  0  0  0  0  0
    1.7785   -4.3132    2.0115 N   0  0  0  0  0  0  0  0  0  0  0  0
    0.9994   -5.3353    2.6703 C   0  0  0  0  0  0  0  0  0  0  0  0
    2.6515   -4.5915    1.5731 H   0  0  0  0  0  0  0  0  0  0  0  0
    1.3059   -5.4085    3.7242 H   0  0  0  0  0  0  0  0  0  0  0  0
   -0.0679   -5.0746    2.6162 H   0  0  0  0  0  0  0  0  0  0  0  0
    1.1664   -6.3017    2.1721 H   0  0  0  0  0  0  0  0  0  0  0  0
  1  3  1  0  0  0  0
  1  7  1  0  0  0  0
  1  2  2  0  0  0  0
 37 38  1  0  0  0  0
 38 46  1  0  0  0  0
 38 39  2  0  0  0  0
  8  9  1  0  0  0  0
  9 17  1  0  0  0  0
  9 10  2  0  0  0  0
 18 19  1  0  0  0  0
 19 36  1  0  0  0  0
 19 20  2  0  0  0  0
 37 40  1  0  0  0  0
  8 11  1  0  0  0  0
 22 23  1  0  0  0  0
 22 24  1  0  0  0  0
 46 47  1  0  0  0  0
 18 21  1  0  0  0  0
 21 22  1  0  0  0  0
 36 37  1  0  0  0  0
  7  8  1  0  0  0  0
 17 18  1  0  0  0  0
  3  4  1  0  0  0  0
  3  5  1  0  0  0  0
  3  6  1  0  0  0  0
 40 43  1  0  0  0  0
 40 44  1  0  0  0  0
 40 45  1  0  0  0  0
 11 14  1  0  0  0  0
 11 15  1  0  0  0  0
 11 16  1  0  0  0  0
 23 30  1  0  0  0  0
 23 31  1  0  0  0  0
 23 32  1  0  0  0  0
 24 33  1  0  0  0  0
 24 34  1  0  0  0  0
 24 35  1  0  0  0  0
 47 49  1  0  0  0  0
 47 50  1  0  0  0  0
 47 51  1  0  0  0  0
 21 27  1  0  0  0  0
 21 28  1  0  0  0  0
 37 42  1  0  0  0  0
  8 13  1  0  0  0  0
 18 26  1  0  0  0  0
 22 29  1  0  0  0  0
 46 48  1  0  0  0  0
  7 12  1  0  0  0  0
 36 41  1  0  0  0  0
 17 25  1  0  0  0  0
M  END
$$$$

  -OEChem-05262214473D

 51 50  0     1  0  0  0  0  0999 V2000
    3.4018   -1.2440   -3.0186 C   0  0  0  0  0  0  0  0  0  0  0  0
    3.2697   -2.0909   -2.1427 O   0  0  0  0  0  0  0  0  0  0  0  0
    4.6845   -1.1645   -3.7779 C   0  0  0  0  0  0  0  0  0  0  0  0
    5.4123   -0.4862   -3.3041 H   0  0  0  0  0  0  0  0  0  0  0  0
    5.1949   -2.1387   -3.8443 H   0  0  0  0  0  0  0  0  0  0  0  0
    4.5953   -0.8128   -4.8182 H   0  0  0  0  0  0  0  0  0  0  0  0
    2.4540   -0.3103   -3.4040 N   0  0  0  0  0  0  0  0  0  0  0  0
    1.1494   -0.2128   -2.8039 C   0  0  2  0  0  0  0  0  0  0  0  0
    1.3350    0.0367   -1.3130 C   0  0  0  0  0  0  0  0  0  0  0  0
    2.3625   -0.2586   -0.7063 O   0  0  0  0  0  0  0  0  0  0  0  0
    0.3331   -1.4728   -3.0467 C   0  0  0  0  0  0  0  0  0  0  0  0
    2.6924    0.3404   -4.1502 H   0  0  0  0  0  0  0  0  0  0  0  0
    0.6550    0.6514   -3.2607 H   0  0  0  0  0  0  0  0  0  0  0  0
    0.8129   -2.3494   -2.5963 H   0  0  0  0  0  0  0  0  0  0  0  0
   -0.6690   -1.3857   -2.6142 H   0  0  0  0  0  0  0  0  0  0  0  0
    0.2259   -1.6670   -4.1194 H   0  0  0  0  0  0  0  0  0  0  0  0
    0.2019    0.5893   -0.7269 N   0  0  0  0  0  0  0  0  0  0  0  0
    0.1242    0.9059    0.6756 C   0  0  2  0  0  0  0  0  0  0  0  0
    0.7027   -0.2827    1.4370 C   0  0  0  0  0  0  0  0  0  0  0  0
    0.1465   -0.7896    2.4091 O   0  0  0  0  0  0  0  0  0  0  0  0
   -1.3155    1.1774    1.1306 C   0  0  0  0  0  0  0  0  0  0  0  0
   -1.9598    2.4388    0.5203 C   0  0  0  0  0  0  0  0  0  0  0  0
   -3.4327    2.5164    0.9315 C   0  0  0  0  0  0  0  0  0  0  0  0
   -1.8485    2.4704   -1.0046 C   0  0  0  0  0  0  0  0  0  0  0  0
   -0.5975    0.8179   -1.3140 H   0  0  0  0  0  0  0  0  0  0  0  0
    0.7660    1.7768    0.8426 H   0  0  0  0  0  0  0  0  0  0  0  0
   -1.3296    1.2702    2.2256 H   0  0  0  0  0  0  0  0  0  0  0  0
   -1.9414    0.3060    0.8968 H   0  0  0  0  0  0  0  0  0  0  0  0
   -1.4581    3.3285    0.9201 H   0  0  0  0  0  0  0  0  0  0  0  0
   -3.9874    1.6491    0.5580 H   0  0  0  0  0  0  0  0  0  0  0  0
   -3.9048    3.4149    0.5202 H   0  0  0  0  0  0  0  0  0  0  0  0
   -3.5410    2.5445    2.0212 H   0  0  0  0  0  0  0  0  0  0  0  0
   -2.3358    1.5998   -1.4564 H   0  0  0  0  0  0  0  0  0  0  0  0
   -2.3231    3.3707   -1.4097 H   0  0  0  0  0  0  0  0  0  0  0  0
   -0.8035    2.4838   -1.3281 H   0  0  0  0  0  0  0  0  0  0  0  0
    1.8847   -0.7387    0.8701 N   0  0  0  0  0  0  0  0  0  0  0  0
    2.6242   -1.8701    1.3816 C   0  0  2  0  0  0  0  0  0  0  0  0
    1.6210   -2.9340    1.8073 C   0  0  0  0  0  0  0  0  0  0  0  0
    0.4517   -2.6793    2.0881 O   0  0  0  0  0  0  0  0  0  0  0  0
    3.5164   -1.4676    2.5455 C   0  0  0  0  0  0  0  0  0  0  0  0
    2.2552   -0.2698    0.0488 H   0  0  0  0  0  0  0  0  0  0  0  0
    3.2321   -2.2510    0.5537 H   0  0  0  0  0  0  0  0  0  0  0  0
    2.9250   -1.0835    3.3846 H   0  0  0  0  0  0  0  0  0  0  0  0
    4.0973   -2.3199    2.9134 H   0  0  0  0  0  0  0  0  0  0  0  0
    4.2174   -0.6812    2.2454 H   0  0  0  0  0  0  0  0  0  0  0  0
    2.1963   -4.1951    1.8785 N   0  0  0  0  0  0  0  0  0  0  0  0
    1.4536   -5.3697    2.2715 C   0  0  0  0  0  0  0  0  0  0  0  0
    3.1681   -4.3168    1.6094 H   0  0  0  0  0  0  0  0  0  0  0  0
    1.5556   -5.5228    3.3561 H   0  0  0  0  0  0  0  0  0  0  0  0
    0.3917   -5.2335    2.0189 H   0  0  0  0  0  0  0  0  0  0  0  0
    1.8475   -6.2478    1.7388 H   0  0  0  0  0  0  0  0  0  0  0  0
  1  3  1  0  0  0  0
  1  7  1  0  0  0  0
  1  2  2  0  0  0  0
 37 38  1  0  0  0  0
 38 46  1  0  0  0  0
 38 39  2  0  0  0  0
  8  9  1  0  0  0  0
  9 17  1  0  0  0  0
  9 10  2  0  0  0  0
 18 19  1  0  0  0  0
 19 36  1  0  0  0  0
 19 20  2  0  0  0  0
 37 40  1  0  0  0  0
  8 11  1  0  0  0  0
 22 23  1  0  0  0  0
 22 24  1  0  0  0  0
 46 47  1  0  0  0  0
 18 21  1  0  0  0  0
 21 22  1  0  0  0  0
 36 37  1  0  0  0  0
  7  8  1  0  0  0  0
 17 18  1  0  0  0  0
  3  4  1  0  0  0  0
  3  5  1  0  0  0  0
  3  6  1  0  0  0  0
 40 43  1  0  0  0  0
 40 44  1  0  0  0  0
 40 45  1  0  0  0  0
 11 14  1  0  0  0  0
 11 15  1  0  0  0  0
 11 16  1  0  0  0  0
 23 30  1  0  0  0  0
 23 31  1  0  0  0  0
 23 32  1  0  0  0  0
 24 33  1  0  0  0  0
 24 34  1  0  0  0  0
 24 35  1  0  0  0  0
 47 49  1  0  0  0  0
 47 50  1  0  0  0  0
 47 51  1  0  0  0  0
 21 27  1  0  0  0  0
 21 28  1  0  0  0  0
 37 42  1  0  0  0  0
  8 13  1  0  0  0  0
 18 26  1  0  0  0  0
 22 29  1  0  0  0  0
 46 48  1  0  0  0  0
  7 12  1  0  0  0  0
 36 41  1  0  0  0  0
 17 25  1  0  0  0  0
M  END
$$$$

  -OEChem-05262214473D

 51 50  0     1  0  0  0  0  0999 V2000
    3.4018   -1.2440   -3.0186 C   0  0  0  0  0  0  0  0  0  0  0  0
    3.2697   -2.0909   -2.1427 O   0  0  0  0  0  0  0  0  0  0  0  0
    4.6845   -1.1645   -3.7779 C   0  0  0  0  0  0  0  0  0  0  0  0
    5.4123   -0.4862   -3.3041 H   0  0  0  0  0  0  0  0  0  0  0  0
    5.1949   -2.1387   -3.8443 H   0  0  0  0  0  0  0  0  0  0  0  0
    4.5953   -0.8128   -4.8182 H   0  0  0  0  0  0  0  0  0  0  0  0
    2.4540   -0.3103   -3.4040 N   0  0  0  0  0  0  0  0  0  0  0  0
    1.1494   -0.2128   -2.8039 C   0  0  2  0  0  0  0  0  0  0  0  0
    1.3350    0.0367   -1.3130 C   0  0  0  0  0  0  0  0  0  0  0  0
    2.3625   -0.2586   -0.7063 O   0  0  0  0  0  0  0  0  0  0  0  0
    0.3331   -1.4728   -3.0467 C   0  0  0  0  0  0  0  0  0  0  0  0
    2.6924    0.3404   -4.1502 H   0  0  0  0  0  0  0  0  0  0  0  0
    0.6550    0.6514   -3.2607 H   0  0  0  0  0  0  0  0  0  0  0  0
    0.8129   -2.3494   -2.5963 H   0  0  0  0  0  0  0  0  0  0  0  0
   -0.6690   -1.3857   -2.6142 H   0  0  0  0  0  0  0  0  0  0  0  0
    0.2259   -1.6670   -4.1194 H   0  0  0  0  0  0  0  0  0  0  0  0
    0.2019    0.5893   -0.7269 N   0  0  0  0  0  0  0  0  0  0  0  0
    0.1242    0.9059    0.6756 C   0  0  2  0  0  0  0  0  0  0  0  0
    0.7027   -0.2827    1.4370 C   0  0  0  0  0  0  0  0  0  0  0  0
    0.0435   -0.9573    2.2254 O   0  0  0  0  0  0  0  0  0  0  0  0
   -1.3155    1.1774    1.1306 C   0  0  0  0  0  0  0  0  0  0  0  0
   -1.9598    2.4388    0.5203 C   0  0  0  0  0  0  0  0  0  0  0  0
   -3.4327    2.5164    0.9315 C   0  0  0  0  0  0  0  0  0  0  0  0
   -1.8485    2.4704   -1.0046 C   0  0  0  0  0  0  0  0  0  0  0  0
   -0.5975    0.8179   -1.3140 H   0  0  0  0  0  0  0  0  0  0  0  0
    0.7660    1.7768    0.8426 H   0  0  0  0  0  0  0  0  0  0  0  0
   -1.3296    1.2702    2.2256 H   0  0  0  0  0  0  0  0  0  0  0  0
   -1.9414    0.3060    0.8968 H   0  0  0  0  0  0  0  0  0  0  0  0
   -1.4581    3.3285    0.9201 H   0  0  0  0  0  0  0  0  0  0  0  0
   -3.9874    1.6491    0.5580 H   0  0  0  0  0  0  0  0  0  0  0  0
   -3.9048    3.4149    0.5202 H   0  0  0  0  0  0  0  0  0  0  0  0
   -3.5410    2.5445    2.0212 H   0  0  0  0  0  0  0  0  0  0  0  0
   -2.3358    1.5998   -1.4564 H   0  0  0  0  0  0  0  0  0  0  0  0
   -2.3231    3.3707   -1.4097 H   0  0  0  0  0  0  0  0  0  0  0  0
   -0.8035    2.4838   -1.3281 H   0  0  0  0  0  0  0  0  0  0  0  0
    2.0244   -0.5286    1.0919 N   0  0  0  0  0  0  0  0  0  0  0  0
    2.8000   -1.6138    1.6481 C   0  0  2  0  0  0  0  0  0  0  0  0
    1.8912   -2.8304    1.7639 C   0  0  0  0  0  0  0  0  0  0  0  0
    0.6657   -2.7497    1.8157 O   0  0  0  0  0  0  0  0  0  0  0  0
    3.3830   -1.2401    3.0021 C   0  0  0  0  0  0  0  0  0  0  0  0
    2.4791    0.0696    0.4085 H   0  0  0  0  0  0  0  0  0  0  0  0
    3.6049   -1.8250    0.9356 H   0  0  0  0  0  0  0  0  0  0  0  0
    2.5915   -1.0250    3.7292 H   0  0  0  0  0  0  0  0  0  0  0  0
    3.9937   -2.0527    3.4091 H   0  0  0  0  0  0  0  0  0  0  0  0
    4.0126   -0.3473    2.9223 H   0  0  0  0  0  0  0  0  0  0  0  0
    2.6113   -4.0139    1.8459 N   0  0  0  0  0  0  0  0  0  0  0  0
    1.9772   -5.3051    1.9746 C   0  0  0  0  0  0  0  0  0  0  0  0
    3.6243   -3.9883    1.7756 H   0  0  0  0  0  0  0  0  0  0  0  0
    1.8858   -5.5649    3.0396 H   0  0  0  0  0  0  0  0  0  0  0  0
    0.9766   -5.2691    1.5190 H   0  0  0  0  0  0  0  0  0  0  0  0
    2.5859   -6.0651    1.4629 H   0  0  0  0  0  0  0  0  0  0  0  0
  1  3  1  0  0  0  0
  1  7  1  0  0  0  0
  1  2  2  0  0  0  0
 37 38  1  0  0  0  0
 38 46  1  0  0  0  0
 38 39  2  0  0  0  0
  8  9  1  0  0  0  0
  9 17  1  0  0  0  0
  9 10  2  0  0  0  0
 18 19  1  0  0  0  0
 19 36  1  0  0  0  0
 19 20  2  0  0  0  0
 37 40  1  0  0  0  0
  8 11  1  0  0  0  0
 22 23  1  0  0  0  0
 22 24  1  0  0  0  0
 46 47  1  0  0  0  0
 18 21  1  0  0  0  0
 21 22  1  0  0  0  0
 36 37  1  0  0  0  0
  7  8  1  0  0  0  0
 17 18  1  0  0  0  0
  3  4  1  0  0  0  0
  3  5  1  0  0  0  0
  3  6  1  0  0  0  0
 40 43  1  0  0  0  0
 40 44  1  0  0  0  0
 40 45  1  0  0  0  0
 11 14  1  0  0  0  0
 11 15  1  0  0  0  0
 11 16  1  0  0  0  0
 23 30  1  0  0  0  0
 23 31  1  0  0  0  0
 23 32  1  0  0  0  0
 24 33  1  0  0  0  0
 24 34  1  0  0  0  0
 24 35  1  0  0  0  0
 47 49  1  0  0  0  0
 47 50  1  0  0  0  0
 47 51  1  0  0  0  0
 21 27  1  0  0  0  0
 21 28  1  0  0  0  0
 37 42  1  0  0  0  0
  8 13  1  0  0  0  0
 18 26  1  0  0  0  0
 22 29  1  0  0  0  0
 46 48  1  0  0  0  0
  7 12  1  0  0  0  0
 36 41  1  0  0  0  0
 17 25  1  0  0  0  0
M  END
$$$$

  -OEChem-05262214473D

 51 50  0     1  0  0  0  0  0999 V2000
    3.4018   -1.2440   -3.0186 C   0  0  0  0  0  0  0  0  0  0  0  0
    3.2697   -2.0909   -2.1427 O   0  0  0  0  0  0  0  0  0  0  0  0
    4.6845   -1.1645   -3.7779 C   0  0  0  0  0  0  0  0  0  0  0  0
    5.4123   -0.4862   -3.3041 H   0  0  0  0  0  0  0  0  0  0  0  0
    5.1949   -2.1387   -3.8443 H   0  0  0  0  0  0  0  0  0  0  0  0
    4.5953   -0.8128   -4.8182 H   0  0  0  0  0  0  0  0  0  0  0  0
    2.4540   -0.3103   -3.4040 N   0  0  0  0  0  0  0  0  0  0  0  0
    1.1494   -0.2128   -2.8039 C   0  0  2  0  0  0  0  0  0  0  0  0
    1.3350    0.0367   -1.3130 C   0  0  0  0  0  0  0  0  0  0  0  0
    2.3625   -0.2586   -0.7063 O   0  0  0  0  0  0  0  0  0  0  0  0
    0.3331   -1.4728   -3.0467 C   0  0  0  0  0  0  0  0  0  0  0  0
    2.6924    0.3404   -4.1502 H   0  0  0  0  0  0  0  0  0  0  0  0
    0.6550    0.6514   -3.2607 H   0  0  0  0  0  0  0  0  0  0  0  0
    0.8129   -2.3494   -2.5963 H   0  0  0  0  0  0  0  0  0  0  0  0
   -0.6690   -1.3857   -2.6142 H   0  0  0  0  0  0  0  0  0  0  0  0
    0.2259   -1.6670   -4.1194 H   0  0  0  0  0  0  0  0  0  0  0  0
    0.2019    0.5893   -0.7269 N   0  0  0  0  0  0  0  0  0  0  0  0
    0.1242    0.9059    0.6756 C   0  0  2  0  0  0  0  0  0  0  0  0
    0.7027   -0.2827    1.4370 C   0  0  0  0  0  0  0  0  0  0  0  0
    0.0028   -1.1146    2.0108 O   0  0  0  0  0  0  0  0  0  0  0  0
   -1.3155    1.1774    1.1306 C   0  0  0  0  0  0  0  0  0  0  0  0
   -1.9598    2.4388    0.5203 C   0  0  0  0  0  0  0  0  0  0  0  0
   -3.4327    2.5164    0.9315 C   0  0  0  0  0  0  0  0  0  0  0  0
   -1.8485    2.4704   -1.0046 C   0  0  0  0  0  0  0  0  0  0  0  0
   -0.5975    0.8179   -1.3140 H   0  0  0  0  0  0  0  0  0  0  0  0
    0.7660    1.7768    0.8426 H   0  0  0  0  0  0  0  0  0  0  0  0
   -1.3296    1.2702    2.2256 H   0  0  0  0  0  0  0  0  0  0  0  0
   -1.9414    0.3060    0.8968 H   0  0  0  0  0  0  0  0  0  0  0  0
   -1.4581    3.3285    0.9201 H   0  0  0  0  0  0  0  0  0  0  0  0
   -3.9874    1.6491    0.5580 H   0  0  0  0  0  0  0  0  0  0  0  0
   -3.9048    3.4149    0.5202 H   0  0  0  0  0  0  0  0  0  0  0  0
   -3.5410    2.5445    2.0212 H   0  0  0  0  0  0  0  0  0  0  0  0
   -2.3358    1.5998   -1.4564 H   0  0  0  0  0  0  0  0  0  0  0  0
   -2.3231    3.3707   -1.4097 H   0  0  0  0  0  0  0  0  0  0  0  0
   -0.8035    2.4838   -1.3281 H   0  0  0  0  0  0  0  0  0  0  0  0
    2.0874   -0.3294    1.3549 N   0  0  0  0  0  0  0  0  0  0  0  0
    2.8830   -1.3697    1.9662 C   0  0  2  0  0  0  0  0  0  0  0  0
    2.1475   -2.6911    1.7865 C   0  0  0  0  0  0  0  0  0  0  0  0
    0.9363   -2.7632    1.5889 O   0  0  0  0  0  0  0  0  0  0  0  0
    3.1326   -1.0823    3.4385 C   0  0  0  0  0  0  0  0  0  0  0  0
    2.5790    0.3910    0.8344 H   0  0  0  0  0  0  0  0  0  0  0  0
    3.8328   -1.4027    1.4215 H   0  0  0  0  0  0  0  0  0  0  0  0
    2.1923   -1.0454    4.0006 H   0  0  0  0  0  0  0  0  0  0  0  0
    3.7593   -1.8566    3.8932 H   0  0  0  0  0  0  0  0  0  0  0  0
    3.6350   -0.1176    3.5676 H   0  0  0  0  0  0  0  0  0  0  0  0
    2.9954   -3.7822    1.9158 N   0  0  0  0  0  0  0  0  0  0  0  0
    2.5344   -5.1460    1.7997 C   0  0  0  0  0  0  0  0  0  0  0  0
    3.9890   -3.6284    2.0603 H   0  0  0  0  0  0  0  0  0  0  0  0
    2.2740   -5.5317    2.7964 H   0  0  0  0  0  0  0  0  0  0  0  0
    1.6470   -5.1789    1.1506 H   0  0  0  0  0  0  0  0  0  0  0  0
    3.3311   -5.7663    1.3632 H   0  0  0  0  0  0  0  0  0  0  0  0
  1  3  1  0  0  0  0
  1  7  1  0  0  0  0
  1  2  2  0  0  0  0
 37 38  1  0  0  0  0
 38 46  1  0  0  0  0
 38 39  2  0  0  0  0
  8  9  1  0  0  0  0
  9 17  1  0  0  0  0
  9 10  2  0  0  0  0
 18 19  1  0  0  0  0
 19 36  1  0  0  0  0
 19 20  2  0  0  0  0
 37 40  1  0  0  0  0
  8 11  1  0  0  0  0
 22 23  1  0  0  0  0
 22 24  1  0  0  0  0
 46 47  1  0  0  0  0
 18 21  1  0  0  0  0
 21 22  1  0  0  0  0
 36 37  1  0  0  0  0
  7  8  1  0  0  0  0
 17 18  1  0  0  0  0
  3  4  1  0  0  0  0
  3  5  1  0  0  0  0
  3  6  1  0  0  0  0
 40 43  1  0  0  0  0
 40 44  1  0  0  0  0
 40 45  1  0  0  0  0
 11 14  1  0  0  0  0
 11 15  1  0  0  0  0
 11 16  1  0  0  0  0
 23 30  1  0  0  0  0
 23 31  1  0  0  0  0
 23 32  1  0  0  0  0
 24 33  1  0  0  0  0
 24 34  1  0  0  0  0
 24 35  1  0  0  0  0
 47 49  1  0  0  0  0
 47 50  1  0  0  0  0
 47 51  1  0  0  0  0
 21 27  1  0  0  0  0
 21 28  1  0  0  0  0
 37 42  1  0  0  0  0
  8 13  1  0  0  0  0
 18 26  1  0  0  0  0
 22 29  1  0  0  0  0
 46 48  1  0  0  0  0
  7 12  1  0  0  0  0
 36 41  1  0  0  0  0
 17 25  1  0  0  0  0
M  END
$$$$

  -OEChem-05262214473D

 51 50  0     1  0  0  0  0  0999 V2000
    3.4018   -1.2440   -3.0186 C   0  0  0  0  0  0  0  0  0  0  0  0
    3.2697   -2.0909   -2.1427 O   0  0  0  0  0  0  0  0  0  0  0  0
    4.6845   -1.1645   -3.7779 C   0  0  0  0  0  0  0  0  0  0  0  0
    5.4123   -0.4862   -3.3041 H   0  0  0  0  0  0  0  0  0  0  0  0
    5.1949   -2.1387   -3.8443 H   0  0  0  0  0  0  0  0  0  0  0  0
    4.5953   -0.8128   -4.8182 H   0  0  0  0  0  0  0  0  0  0  0  0
    2.4540   -0.3103   -3.4040 N   0  0  0  0  0  0  0  0  0  0  0  0
    1.1494   -0.2128   -2.8039 C   0  0  2  0  0  0  0  0  0  0  0  0
    1.3350    0.0367   -1.3130 C   0  0  0  0  0  0  0  0  0  0  0  0
    2.3625   -0.2586   -0.7063 O   0  0  0  0  0  0  0  0  0  0  0  0
    0.3331   -1.4728   -3.0467 C   0  0  0  0  0  0  0  0  0  0  0  0
    2.6924    0.3404   -4.1502 H   0  0  0  0  0  0  0  0  0  0  0  0
    0.6550    0.6514   -3.2607 H   0  0  0  0  0  0  0  0  0  0  0  0
    0.8129   -2.3494   -2.5963 H   0  0  0  0  0  0  0  0  0  0  0  0
   -0.6690   -1.3857   -2.6142 H   0  0  0  0  0  0  0  0  0  0  0  0
    0.2259   -1.6670   -4.1194 H   0  0  0  0  0  0  0  0  0  0  0  0
    0.2019    0.5893   -0.7269 N   0  0  0  0  0  0  0  0  0  0  0  0
    0.1242    0.9059    0.6756 C   0  0  2  0  0  0  0  0  0  0  0  0
    0.7027   -0.2827    1.4370 C   0  0  0  0  0  0  0  0  0  0  0  0
    0.0271   -1.2508    1.7799 O   0  0  0  0  0  0  0  0  0  0  0  0
   -1.3155    1.1774    1.1306 C   0  0  0  0  0  0  0  0  0  0  0  0
   -1.9598    2.4388    0.5203 C   0  0  0  0  0  0  0  0  0  0  0  0
   -3.4327    2.5164    0.9315 C   0  0  0  0  0  0  0  0  0  0  0  0
   -1.8485    2.4704   -1.0046 C   0  0  0  0  0  0  0  0  0  0  0  0
   -0.5975    0.8179   -1.3140 H   0  0  0  0  0  0  0  0  0  0  0  0
    0.7660    1.7768    0.8426 H   0  0  0  0  0  0  0  0  0  0  0  0
   -1.3296    1.2702    2.2256 H   0  0  0  0  0  0  0  0  0  0  0  0
   -1.9414    0.3060    0.8968 H   0  0  0  0  0  0  0  0  0  0  0  0
   -1.4581    3.3285    0.9201 H   0  0  0  0  0  0  0  0  0  0  0  0
   -3.9874    1.6491    0.5580 H   0  0  0  0  0  0  0  0  0  0  0  0
   -3.9048    3.4149    0.5202 H   0  0  0  0  0  0  0  0  0  0  0  0
   -3.5410    2.5445    2.0212 H   0  0  0  0  0  0  0  0  0  0  0  0
   -2.3358    1.5998   -1.4564 H   0  0  0  0  0  0  0  0  0  0  0  0
   -2.3231    3.3707   -1.4097 H   0  0  0  0  0  0  0  0  0  0  0  0
   -0.8035    2.4838   -1.3281 H   0  0  0  0  0  0  0  0  0  0  0  0
    2.0696   -0.1547    1.6412 N   0  0  0  0  0  0  0  0  0  0  0  0
    2.8674   -1.1544    2.3141 C   0  0  2  0  0  0  0  0  0  0  0  0
    2.3725   -2.5257    1.8738 C   0  0  0  0  0  0  0  0  0  0  0  0
    1.2453   -2.7191    1.4231 O   0  0  0  0  0  0  0  0  0  0  0  0
    2.7823   -1.0051    3.8251 C   0  0  0  0  0  0  0  0  0  0  0  0
    2.5480    0.6726    1.2975 H   0  0  0  0  0  0  0  0  0  0  0  0
    3.9005   -1.0131    1.9782 H   0  0  0  0  0  0  0  0  0  0  0  0
    1.7546   -1.1433    4.1803 H   0  0  0  0  0  0  0  0  0  0  0  0
    3.4098   -1.7451    4.3329 H   0  0  0  0  0  0  0  0  0  0  0  0
    3.1106   -0.0079    4.1374 H   0  0  0  0  0  0  0  0  0  0  0  0
    3.3224   -3.5155    2.0836 N   0  0  0  0  0  0  0  0  0  0  0  0
    3.0874   -4.9031    1.7587 C   0  0  0  0  0  0  0  0  0  0  0  0
    4.2374   -3.2616    2.4443 H   0  0  0  0  0  0  0  0  0  0  0  0
    2.6938   -5.4257    2.6430 H   0  0  0  0  0  0  0  0  0  0  0  0
    2.3572   -4.9689    0.9387 H   0  0  0  0  0  0  0  0  0  0  0  0
    4.0325   -5.3715    1.4466 H   0  0  0  0  0  0  0  0  0  0  0  0
  1  3  1  0  0  0  0
  1  7  1  0  0  0  0
  1  2  2  0  0  0  0
 37 38  1  0  0  0  0
 38 46  1  0  0  0  0
 38 39  2  0  0  0  0
  8  9  1  0  0  0  0
  9 17  1  0  0  0  0
  9 10  2  0  0  0  0
 18 19  1  0  0  0  0
 19 36  1  0  0  0  0
 19 20  2  0  0  0  0
 37 40  1  0  0  0  0
  8 11  1  0  0  0  0
 22 23  1  0  0  0  0
 22 24  1  0  0  0  0
 46 47  1  0  0  0  0
 18 21  1  0  0  0  0
 21 22  1  0  0  0  0
 36 37  1  0  0  0  0
  7  8  1  0  0  0  0
 17 18  1  0  0  0  0
  3  4  1  0  0  0  0
  3  5  1  0  0  0  0
  3  6  1  0  0  0  0
 40 43  1  0  0  0  0
 40 44  1  0  0  0  0
 40 45  1  0  0  0  0
 11 14  1  0  0  0  0
 11 15  1  0  0  0  0
 11 16  1  0  0  0  0
 23 30  1  0  0  0  0
 23 31  1  0  0  0  0
 23 32  1  0  0  0  0
 24 33  1  0  0  0  0
 24 34  1  0  0  0  0
 24 35  1  0  0  0  0
 47 49  1  0  0  0  0
 47 50  1  0  0  0  0
 47 51  1  0  0  0  0
 21 27  1  0  0  0  0
 21 28  1  0  0  0  0
 37 42  1  0  0  0  0
  8 13  1  0  0  0  0
 18 26  1  0  0  0  0
 22 29  1  0  0  0  0
 46 48  1  0  0  0  0
  7 12  1  0  0  0  0
 36 41  1  0  0  0  0
 17 25  1  0  0  0  0
M  END
$$$$

  -OEChem-05262214473D

 51 50  0     1  0  0  0  0  0999 V2000
    3.4018   -1.2440   -3.0186 C   0  0  0  0  0  0  0  0  0  0  0  0
    3.2697   -2.0909   -2.1427 O   0  0  0  0  0  0  0  0  0  0  0  0
    4.6845   -1.1645   -3.7779 C   0  0  0  0  0  0  0  0  0  0  0  0
    5.4123   -0.4862   -3.3041 H   0  0  0  0  0  0  0  0  0  0  0  0
    5.1949   -2.1387   -3.8443 H   0  0  0  0  0  0  0  0  0  0  0  0
    4.5953   -0.8128   -4.8182 H   0  0  0  0  0  0  0  0  0  0  0  0
    2.4540   -0.3103   -3.4040 N   0  0  0  0  0  0  0  0  0  0  0  0
    1.1494   -0.2128   -2.8039 C   0  0  2  0  0  0  0  0  0  0  0  0
    1.3350    0.0367   -1.3130 C   0  0  0  0  0  0  0  0  0  0  0  0
    2.3625   -0.2586   -0.7063 O   0  0  0  0  0  0  0  0  0  0  0  0
    0.3331   -1.4728   -3.0467 C   0  0  0  0  0  0  0  0  0  0  0  0
    2.6924    0.3404   -4.1502 H   0  0  0  0  0  0  0  0  0  0  0  0
    0.6550    0.6514   -3.2607 H   0  0  0  0  0  0  0  0  0  0  0  0
    0.8129   -2.3494   -2.5963 H   0  0  0  0  0  0  0  0  0  0  0  0
   -0.6690   -1.3857   -2.6142 H   0  0  0  0  0  0  0  0  0  0  0  0
    0.2259   -1.6670   -4.1194 H   0  0  0  0  0  0  0  0  0  0  0  0
    0.2019    0.5893   -0.7269 N   0  0  0  0  0  0  0  0  0  0  0  0
    0.1242    0.9059    0.6756 C   0  0  2  0  0  0  0  0  0  0  0  0
    0.7027   -0.2827    1.4370 C   0  0  0  0  0  0  0  0  0  0  0  0
    0.1147   -1.3565    1.5483 O   0  0  0  0  0  0  0  0  0  0  0  0
   -1.3155    1.1774    1.1306 C   0  0  0  0  0  0  0  0  0  0  0  0
   -1.9598    2.4388    0.5203 C   0  0  0  0  0  0  0  0  0  0  0  0
   -3.4327    2.5164    0.9315 C   0  0  0  0  0  0  0  0  0  0  0  0
   -1.8485    2.4704   -1.0046 C   0  0  0  0  0  0  0  0  0  0  0  0
   -0.5975    0.8179   -1.3140 H   0  0  0  0  0  0  0  0  0  0  0  0
    0.7660    1.7768    0.8426 H   0  0  0  0  0  0  0  0  0  0  0  0
   -1.3296    1.2702    2.2256 H   0  0  0  0  0  0  0  0  0  0  0  0
   -1.9414    0.3060    0.8968 H   0  0  0  0  0  0  0  0  0  0  0  0
   -1.4581    3.3285    0.9201 H   0  0  0  0  0  0  0  0  0  0  0  0
   -3.9874    1.6491    0.5580 H   0  0  0  0  0  0  0  0  0  0  0  0
   -3.9048    3.4149    0.5202 H   0  0  0  0  0  0  0  0  0  0  0  0
   -3.5410    2.5445    2.0212 H   0  0  0  0  0  0  0  0  0  0  0  0
   -2.3358    1.5998   -1.4564 H   0  0  0  0  0  0  0  0  0  0  0  0
   -2.3231    3.3707   -1.4097 H   0  0  0  0  0  0  0  0  0  0  0  0
   -0.8035    2.4838   -1.3281 H   0  0  0  0  0  0  0  0  0  0  0  0
    1.9720   -0.0163    1.9313 N   0  0  0  0  0  0  0  0  0  0  0  0
    2.7545   -0.9825    2.6682 C   0  0  2  0  0  0  0  0  0  0  0  0
    2.5508   -2.3454    2.0197 C   0  0  0  0  0  0  0  0  0  0  0  0
    1.5715   -2.6203    1.3295 O   0  0  0  0  0  0  0  0  0  0  0  0
    2.3561   -1.0138    4.1355 C   0  0  0  0  0  0  0  0  0  0  0  0
    2.3884    0.8952    1.7662 H   0  0  0  0  0  0  0  0  0  0  0  0
    3.8033   -0.6827    2.5678 H   0  0  0  0  0  0  0  0  0  0  0  0
    1.3083   -1.3121    4.2560 H   0  0  0  0  0  0  0  0  0  0  0  0
    2.9692   -1.7256    4.6980 H   0  0  0  0  0  0  0  0  0  0  0  0
    2.4750   -0.0255    4.5927 H   0  0  0  0  0  0  0  0  0  0  0  0
    3.5699   -3.2322    2.3378 N   0  0  0  0  0  0  0  0  0  0  0  0
    3.5985   -4.5930    1.8545 C   0  0  0  0  0  0  0  0  0  0  0  0
    4.3525   -2.9129    2.9012 H   0  0  0  0  0  0  0  0  0  0  0  0
    3.1165   -5.2540    2.5898 H   0  0  0  0  0  0  0  0  0  0  0  0
    3.0587   -4.6536    0.8979 H   0  0  0  0  0  0  0  0  0  0  0  0
    4.6421   -4.9078    1.7072 H   0  0  0  0  0  0  0  0  0  0  0  0
  1  3  1  0  0  0  0
  1  7  1  0  0  0  0
  1  2  2  0  0  0  0
 37 38  1  0  0  0  0
 38 46  1  0  0  0  0
 38 39  2  0  0  0  0
  8  9  1  0  0  0  0
  9 17  1  0  0  0  0
  9 10  2  0  0  0  0
 18 19  1  0  0  0  0
 19 36  1  0  0  0  0
 19 20  2  0  0  0  0
 37 40  1  0  0  0  0
  8 11  1  0  0  0  0
 22 23  1  0  0  0  0
 22 24  1  0  0  0  0
 46 47  1  0  0  0  0
 18 21  1  0  0  0  0
 21 22  1  0  0  0  0
 36 37  1  0  0  0  0
  7  8  1  0  0  0  0
 17 18  1  0  0  0  0
  3  4  1  0  0  0  0
  3  5  1  0  0  0  0
  3  6  1  0  0  0  0
 40 43  1  0  0  0  0
 40 44  1  0  0  0  0
 40 45  1  0  0  0  0
 11 14  1  0  0  0  0
 11 15  1  0  0  0  0
 11 16  1  0  0  0  0
 23 30  1  0  0  0  0
 23 31  1  0  0  0  0
 23 32  1  0  0  0  0
 24 33  1  0  0  0  0
 24 34  1  0  0  0  0
 24 35  1  0  0  0  0
 47 49  1  0  0  0  0
 47 50  1  0  0  0  0
 47 51  1  0  0  0  0
 21 27  1  0  0  0  0
 21 28  1  0  0  0  0
 37 42  1  0  0  0  0
  8 13  1  0  0  0  0
 18 26  1  0  0  0  0
 22 29  1  0  0  0  0
 46 48  1  0  0  0  0
  7 12  1  0  0  0  0
 36 41  1  0  0  0  0
 17 25  1  0  0  0  0
M  END
$$$$

  -OEChem-05262214473D

 51 50  0     1  0  0  0  0  0999 V2000
    3.4018   -1.2440   -3.0186 C   0  0  0  0  0  0  0  0  0  0  0  0
    3.2697   -2.0909   -2.1427 O   0  0  0  0  0  0  0  0  0  0  0  0
    4.6845   -1.1645   -3.7779 C   0  0  0  0  0  0  0  0  0  0  0  0
    5.4123   -0.4862   -3.3041 H   0  0  0  0  0  0  0  0  0  0  0  0
    5.1949   -2.1387   -3.8443 H   0  0  0  0  0  0  0  0  0  0  0  0
    4.5953   -0.8128   -4.8182 H   0  0  0  0  0  0  0  0  0  0  0  0
    2.4540   -0.3103   -3.4040 N   0  0  0  0  0  0  0  0  0  0  0  0
    1.1494   -0.2128   -2.8039 C   0  0  2  0  0  0  0  0  0  0  0  0
    1.3350    0.0367   -1.3130 C   0  0  0  0  0  0  0  0  0  0  0  0
    2.3625   -0.2586   -0.7063 O   0  0  0  0  0  0  0  0  0  0  0  0
    0.3331   -1.4728   -3.0467 C   0  0  0  0  0  0  0  0  0  0  0  0
    2.6924    0.3404   -4.1502 H   0  0  0  0  0  0  0  0  0  0  0  0
    0.6550    0.6514   -3.2607 H   0  0  0  0  0  0  0  0  0  0  0  0
    0.8129   -2.3494   -2.5963 H   0  0  0  0  0  0  0  0  0  0  0  0
   -0.6690   -1.3857   -2.6142 H   0  0  0  0  0  0  0  0  0  0  0  0
    0.2259   -1.6670   -4.1194 H   0  0  0  0  0  0  0  0  0  0  0  0
    0.2019    0.5893   -0.7269 N   0  0  0  0  0  0  0  0  0  0  0  0
    0.1242    0.9059    0.6756 C   0  0  2  0  0  0  0  0  0  0  0  0
    0.7027   -0.2827    1.4370 C   0  0  0  0  0  0  0  0  0  0  0  0
    0.2596   -1.4246    1.3319 O   0  0  0  0  0  0  0  0  0  0  0  0
   -1.3155    1.1774    1.1306 C   0  0  0  0  0  0  0  0  0  0  0  0
   -1.9598    2.4388    0.5203 C   0  0  0  0  0  0  0  0  0  0  0  0
   -3.4327    2.5164    0.9315 C   0  0  0  0  0  0  0  0  0  0  0  0
   -1.8485    2.4704   -1.0046 C   0  0  0  0  0  0  0  0  0  0  0  0
   -0.5975    0.8179   -1.3140 H   0  0  0  0  0  0  0  0  0  0  0  0
    0.7660    1.7768    0.8426 H   0  0  0  0  0  0  0  0  0  0  0  0
   -1.3296    1.2702    2.2256 H   0  0  0  0  0  0  0  0  0  0  0  0
   -1.9414    0.3060    0.8968 H   0  0  0  0  0  0  0  0  0  0  0  0
   -1.4581    3.3285    0.9201 H   0  0  0  0  0  0  0  0  0  0  0  0
   -3.9874    1.6491    0.5580 H   0  0  0  0  0  0  0  0  0  0  0  0
   -3.9048    3.4149    0.5202 H   0  0  0  0  0  0  0  0  0  0  0  0
   -3.5410    2.5445    2.0212 H   0  0  0  0  0  0  0  0  0  0  0  0
   -2.3358    1.5998   -1.4564 H   0  0  0  0  0  0  0  0  0  0  0  0
   -2.3231    3.3707   -1.4097 H   0  0  0  0  0  0  0  0  0  0  0  0
   -0.8035    2.4838   -1.3281 H   0  0  0  0  0  0  0  0  0  0  0  0
    1.8014    0.0762    2.2054 N   0  0  0  0  0  0  0  0  0  0  0  0
    2.5517   -0.8659    3.0042 C   0  0  2  0  0  0  0  0  0  0  0  0
    2.6704   -2.1626    2.2143 C   0  0  0  0  0  0  0  0  0  0  0  0
    1.8926   -2.4735    1.3146 O   0  0  0  0  0  0  0  0  0  0  0  0
    1.8829   -1.1076    4.3485 C   0  0  0  0  0  0  0  0  0  0  0  0
    2.1109    1.0436    2.2086 H   0  0  0  0  0  0  0  0  0  0  0  0
    3.5478   -0.4340    3.1502 H   0  0  0  0  0  0  0  0  0  0  0  0
    0.8837   -1.5402    4.2225 H   0  0  0  0  0  0  0  0  0  0  0  0
    2.4674   -1.7996    4.9637 H   0  0  0  0  0  0  0  0  0  0  0  0
    1.7714   -0.1694    4.9026 H   0  0  0  0  0  0  0  0  0  0  0  0
    3.7212   -2.9515    2.6611 N   0  0  0  0  0  0  0  0  0  0  0  0
    4.0327   -4.2368    2.0805 C   0  0  0  0  0  0  0  0  0  0  0  0
    4.3264   -2.6060    3.4000 H   0  0  0  0  0  0  0  0  0  0  0  0
    3.5133   -5.0283    2.6406 H   0  0  0  0  0  0  0  0  0  0  0  0
    3.7039   -4.2543    1.0310 H   0  0  0  0  0  0  0  0  0  0  0  0
    5.1185   -4.4067    2.1275 H   0  0  0  0  0  0  0  0  0  0  0  0
  1  3  1  0  0  0  0
  1  7  1  0  0  0  0
  1  2  2  0  0  0  0
 37 38  1  0  0  0  0
 38 46  1  0  0  0  0
 38 39  2  0  0  0  0
  8  9  1  0  0  0  0
  9 17  1  0  0  0  0
  9 10  2  0  0  0  0
 18 19  1  0  0  0  0
 19 36  1  0  0  0  0
 19 20  2  0  0  0  0
 37 40  1  0  0  0  0
  8 11  1  0  0  0  0
 22 23  1  0  0  0  0
 22 24  1  0  0  0  0
 46 47  1  0  0  0  0
 18 21  1  0  0  0  0
 21 22  1  0  0  0  0
 36 37  1  0  0  0  0
  7  8  1  0  0  0  0
 17 18  1  0  0  0  0
  3  4  1  0  0  0  0
  3  5  1  0  0  0  0
  3  6  1  0  0  0  0
 40 43  1  0  0  0  0
 40 44  1  0  0  0  0
 40 45  1  0  0  0  0
 11 14  1  0  0  0  0
 11 15  1  0  0  0  0
 11 16  1  0  0  0  0
 23 30  1  0  0  0  0
 23 31  1  0  0  0  0
 23 32  1  0  0  0  0
 24 33  1  0  0  0  0
 24 34  1  0  0  0  0
 24 35  1  0  0  0  0
 47 49  1  0  0  0  0
 47 50  1  0  0  0  0
 47 51  1  0  0  0  0
 21 27  1  0  0  0  0
 21 28  1  0  0  0  0
 37 42  1  0  0  0  0
  8 13  1  0  0  0  0
 18 26  1  0  0  0  0
 22 29  1  0  0  0  0
 46 48  1  0  0  0  0
  7 12  1  0  0  0  0
 36 41  1  0  0  0  0
 17 25  1  0  0  0  0
M  END
$$$$

  -OEChem-05262214473D

 51 50  0     1  0  0  0  0  0999 V2000
    3.4018   -1.2440   -3.0186 C   0  0  0  0  0  0  0  0  0  0  0  0
    3.2697   -2.0909   -2.1427 O   0  0  0  0  0  0  0  0  0  0  0  0
    4.6845   -1.1645   -3.7779 C   0  0  0  0  0  0  0  0  0  0  0  0
    5.4123   -0.4862   -3.3041 H   0  0  0  0  0  0  0  0  0  0  0  0
    5.1949   -2.1387   -3.8443 H   0  0  0  0  0  0  0  0  0  0  0  0
    4.5953   -0.8128   -4.8182 H   0  0  0  0  0  0  0  0  0  0  0  0
    2.4540   -0.3103   -3.4040 N   0  0  0  0  0  0  0  0  0  0  0  0
    1.1494   -0.2128   -2.8039 C   0  0  2  0  0  0  0  0  0  0  0  0
    1.3350    0.0367   -1.3130 C   0  0  0  0  0  0  0  0  0  0  0  0
    2.3625   -0.2586   -0.7063 O   0  0  0  0  0  0  0  0  0  0  0  0
    0.3331   -1.4728   -3.0467 C   0  0  0  0  0  0  0  0  0  0  0  0
    2.6924    0.3404   -4.1502 H   0  0  0  0  0  0  0  0  0  0  0  0
    0.6550    0.6514   -3.2607 H   0  0  0  0  0  0  0  0  0  0  0  0
    0.8129   -2.3494   -2.5963 H   0  0  0  0  0  0  0  0  0  0  0  0
   -0.6690   -1.3857   -2.6142 H   0  0  0  0  0  0  0  0  0  0  0  0
    0.2259   -1.6670   -4.1194 H   0  0  0  0  0  0  0  0  0  0  0  0
    0.2019    0.5893   -0.7269 N   0  0  0  0  0  0  0  0  0  0  0  0
    0.1242    0.9059    0.6756 C   0  0  2  0  0  0  0  0  0  0  0  0
    0.7027   -0.2827    1.4370 C   0  0  0  0  0  0  0  0  0  0  0  0
    0.4521   -1.4503    1.1455 O   0  0  0  0  0  0  0  0  0  0  0  0
   -1.3155    1.1774    1.1306 C   0  0  0  0  0  0  0  0  0  0  0  0
   -1.9598    2.4388    0.5203 C   0  0  0  0  0  0  0  0  0  0  0  0
   -3.4327    2.5164    0.9315 C   0  0  0  0  0  0  0  0  0  0  0  0
   -1.8485    2.4704   -1.0046 C   0  0  0  0  0  0  0  0  0  0  0  0
   -0.5975    0.8179   -1.3140 H   0  0  0  0  0  0  0  0  0  0  0  0
    0.7660    1.7768    0.8426 H   0  0  0  0  0  0  0  0  0  0  0  0
   -1.3296    1.2702    2.2256 H   0  0  0  0  0  0  0  0  0  0  0  0
   -1.9414    0.3060    0.8968 H   0  0  0  0  0  0  0  0  0  0  0  0
   -1.4581    3.3285    0.9201 H   0  0  0  0  0  0  0  0  0  0  0  0
   -3.9874    1.6491    0.5580 H   0  0  0  0  0  0  0  0  0  0  0  0
   -3.9048    3.4149    0.5202 H   0  0  0  0  0  0  0  0  0  0  0  0
   -3.5410    2.5445    2.0212 H   0  0  0  0  0  0  0  0  0  0  0  0
   -2.3358    1.5998   -1.4564 H   0  0  0  0  0  0  0  0  0  0  0  0
   -2.3231    3.3707   -1.4097 H   0  0  0  0  0  0  0  0  0  0  0  0
   -0.8035    2.4838   -1.3281 H   0  0  0  0  0  0  0  0  0  0  0  0
    1.5694    0.1167    2.4449 N   0  0  0  0  0  0  0  0  0  0  0  0
    2.2731   -0.8124    3.2994 C   0  0  2  0  0  0  0  0  0  0  0  0
    2.7231   -1.9896    2.4443 C   0  0  0  0  0  0  0  0  0  0  0  0
    2.1869   -2.2888    1.3794 O   0  0  0  0  0  0  0  0  0  0  0  0
    1.3950   -1.2803    4.4496 C   0  0  0  0  0  0  0  0  0  0  0  0
    1.7346    1.1076    2.5945 H   0  0  0  0  0  0  0  0  0  0  0  0
    3.1515   -0.2839    3.6856 H   0  0  0  0  0  0  0  0  0  0  0  0
    0.5098   -1.8121    4.0821 H   0  0  0  0  0  0  0  0  0  0  0  0
    1.9387   -1.9620    5.1120 H   0  0  0  0  0  0  0  0  0  0  0  0
    1.0480   -0.4297    5.0460 H   0  0  0  0  0  0  0  0  0  0  0  0
    3.7658   -2.6926    3.0313 N   0  0  0  0  0  0  0  0  0  0  0  0
    4.3606   -3.8589    2.4214 C   0  0  0  0  0  0  0  0  0  0  0  0
    4.1611   -2.3619    3.9066 H   0  0  0  0  0  0  0  0  0  0  0  0
    3.8572   -4.7641    2.7919 H   0  0  0  0  0  0  0  0  0  0  0  0
    4.2487   -3.7984    1.3287 H   0  0  0  0  0  0  0  0  0  0  0  0
    5.4292   -3.9024    2.6787 H   0  0  0  0  0  0  0  0  0  0  0  0
  1  3  1  0  0  0  0
  1  7  1  0  0  0  0
  1  2  2  0  0  0  0
 37 38  1  0  0  0  0
 38 46  1  0  0  0  0
 38 39  2  0  0  0  0
  8  9  1  0  0  0  0
  9 17  1  0  0  0  0
  9 10  2  0  0  0  0
 18 19  1  0  0  0  0
 19 36  1  0  0  0  0
 19 20  2  0  0  0  0
 37 40  1  0  0  0  0
  8 11  1  0  0  0  0
 22 23  1  0  0  0  0
 22 24  1  0  0  0  0
 46 47  1  0  0  0  0
 18 21  1  0  0  0  0
 21 22  1  0  0  0  0
 36 37  1  0  0  0  0
  7  8  1  0  0  0  0
 17 18  1  0  0  0  0
  3  4  1  0  0  0  0
  3  5  1  0  0  0  0
  3  6  1  0  0  0  0
 40 43  1  0  0  0  0
 40 44  1  0  0  0  0
 40 45  1  0  0  0  0
 11 14  1  0  0  0  0
 11 15  1  0  0  0  0
 11 16  1  0  0  0  0
 23 30  1  0  0  0  0
 23 31  1  0  0  0  0
 23 32  1  0  0  0  0
 24 33  1  0  0  0  0
 24 34  1  0  0  0  0
 24 35  1  0  0  0  0
 47 49  1  0  0  0  0
 47 50  1  0  0  0  0
 47 51  1  0  0  0  0
 21 27  1  0  0  0  0
 21 28  1  0  0  0  0
 37 42  1  0  0  0  0
  8 13  1  0  0  0  0
 18 26  1  0  0  0  0
 22 29  1  0  0  0  0
 46 48  1  0  0  0  0
  7 12  1  0  0  0  0
 36 41  1  0  0  0  0
 17 25  1  0  0  0  0
M  END
$$$$

  -OEChem-05262214473D

 51 50  0     1  0  0  0  0  0999 V2000
    3.4018   -1.2440   -3.0186 C   0  0  0  0  0  0  0  0  0  0  0  0
    3.2697   -2.0909   -2.1427 O   0  0  0  0  0  0  0  0  0  0  0  0
    4.6845   -1.1645   -3.7779 C   0  0  0  0  0  0  0  0  0  0  0  0
    5.4123   -0.4862   -3.3041 H   0  0  0  0  0  0  0  0  0  0  0  0
    5.1949   -2.1387   -3.8443 H   0  0  0  0  0  0  0  0  0  0  0  0
    4.5953   -0.8128   -4.8182 H   0  0  0  0  0  0  0  0  0  0  0  0
    2.4540   -0.3103   -3.4040 N   0  0  0  0  0  0  0  0  0  0  0  0
    1.1494   -0.2128   -2.8039 C   0  0  2  0  0  0  0  0  0  0  0  0
    1.3350    0.0367   -1.3130 C   0  0  0  0  0  0  0  0  0  0  0  0
    2.3625   -0.2586   -0.7063 O   0  0  0  0  0  0  0  0  0  0  0  0
    0.3331   -1.4728   -3.0467 C   0  0  0  0  0  0  0  0  0  0  0  0
    2.6924    0.3404   -4.1502 H   0  0  0  0  0  0  0  0  0  0  0  0
    0.6550    0.6514   -3.2607 H   0  0  0  0  0  0  0  0  0  0  0  0
    0.8129   -2.3494   -2.5963 H   0  0  0  0  0  0  0  0  0  0  0  0
   -0.6690   -1.3857   -2.6142 H   0  0  0  0  0  0  0  0  0  0  0  0
    0.2259   -1.6670   -4.1194 H   0  0  0  0  0  0  0  0  0  0  0  0
    0.2019    0.5893   -0.7269 N   0  0  0  0  0  0  0  0  0  0  0  0
    0.1242    0.9059    0.6756 C   0  0  2  0  0  0  0  0  0  0  0  0
    0.7027   -0.2827    1.4370 C   0  0  0  0  0  0  0  0  0  0  0  0
    0.6789   -1.4321    1.0017 O   0  0  0  0  0  0  0  0  0  0  0  0
   -1.3155    1.1774    1.1306 C   0  0  0  0  0  0  0  0  0  0  0  0
   -1.9598    2.4388    0.5203 C   0  0  0  0  0  0  0  0  0  0  0  0
   -3.4327    2.5164    0.9315 C   0  0  0  0  0  0  0  0  0  0  0  0
   -1.8485    2.4704   -1.0046 C   0  0  0  0  0  0  0  0  0  0  0  0
   -0.5975    0.8179   -1.3140 H   0  0  0  0  0  0  0  0  0  0  0  0
    0.7660    1.7768    0.8426 H   0  0  0  0  0  0  0  0  0  0  0  0
   -1.3296    1.2702    2.2256 H   0  0  0  0  0  0  0  0  0  0  0  0
   -1.9414    0.3060    0.8968 H   0  0  0  0  0  0  0  0  0  0  0  0
   -1.4581    3.3285    0.9201 H   0  0  0  0  0  0  0  0  0  0  0  0
   -3.9874    1.6491    0.5580 H   0  0  0  0  0  0  0  0  0  0  0  0
   -3.9048    3.4149    0.5202 H   0  0  0  0  0  0  0  0  0  0  0  0
   -3.5410    2.5445    2.0212 H   0  0  0  0  0  0  0  0  0  0  0  0
   -2.3358    1.5998   -1.4564 H   0  0  0  0  0  0  0  0  0  0  0  0
   -2.3231    3.3707   -1.4097 H   0  0  0  0  0  0  0  0  0  0  0  0
   -0.8035    2.4838   -1.3281 H   0  0  0  0  0  0  0  0  0  0  0  0
    1.2917    0.1023    2.6334 N   0  0  0  0  0  0  0  0  0  0  0  0
    1.9375   -0.8257    3.5336 C   0  0  2  0  0  0  0  0  0  0  0  0
    2.7052   -1.8383    2.6941 C   0  0  0  0  0  0  0  0  0  0  0  0
    2.4342   -2.0787    1.5194 O   0  0  0  0  0  0  0  0  0  0  0  0
    0.9257   -1.5201    4.4319 C   0  0  0  0  0  0  0  0  0  0  0  0
    1.2849    1.0830    2.8977 H   0  0  0  0  0  0  0  0  0  0  0  0
    2.6412   -0.2427    4.1376 H   0  0  0  0  0  0  0  0  0  0  0  0
    0.2120   -2.1093    3.8445 H   0  0  0  0  0  0  0  0  0  0  0  0
    1.4192   -2.2016    5.1326 H   0  0  0  0  0  0  0  0  0  0  0  0
    0.3539   -0.7886    5.0130 H   0  0  0  0  0  0  0  0  0  0  0  0
    3.7008   -2.4731    3.4234 N   0  0  0  0  0  0  0  0  0  0  0  0
    4.5597   -3.4849    2.8538 C   0  0  0  0  0  0  0  0  0  0  0  0
    3.8676   -2.1972    4.3866 H   0  0  0  0  0  0  0  0  0  0  0  0
    4.1247   -4.4792    3.0332 H   0  0  0  0  0  0  0  0  0  0  0  0
    4.6559   -3.3169    1.7710 H   0  0  0  0  0  0  0  0  0  0  0  0
    5.5530   -3.4292    3.3232 H   0  0  0  0  0  0  0  0  0  0  0  0
  1  3  1  0  0  0  0
  1  7  1  0  0  0  0
  1  2  2  0  0  0  0
 37 38  1  0  0  0  0
 38 46  1  0  0  0  0
 38 39  2  0  0  0  0
  8  9  1  0  0  0  0
  9 17  1  0  0  0  0
  9 10  2  0  0  0  0
 18 19  1  0  0  0  0
 19 36  1  0  0  0  0
 19 20  2  0  0  0  0
 37 40  1  0  0  0  0
  8 11  1  0  0  0  0
 22 23  1  0  0  0  0
 22 24  1  0  0  0  0
 46 47  1  0  0  0  0
 18 21  1  0  0  0  0
 21 22  1  0  0  0  0
 36 37  1  0  0  0  0
  7  8  1  0  0  0  0
 17 18  1  0  0  0  0
  3  4  1  0  0  0  0
  3  5  1  0  0  0  0
  3  6  1  0  0  0  0
 40 43  1  0  0  0  0
 40 44  1  0  0  0  0
 40 45  1  0  0  0  0
 11 14  1  0  0  0  0
 11 15  1  0  0  0  0
 11 16  1  0  0  0  0
 23 30  1  0  0  0  0
 23 31  1  0  0  0  0
 23 32  1  0  0  0  0
 24 33  1  0  0  0  0
 24 34  1  0  0  0  0
 24 35  1  0  0  0  0
 47 49  1  0  0  0  0
 47 50  1  0  0  0  0
 47 51  1  0  0  0  0
 21 27  1  0  0  0  0
 21 28  1  0  0  0  0
 37 42  1  0  0  0  0
  8 13  1  0  0  0  0
 18 26  1  0  0  0  0
 22 29  1  0  0  0  0
 46 48  1  0  0  0  0
  7 12  1  0  0  0  0
 36 41  1  0  0  0  0
 17 25  1  0  0  0  0
M  END
$$$$

  -OEChem-05262214473D

 51 50  0     1  0  0  0  0  0999 V2000
    3.4018   -1.2440   -3.0186 C   0  0  0  0  0  0  0  0  0  0  0  0
    3.2697   -2.0909   -2.1427 O   0  0  0  0  0  0  0  0  0  0  0  0
    4.6845   -1.1645   -3.7779 C   0  0  0  0  0  0  0  0  0  0  0  0
    5.4123   -0.4862   -3.3041 H   0  0  0  0  0  0  0  0  0  0  0  0
    5.1949   -2.1387   -3.8443 H   0  0  0  0  0  0  0  0  0  0  0  0
    4.5953   -0.8128   -4.8182 H   0  0  0  0  0  0  0  0  0  0  0  0
    2.4540   -0.3103   -3.4040 N   0  0  0  0  0  0  0  0  0  0  0  0
    1.1494   -0.2128   -2.8039 C   0  0  2  0  0  0  0  0  0  0  0  0
    1.3350    0.0367   -1.3130 C   0  0  0  0  0  0  0  0  0  0  0  0
    2.3625   -0.2586   -0.7063 O   0  0  0  0  0  0  0  0  0  0  0  0
    0.3331   -1.4728   -3.0467 C   0  0  0  0  0  0  0  0  0  0  0  0
    2.6924    0.3404   -4.1502 H   0  0  0  0  0  0  0  0  0  0  0  0
    0.6550    0.6514   -3.2607 H   0  0  0  0  0  0  0  0  0  0  0  0
    0.8129   -2.3494   -2.5963 H   0  0  0  0  0  0  0  0  0  0  0  0
   -0.6690   -1.3857   -2.6142 H   0  0  0  0  0  0  0  0  0  0  0  0
    0.2259   -1.6670   -4.1194 H   0  0  0  0  0  0  0  0  0  0  0  0
    0.2019    0.5893   -0.7269 N   0  0  0  0  0  0  0  0  0  0  0  0
    0.1242    0.9059    0.6756 C   0  0  2  0  0  0  0  0  0  0  0  0
    0.7027   -0.2827    1.4370 C   0  0  0  0  0  0  0  0  0  0  0  0
    0.9246   -1.3710    0.9103 O   0  0  0  0  0  0  0  0  0  0  0  0
   -1.3155    1.1774    1.1306 C   0  0  0  0  0  0  0  0  0  0  0  0
   -1.9598    2.4388    0.5203 C   0  0  0  0  0  0  0  0  0  0  0  0
   -3.4327    2.5164    0.9315 C   0  0  0  0  0  0  0  0  0  0  0  0
   -1.8485    2.4704   -1.0046 C   0  0  0  0  0  0  0  0  0  0  0  0
   -0.5975    0.8179   -1.3140 H   0  0  0  0  0  0  0  0  0  0  0  0
    0.7660    1.7768    0.8426 H   0  0  0  0  0  0  0  0  0  0  0  0
   -1.3296    1.2702    2.2256 H   0  0  0  0  0  0  0  0  0  0  0  0
   -1.9414    0.3060    0.8968 H   0  0  0  0  0  0  0  0  0  0  0  0
   -1.4581    3.3285    0.9201 H   0  0  0  0  0  0  0  0  0  0  0  0
   -3.9874    1.6491    0.5580 H   0  0  0  0  0  0  0  0  0  0  0  0
   -3.9048    3.4149    0.5202 H   0  0  0  0  0  0  0  0  0  0  0  0
   -3.5410    2.5445    2.0212 H   0  0  0  0  0  0  0  0  0  0  0  0
   -2.3358    1.5998   -1.4564 H   0  0  0  0  0  0  0  0  0  0  0  0
   -2.3231    3.3707   -1.4097 H   0  0  0  0  0  0  0  0  0  0  0  0
   -0.8035    2.4838   -1.3281 H   0  0  0  0  0  0  0  0  0  0  0  0
    0.9874    0.0340    2.7580 N   0  0  0  0  0  0  0  0  0  0  0  0
    1.5678   -0.9049    3.6908 C   0  0  2  0  0  0  0  0  0  0  0  0
    2.6180   -1.7189    2.9466 C   0  0  0  0  0  0  0  0  0  0  0  0
    2.6177   -1.8576    1.7252 O   0  0  0  0  0  0  0  0  0  0  0  0
    0.5069   -1.8106    4.2966 C   0  0  0  0  0  0  0  0  0  0  0  0
    0.7926    0.9713    3.0974 H   0  0  0  0  0  0  0  0  0  0  0  0
    2.0520   -0.3131    4.4753 H   0  0  0  0  0  0  0  0  0  0  0  0
    0.0108   -2.4115    3.5257 H   0  0  0  0  0  0  0  0  0  0  0  0
    0.9441   -2.5023    5.0243 H   0  0  0  0  0  0  0  0  0  0  0  0
   -0.2636   -1.2218    4.8060 H   0  0  0  0  0  0  0  0  0  0  0  0
    3.5306   -2.3079    3.8106 N   0  0  0  0  0  0  0  0  0  0  0  0
    4.6165   -3.1404    3.3484 C   0  0  0  0  0  0  0  0  0  0  0  0
    3.4661   -2.1231    4.8073 H   0  0  0  0  0  0  0  0  0  0  0  0
    4.2977   -4.1932    3.3482 H   0  0  0  0  0  0  0  0  0  0  0  0
    4.8979   -2.8426    2.3275 H   0  0  0  0  0  0  0  0  0  0  0  0
    5.4814   -3.0195    4.0172 H   0  0  0  0  0  0  0  0  0  0  0  0
  1  3  1  0  0  0  0
  1  7  1  0  0  0  0
  1  2  2  0  0  0  0
 37 38  1  0  0  0  0
 38 46  1  0  0  0  0
 38 39  2  0  0  0  0
  8  9  1  0  0  0  0
  9 17  1  0  0  0  0
  9 10  2  0  0  0  0
 18 19  1  0  0  0  0
 19 36  1  0  0  0  0
 19 20  2  0  0  0  0
 37 40  1  0  0  0  0
  8 11  1  0  0  0  0
 22 23  1  0  0  0  0
 22 24  1  0  0  0  0
 46 47  1  0  0  0  0
 18 21  1  0  0  0  0
 21 22  1  0  0  0  0
 36 37  1  0  0  0  0
  7  8  1  0  0  0  0
 17 18  1  0  0  0  0
  3  4  1  0  0  0  0
  3  5  1  0  0  0  0
  3  6  1  0  0  0  0
 40 43  1  0  0  0  0
 40 44  1  0  0  0  0
 40 45  1  0  0  0  0
 11 14  1  0  0  0  0
 11 15  1  0  0  0  0
 11 16  1  0  0  0  0
 23 30  1  0  0  0  0
 23 31  1  0  0  0  0
 23 32  1  0  0  0  0
 24 33  1  0  0  0  0
 24 34  1  0  0  0  0
 24 35  1  0  0  0  0
 47 49  1  0  0  0  0
 47 50  1  0  0  0  0
 47 51  1  0  0  0  0
 21 27  1  0  0  0  0
 21 28  1  0  0  0  0
 37 42  1  0  0  0  0
  8 13  1  0  0  0  0
 18 26  1  0  0  0  0
 22 29  1  0  0  0  0
 46 48  1  0  0  0  0
  7 12  1  0  0  0  0
 36 41  1  0  0  0  0
 17 25  1  0  0  0  0
M  END
$$$$

  -OEChem-05262214473D

 51 50  0     1  0  0  0  0  0999 V2000
    3.4018   -1.2440   -3.0186 C   0  0  0  0  0  0  0  0  0  0  0  0
    3.2697   -2.0909   -2.1427 O   0  0  0  0  0  0  0  0  0  0  0  0
    4.6845   -1.1645   -3.7779 C   0  0  0  0  0  0  0  0  0  0  0  0
    5.4123   -0.4862   -3.3041 H   0  0  0  0  0  0  0  0  0  0  0  0
    5.1949   -2.1387   -3.8443 H   0  0  0  0  0  0  0  0  0  0  0  0
    4.5953   -0.8128   -4.8182 H   0  0  0  0  0  0  0  0  0  0  0  0
    2.4540   -0.3103   -3.4040 N   0  0  0  0  0  0  0  0  0  0  0  0
    1.1494   -0.2128   -2.8039 C   0  0  2  0  0  0  0  0  0  0  0  0
    1.3350    0.0367   -1.3130 C   0  0  0  0  0  0  0  0  0  0  0  0
    2.3625   -0.2586   -0.7063 O   0  0  0  0  0  0  0  0  0  0  0  0
    0.3331   -1.4728   -3.0467 C   0  0  0  0  0  0  0  0  0  0  0  0
    2.6924    0.3404   -4.1502 H   0  0  0  0  0  0  0  0  0  0  0  0
    0.6550    0.6514   -3.2607 H   0  0  0  0  0  0  0  0  0  0  0  0
    0.8129   -2.3494   -2.5963 H   0  0  0  0  0  0  0  0  0  0  0  0
   -0.6690   -1.3857   -2.6142 H   0  0  0  0  0  0  0  0  0  0  0  0
    0.2259   -1.6670   -4.1194 H   0  0  0  0  0  0  0  0  0  0  0  0
    0.2019    0.5893   -0.7269 N   0  0  0  0  0  0  0  0  0  0  0  0
    0.1242    0.9059    0.6756 C   0  0  2  0  0  0  0  0  0  0  0  0
    1.0251   -0.0823    1.4097 C   0  0  0  0  0  0  0  0  0  0  0  0
    1.6978   -0.9326    0.8302 O   0  0  0  0  0  0  0  0  0  0  0  0
   -1.3100    0.8159    1.2125 C   0  0  0  0  0  0  0  0  0  0  0  0
   -2.2846    1.8613    0.6327 C   0  0  0  0  0  0  0  0  0  0  0  0
   -3.7045    1.5744    1.1291 C   0  0  0  0  0  0  0  0  0  0  0  0
   -2.2691    1.8875   -0.8963 C   0  0  0  0  0  0  0  0  0  0  0  0
   -0.5975    0.8179   -1.3140 H   0  0  0  0  0  0  0  0  0  0  0  0
    0.5335    1.9137    0.7988 H   0  0  0  0  0  0  0  0  0  0  0  0
   -1.2867    0.9255    2.3058 H   0  0  0  0  0  0  0  0  0  0  0  0
   -1.7076   -0.1898    1.0217 H   0  0  0  0  0  0  0  0  0  0  0  0
   -2.0026    2.8569    0.9964 H   0  0  0  0  0  0  0  0  0  0  0  0
   -4.0419    0.5876    0.7946 H   0  0  0  0  0  0  0  0  0  0  0  0
   -4.4100    2.3162    0.7402 H   0  0  0  0  0  0  0  0  0  0  0  0
   -3.7561    1.5975    2.2230 H   0  0  0  0  0  0  0  0  0  0  0  0
   -2.5449    0.9128   -1.3129 H   0  0  0  0  0  0  0  0  0  0  0  0
   -2.9773    2.6305   -1.2789 H   0  0  0  0  0  0  0  0  0  0  0  0
   -1.2809    2.1565   -1.2807 H   0  0  0  0  0  0  0  0  0  0  0  0
    1.0258    0.1332    2.7808 N   0  0  0  0  0  0  0  0  0  0  0  0
    1.8156   -0.6477    3.7055 C   0  0  2  0  0  0  0  0  0  0  0  0
    3.1689   -0.9140    3.0597 C   0  0  0  0  0  0  0  0  0  0  0  0
    3.3516   -0.8755    1.8447 O   0  0  0  0  0  0  0  0  0  0  0  0
    1.1189   -1.9508    4.0648 C   0  0  0  0  0  0  0  0  0  0  0  0
    0.4553    0.8797    3.1668 H   0  0  0  0  0  0  0  0  0  0  0  0
    1.9527   -0.0330    4.6018 H   0  0  0  0  0  0  0  0  0  0  0  0
    0.9729   -2.5801    3.1793 H   0  0  0  0  0  0  0  0  0  0  0  0
    1.7053   -2.5281    4.7874 H   0  0  0  0  0  0  0  0  0  0  0  0
    0.1332   -1.7582    4.5019 H   0  0  0  0  0  0  0  0  0  0  0  0
    4.1388   -1.2421    3.9966 N   0  0  0  0  0  0  0  0  0  0  0  0
    5.5019   -1.5509    3.6324 C   0  0  0  0  0  0  0  0  0  0  0  0
    3.9031   -1.2311    4.9846 H   0  0  0  0  0  0  0  0  0  0  0  0
    5.6077   -2.6370    3.4935 H   0  0  0  0  0  0  0  0  0  0  0  0
    5.7566   -1.0350    2.6948 H   0  0  0  0  0  0  0  0  0  0  0  0
    6.1797   -1.2157    4.4312 H   0  0  0  0  0  0  0  0  0  0  0  0
  1  3  1  0  0  0  0
  1  7  1  0  0  0  0
  1  2  2  0  0  0  0
 37 38  1  0  0  0  0
 38 46  1  0  0  0  0
 38 39  2  0  0  0  0
  8  9  1  0  0  0  0
  9 17  1  0  0  0  0
  9 10  2  0  0  0  0
 18 19  1  0  0  0  0
 19 36  1  0  0  0  0
 19 20  2  0  0  0  0
 37 40  1  0  0  0  0
  8 11  1  0  0  0  0
 22 23  1  0  0  0  0
 22 24  1  0  0  0  0
 46 47  1  0  0  0  0
 18 21  1  0  0  0  0
 21 22  1  0  0  0  0
 36 37  1  0  0  0  0
  7  8  1  0  0  0  0
 17 18  1  0  0  0  0
  3  4  1  0  0  0  0
  3  5  1  0  0  0  0
  3  6  1  0  0  0  0
 40 43  1  0  0  0  0
 40 44  1  0  0  0  0
 40 45  1  0  0  0  0
 11 14  1  0  0  0  0
 11 15  1  0  0  0  0
 11 16  1  0  0  0  0
 23 30  1  0  0  0  0
 23 31  1  0  0  0  0
 23 32  1  0  0  0  0
 24 33  1  0  0  0  0
 24 34  1  0  0  0  0
 24 35  1  0  0  0  0
 47 49  1  0  0  0  0
 47 50  1  0  0  0  0
 47 51  1  0  0  0  0
 21 27  1  0  0  0  0
 21 28  1  0  0  0  0
 37 42  1  0  0  0  0
  8 13  1  0  0  0  0
 18 26  1  0  0  0  0
 22 29  1  0  0  0  0
 46 48  1  0  0  0  0
  7 12  1  0  0  0  0
 36 41  1  0  0  0  0
 17 25  1  0  0  0  0
M  END
$$$$

  -OEChem-05262214473D

 51 50  0     1  0  0  0  0  0999 V2000
    3.4018   -1.2440   -3.0186 C   0  0  0  0  0  0  0  0  0  0  0  0
    3.2697   -2.0909   -2.1427 O   0  0  0  0  0  0  0  0  0  0  0  0
    4.6845   -1.1645   -3.7779 C   0  0  0  0  0  0  0  0  0  0  0  0
    5.4123   -0.4862   -3.3041 H   0  0  0  0  0  0  0  0  0  0  0  0
    5.1949   -2.1387   -3.8443 H   0  0  0  0  0  0  0  0  0  0  0  0
    4.5953   -0.8128   -4.8182 H   0  0  0  0  0  0  0  0  0  0  0  0
    2.4540   -0.3103   -3.4040 N   0  0  0  0  0  0  0  0  0  0  0  0
    1.1494   -0.2128   -2.8039 C   0  0  2  0  0  0  0  0  0  0  0  0
    1.3350    0.0367   -1.3130 C   0  0  0  0  0  0  0  0  0  0  0  0
    2.3625   -0.2586   -0.7063 O   0  0  0  0  0  0  0  0  0  0  0  0
    0.3331   -1.4728   -3.0467 C   0  0  0  0  0  0  0  0  0  0  0  0
    2.6924    0.3404   -4.1502 H   0  0  0  0  0  0  0  0  0  0  0  0
    0.6550    0.6514   -3.2607 H   0  0  0  0  0  0  0  0  0  0  0  0
    0.8129   -2.3494   -2.5963 H   0  0  0  0  0  0  0  0  0  0  0  0
   -0.6690   -1.3857   -2.6142 H   0  0  0  0  0  0  0  0  0  0  0  0
    0.2259   -1.6670   -4.1194 H   0  0  0  0  0  0  0  0  0  0  0  0
    0.2019    0.5893   -0.7269 N   0  0  0  0  0  0  0  0  0  0  0  0
    0.1242    0.9059    0.6756 C   0  0  2  0  0  0  0  0  0  0  0  0
    1.0251   -0.0823    1.4097 C   0  0  0  0  0  0  0  0  0  0  0  0
    1.8914   -0.7460    0.8437 O   0  0  0  0  0  0  0  0  0  0  0  0
   -1.3100    0.8159    1.2125 C   0  0  0  0  0  0  0  0  0  0  0  0
   -2.2846    1.8613    0.6327 C   0  0  0  0  0  0  0  0  0  0  0  0
   -3.7045    1.5744    1.1291 C   0  0  0  0  0  0  0  0  0  0  0  0
   -2.2691    1.8875   -0.8963 C   0  0  0  0  0  0  0  0  0  0  0  0
   -0.5975    0.8179   -1.3140 H   0  0  0  0  0  0  0  0  0  0  0  0
    0.5335    1.9137    0.7988 H   0  0  0  0  0  0  0  0  0  0  0  0
   -1.2867    0.9255    2.3058 H   0  0  0  0  0  0  0  0  0  0  0  0
   -1.7076   -0.1898    1.0217 H   0  0  0  0  0  0  0  0  0  0  0  0
   -2.0026    2.8569    0.9964 H   0  0  0  0  0  0  0  0  0  0  0  0
   -4.0419    0.5876    0.7946 H   0  0  0  0  0  0  0  0  0  0  0  0
   -4.4100    2.3162    0.7402 H   0  0  0  0  0  0  0  0  0  0  0  0
   -3.7561    1.5975    2.2230 H   0  0  0  0  0  0  0  0  0  0  0  0
   -2.5449    0.9128   -1.3129 H   0  0  0  0  0  0  0  0  0  0  0  0
   -2.9773    2.6305   -1.2789 H   0  0  0  0  0  0  0  0  0  0  0  0
   -1.2809    2.1565   -1.2807 H   0  0  0  0  0  0  0  0  0  0  0  0
    0.7795   -0.0951    2.7757 N   0  0  0  0  0  0  0  0  0  0  0  0
    1.5131   -0.9237    3.7052 C   0  0  2  0  0  0  0  0  0  0  0  0
    2.9751   -0.9282    3.2784 C   0  0  0  0  0  0  0  0  0  0  0  0
    3.3403   -0.6715    2.1330 O   0  0  0  0  0  0  0  0  0  0  0  0
    0.9545   -2.3375    3.7462 C   0  0  0  0  0  0  0  0  0  0  0  0
    0.0580    0.5099    3.1565 H   0  0  0  0  0  0  0  0  0  0  0  0
    1.4210   -0.4524    4.6898 H   0  0  0  0  0  0  0  0  0  0  0  0
    1.0381   -2.8258    2.7684 H   0  0  0  0  0  0  0  0  0  0  0  0
    1.4930   -2.9560    4.4717 H   0  0  0  0  0  0  0  0  0  0  0  0
   -0.1050   -2.3300    4.0244 H   0  0  0  0  0  0  0  0  0  0  0  0
    3.8206   -1.2948    4.3161 N   0  0  0  0  0  0  0  0  0  0  0  0
    5.2534   -1.3860    4.1592 C   0  0  0  0  0  0  0  0  0  0  0  0
    3.4325   -1.4719    5.2380 H   0  0  0  0  0  0  0  0  0  0  0  0
    5.5283   -2.4161    3.8883 H   0  0  0  0  0  0  0  0  0  0  0  0
    5.5796   -0.6987    3.3648 H   0  0  0  0  0  0  0  0  0  0  0  0
    5.7439   -1.1125    5.1051 H   0  0  0  0  0  0  0  0  0  0  0  0
  1  3  1  0  0  0  0
  1  7  1  0  0  0  0
  1  2  2  0  0  0  0
 37 38  1  0  0  0  0
 38 46  1  0  0  0  0
 38 39  2  0  0  0  0
  8  9  1  0  0  0  0
  9 17  1  0  0  0  0
  9 10  2  0  0  0  0
 18 19  1  0  0  0  0
 19 36  1  0  0  0  0
 19 20  2  0  0  0  0
 37 40  1  0  0  0  0
  8 11  1  0  0  0  0
 22 23  1  0  0  0  0
 22 24  1  0  0  0  0
 46 47  1  0  0  0  0
 18 21  1  0  0  0  0
 21 22  1  0  0  0  0
 36 37  1  0  0  0  0
  7  8  1  0  0  0  0
 17 18  1  0  0  0  0
  3  4  1  0  0  0  0
  3  5  1  0  0  0  0
  3  6  1  0  0  0  0
 40 43  1  0  0  0  0
 40 44  1  0  0  0  0
 40 45  1  0  0  0  0
 11 14  1  0  0  0  0
 11 15  1  0  0  0  0
 11 16  1  0  0  0  0
 23 30  1  0  0  0  0
 23 31  1  0  0  0  0
 23 32  1  0  0  0  0
 24 33  1  0  0  0  0
 24 34  1  0  0  0  0
 24 35  1  0  0  0  0
 47 49  1  0  0  0  0
 47 50  1  0  0  0  0
 47 51  1  0  0  0  0
 21 27  1  0  0  0  0
 21 28  1  0  0  0  0
 37 42  1  0  0  0  0
  8 13  1  0  0  0  0
 18 26  1  0  0  0  0
 22 29  1  0  0  0  0
 46 48  1  0  0  0  0
  7 12  1  0  0  0  0
 36 41  1  0  0  0  0
 17 25  1  0  0  0  0
M  END
$$$$

  -OEChem-05262214473D

 51 50  0     1  0  0  0  0  0999 V2000
    3.4018   -1.2440   -3.0186 C   0  0  0  0  0  0  0  0  0  0  0  0
    3.2697   -2.0909   -2.1427 O   0  0  0  0  0  0  0  0  0  0  0  0
    4.6845   -1.1645   -3.7779 C   0  0  0  0  0  0  0  0  0  0  0  0
    5.4123   -0.4862   -3.3041 H   0  0  0  0  0  0  0  0  0  0  0  0
    5.1949   -2.1387   -3.8443 H   0  0  0  0  0  0  0  0  0  0  0  0
    4.5953   -0.8128   -4.8182 H   0  0  0  0  0  0  0  0  0  0  0  0
    2.4540   -0.3103   -3.4040 N   0  0  0  0  0  0  0  0  0  0  0  0
    1.1494   -0.2128   -2.8039 C   0  0  2  0  0  0  0  0  0  0  0  0
    1.3350    0.0367   -1.3130 C   0  0  0  0  0  0  0  0  0  0  0  0
    2.3625   -0.2586   -0.7063 O   0  0  0  0  0  0  0  0  0  0  0  0
    0.3331   -1.4728   -3.0467 C   0  0  0  0  0  0  0  0  0  0  0  0
    2.6924    0.3404   -4.1502 H   0  0  0  0  0  0  0  0  0  0  0  0
    0.6550    0.6514   -3.2607 H   0  0  0  0  0  0  0  0  0  0  0  0
    0.8129   -2.3494   -2.5963 H   0  0  0  0  0  0  0  0  0  0  0  0
   -0.6690   -1.3857   -2.6142 H   0  0  0  0  0  0  0  0  0  0  0  0
    0.2259   -1.6670   -4.1194 H   0  0  0  0  0  0  0  0  0  0  0  0
    0.2019    0.5893   -0.7269 N   0  0  0  0  0  0  0  0  0  0  0  0
    0.1242    0.9059    0.6756 C   0  0  2  0  0  0  0  0  0  0  0  0
    1.0251   -0.0823    1.4097 C   0  0  0  0  0  0  0  0  0  0  0  0
    2.0529   -0.5438    0.9178 O   0  0  0  0  0  0  0  0  0  0  0  0
   -1.3100    0.8159    1.2125 C   0  0  0  0  0  0  0  0  0  0  0  0
   -2.2846    1.8613    0.6327 C   0  0  0  0  0  0  0  0  0  0  0  0
   -3.7045    1.5744    1.1291 C   0  0  0  0  0  0  0  0  0  0  0  0
   -2.2691    1.8875   -0.8963 C   0  0  0  0  0  0  0  0  0  0  0  0
   -0.5975    0.8179   -1.3140 H   0  0  0  0  0  0  0  0  0  0  0  0
    0.5335    1.9137    0.7988 H   0  0  0  0  0  0  0  0  0  0  0  0
   -1.2867    0.9255    2.3058 H   0  0  0  0  0  0  0  0  0  0  0  0
   -1.7076   -0.1898    1.0217 H   0  0  0  0  0  0  0  0  0  0  0  0
   -2.0026    2.8569    0.9964 H   0  0  0  0  0  0  0  0  0  0  0  0
   -4.0419    0.5876    0.7946 H   0  0  0  0  0  0  0  0  0  0  0  0
   -4.4100    2.3162    0.7402 H   0  0  0  0  0  0  0  0  0  0  0  0
   -3.7561    1.5975    2.2230 H   0  0  0  0  0  0  0  0  0  0  0  0
   -2.5449    0.9128   -1.3129 H   0  0  0  0  0  0  0  0  0  0  0  0
   -2.9773    2.6305   -1.2789 H   0  0  0  0  0  0  0  0  0  0  0  0
   -1.2809    2.1565   -1.2807 H   0  0  0  0  0  0  0  0  0  0  0  0
    0.5709   -0.3456    2.6945 N   0  0  0  0  0  0  0  0  0  0  0  0
    1.2554   -1.2279    3.6119 C   0  0  2  0  0  0  0  0  0  0  0  0
    2.7530   -0.9996    3.4550 C   0  0  0  0  0  0  0  0  0  0  0  0
    3.2557   -0.5200    2.4409 O   0  0  0  0  0  0  0  0  0  0  0  0
    0.8972   -2.6827    3.3517 C   0  0  0  0  0  0  0  0  0  0  0  0
   -0.2780    0.1048    3.0235 H   0  0  0  0  0  0  0  0  0  0  0  0
    0.9449   -0.9371    4.6214 H   0  0  0  0  0  0  0  0  0  0  0  0
    1.2006   -2.9922    2.3450 H   0  0  0  0  0  0  0  0  0  0  0  0
    1.3943   -3.3476    4.0658 H   0  0  0  0  0  0  0  0  0  0  0  0
   -0.1837   -2.8390    3.4358 H   0  0  0  0  0  0  0  0  0  0  0  0
    3.4662   -1.4343    4.5634 N   0  0  0  0  0  0  0  0  0  0  0  0
    4.9046   -1.3382    4.6517 C   0  0  0  0  0  0  0  0  0  0  0  0
    2.9655   -1.8018    5.3671 H   0  0  0  0  0  0  0  0  0  0  0  0
    5.3579   -2.2730    4.2901 H   0  0  0  0  0  0  0  0  0  0  0  0
    5.2545   -0.4982    4.0337 H   0  0  0  0  0  0  0  0  0  0  0  0
    5.1971   -1.1700    5.6987 H   0  0  0  0  0  0  0  0  0  0  0  0
  1  3  1  0  0  0  0
  1  7  1  0  0  0  0
  1  2  2  0  0  0  0
 37 38  1  0  0  0  0
 38 46  1  0  0  0  0
 38 39  2  0  0  0  0
  8  9  1  0  0  0  0
  9 17  1  0  0  0  0
  9 10  2  0  0  0  0
 18 19  1  0  0  0  0
 19 36  1  0  0  0  0
 19 20  2  0  0  0  0
 37 40  1  0  0  0  0
  8 11  1  0  0  0  0
 22 23  1  0  0  0  0
 22 24  1  0  0  0  0
 46 47  1  0  0  0  0
 18 21  1  0  0  0  0
 21 22  1  0  0  0  0
 36 37  1  0  0  0  0
  7  8  1  0  0  0  0
 17 18  1  0  0  0  0
  3  4  1  0  0  0  0
  3  5  1  0  0  0  0
  3  6  1  0  0  0  0
 40 43  1  0  0  0  0
 40 44  1  0  0  0  0
 40 45  1  0  0  0  0
 11 14  1  0  0  0  0
 11 15  1  0  0  0  0
 11 16  1  0  0  0  0
 23 30  1  0  0  0  0
 23 31  1  0  0  0  0
 23 32  1  0  0  0  0
 24 33  1  0  0  0  0
 24 34  1  0  0  0  0
 24 35  1  0  0  0  0
 47 49  1  0  0  0  0
 47 50  1  0  0  0  0
 47 51  1  0  0  0  0
 21 27  1  0  0  0  0
 21 28  1  0  0  0  0
 37 42  1  0  0  0  0
  8 13  1  0  0  0  0
 18 26  1  0  0  0  0
 22 29  1  0  0  0  0
 46 48  1  0  0  0  0
  7 12  1  0  0  0  0
 36 41  1  0  0  0  0
 17 25  1  0  0  0  0
M  END
$$$$

  -OEChem-05262214473D

 51 50  0     1  0  0  0  0  0999 V2000
    3.4018   -1.2440   -3.0186 C   0  0  0  0  0  0  0  0  0  0  0  0
    3.2697   -2.0909   -2.1427 O   0  0  0  0  0  0  0  0  0  0  0  0
    4.6845   -1.1645   -3.7779 C   0  0  0  0  0  0  0  0  0  0  0  0
    5.4123   -0.4862   -3.3041 H   0  0  0  0  0  0  0  0  0  0  0  0
    5.1949   -2.1387   -3.8443 H   0  0  0  0  0  0  0  0  0  0  0  0
    4.5953   -0.8128   -4.8182 H   0  0  0  0  0  0  0  0  0  0  0  0
    2.4540   -0.3103   -3.4040 N   0  0  0  0  0  0  0  0  0  0  0  0
    1.1494   -0.2128   -2.8039 C   0  0  2  0  0  0  0  0  0  0  0  0
    1.3350    0.0367   -1.3130 C   0  0  0  0  0  0  0  0  0  0  0  0
    2.3625   -0.2586   -0.7063 O   0  0  0  0  0  0  0  0  0  0  0  0
    0.3331   -1.4728   -3.0467 C   0  0  0  0  0  0  0  0  0  0  0  0
    2.6924    0.3404   -4.1502 H   0  0  0  0  0  0  0  0  0  0  0  0
    0.6550    0.6514   -3.2607 H   0  0  0  0  0  0  0  0  0  0  0  0
    0.8129   -2.3494   -2.5963 H   0  0  0  0  0  0  0  0  0  0  0  0
   -0.6690   -1.3857   -2.6142 H   0  0  0  0  0  0  0  0  0  0  0  0
    0.2259   -1.6670   -4.1194 H   0  0  0  0  0  0  0  0  0  0  0  0
    0.2019    0.5893   -0.7269 N   0  0  0  0  0  0  0  0  0  0  0  0
    0.1242    0.9059    0.6756 C   0  0  2  0  0  0  0  0  0  0  0  0
    1.0251   -0.0823    1.4097 C   0  0  0  0  0  0  0  0  0  0  0  0
    2.1713   -0.3396    1.0473 O   0  0  0  0  0  0  0  0  0  0  0  0
   -1.3100    0.8159    1.2125 C   0  0  0  0  0  0  0  0  0  0  0  0
   -2.2846    1.8613    0.6327 C   0  0  0  0  0  0  0  0  0  0  0  0
   -3.7045    1.5744    1.1291 C   0  0  0  0  0  0  0  0  0  0  0  0
   -2.2691    1.8875   -0.8963 C   0  0  0  0  0  0  0  0  0  0  0  0
   -0.5975    0.8179   -1.3140 H   0  0  0  0  0  0  0  0  0  0  0  0
    0.5335    1.9137    0.7988 H   0  0  0  0  0  0  0  0  0  0  0  0
   -1.2867    0.9255    2.3058 H   0  0  0  0  0  0  0  0  0  0  0  0
   -1.7076   -0.1898    1.0217 H   0  0  0  0  0  0  0  0  0  0  0  0
   -2.0026    2.8569    0.9964 H   0  0  0  0  0  0  0  0  0  0  0  0
   -4.0419    0.5876    0.7946 H   0  0  0  0  0  0  0  0  0  0  0  0
   -4.4100    2.3162    0.7402 H   0  0  0  0  0  0  0  0  0  0  0  0
   -3.7561    1.5975    2.2230 H   0  0  0  0  0  0  0  0  0  0  0  0
   -2.5449    0.9128   -1.3129 H   0  0  0  0  0  0  0  0  0  0  0  0
   -2.9773    2.6305   -1.2789 H   0  0  0  0  0  0  0  0  0  0  0  0
   -1.2809    2.1565   -1.2807 H   0  0  0  0  0  0  0  0  0  0  0  0
    0.4142   -0.6011    2.5429 N   0  0  0  0  0  0  0  0  0  0  0  0
    1.0600   -1.5395    3.4322 C   0  0  2  0  0  0  0  0  0  0  0  0
    2.5177   -1.1231    3.5774 C   0  0  0  0  0  0  0  0  0  0  0  0
    3.1035   -0.4312    2.7473 O   0  0  0  0  0  0  0  0  0  0  0  0
    0.9510   -2.9631    2.9083 C   0  0  0  0  0  0  0  0  0  0  0  0
   -0.5298   -0.3081    2.7768 H   0  0  0  0  0  0  0  0  0  0  0  0
    0.5569   -1.4542    4.4016 H   0  0  0  0  0  0  0  0  0  0  0  0
    1.4493   -3.0680    1.9377 H   0  0  0  0  0  0  0  0  0  0  0  0
    1.4157   -3.6761    3.5973 H   0  0  0  0  0  0  0  0  0  0  0  0
   -0.0977   -3.2505    2.7763 H   0  0  0  0  0  0  0  0  0  0  0  0
    3.0998   -1.6509    4.7214 N   0  0  0  0  0  0  0  0  0  0  0  0
    4.4791   -1.4108    5.0762 C   0  0  0  0  0  0  0  0  0  0  0  0
    2.5338   -2.1983    5.3630 H   0  0  0  0  0  0  0  0  0  0  0  0
    5.1081   -2.2174    4.6716 H   0  0  0  0  0  0  0  0  0  0  0  0
    4.8033   -0.4473    4.6559 H   0  0  0  0  0  0  0  0  0  0  0  0
    4.5766   -1.3844    6.1715 H   0  0  0  0  0  0  0  0  0  0  0  0
  1  3  1  0  0  0  0
  1  7  1  0  0  0  0
  1  2  2  0  0  0  0
 37 38  1  0  0  0  0
 38 46  1  0  0  0  0
 38 39  2  0  0  0  0
  8  9  1  0  0  0  0
  9 17  1  0  0  0  0
  9 10  2  0  0  0  0
 18 19  1  0  0  0  0
 19 36  1  0  0  0  0
 19 20  2  0  0  0  0
 37 40  1  0  0  0  0
  8 11  1  0  0  0  0
 22 23  1  0  0  0  0
 22 24  1  0  0  0  0
 46 47  1  0  0  0  0
 18 21  1  0  0  0  0
 21 22  1  0  0  0  0
 36 37  1  0  0  0  0
  7  8  1  0  0  0  0
 17 18  1  0  0  0  0
  3  4  1  0  0  0  0
  3  5  1  0  0  0  0
  3  6  1  0  0  0  0
 40 43  1  0  0  0  0
 40 44  1  0  0  0  0
 40 45  1  0  0  0  0
 11 14  1  0  0  0  0
 11 15  1  0  0  0  0
 11 16  1  0  0  0  0
 23 30  1  0  0  0  0
 23 31  1  0  0  0  0
 23 32  1  0  0  0  0
 24 33  1  0  0  0  0
 24 34  1  0  0  0  0
 24 35  1  0  0  0  0
 47 49  1  0  0  0  0
 47 50  1  0  0  0  0
 47 51  1  0  0  0  0
 21 27  1  0  0  0  0
 21 28  1  0  0  0  0
 37 42  1  0  0  0  0
  8 13  1  0  0  0  0
 18 26  1  0  0  0  0
 22 29  1  0  0  0  0
 46 48  1  0  0  0  0
  7 12  1  0  0  0  0
 36 41  1  0  0  0  0
 17 25  1  0  0  0  0
M  END
$$$$

  -OEChem-05262214473D

 51 50  0     1  0  0  0  0  0999 V2000
    3.4018   -1.2440   -3.0186 C   0  0  0  0  0  0  0  0  0  0  0  0
    3.2697   -2.0909   -2.1427 O   0  0  0  0  0  0  0  0  0  0  0  0
    4.6845   -1.1645   -3.7779 C   0  0  0  0  0  0  0  0  0  0  0  0
    5.4123   -0.4862   -3.3041 H   0  0  0  0  0  0  0  0  0  0  0  0
    5.1949   -2.1387   -3.8443 H   0  0  0  0  0  0  0  0  0  0  0  0
    4.5953   -0.8128   -4.8182 H   0  0  0  0  0  0  0  0  0  0  0  0
    2.4540   -0.3103   -3.4040 N   0  0  0  0  0  0  0  0  0  0  0  0
    1.1494   -0.2128   -2.8039 C   0  0  2  0  0  0  0  0  0  0  0  0
    1.3350    0.0367   -1.3130 C   0  0  0  0  0  0  0  0  0  0  0  0
    2.3625   -0.2586   -0.7063 O   0  0  0  0  0  0  0  0  0  0  0  0
    0.3331   -1.4728   -3.0467 C   0  0  0  0  0  0  0  0  0  0  0  0
    2.6924    0.3404   -4.1502 H   0  0  0  0  0  0  0  0  0  0  0  0
    0.6550    0.6514   -3.2607 H   0  0  0  0  0  0  0  0  0  0  0  0
    0.8129   -2.3494   -2.5963 H   0  0  0  0  0  0  0  0  0  0  0  0
   -0.6690   -1.3857   -2.6142 H   0  0  0  0  0  0  0  0  0  0  0  0
    0.2259   -1.6670   -4.1194 H   0  0  0  0  0  0  0  0  0  0  0  0
    0.2019    0.5893   -0.7269 N   0  0  0  0  0  0  0  0  0  0  0  0
    0.1242    0.9059    0.6756 C   0  0  2  0  0  0  0  0  0  0  0  0
    1.0251   -0.0823    1.4097 C   0  0  0  0  0  0  0  0  0  0  0  0
    2.2385   -0.1475    1.2235 O   0  0  0  0  0  0  0  0  0  0  0  0
   -1.3100    0.8159    1.2125 C   0  0  0  0  0  0  0  0  0  0  0  0
   -2.2846    1.8613    0.6327 C   0  0  0  0  0  0  0  0  0  0  0  0
   -3.7045    1.5744    1.1291 C   0  0  0  0  0  0  0  0  0  0  0  0
   -2.2691    1.8875   -0.8963 C   0  0  0  0  0  0  0  0  0  0  0  0
   -0.5975    0.8179   -1.3140 H   0  0  0  0  0  0  0  0  0  0  0  0
    0.5335    1.9137    0.7988 H   0  0  0  0  0  0  0  0  0  0  0  0
   -1.2867    0.9255    2.3058 H   0  0  0  0  0  0  0  0  0  0  0  0
   -1.7076   -0.1898    1.0217 H   0  0  0  0  0  0  0  0  0  0  0  0
   -2.0026    2.8569    0.9964 H   0  0  0  0  0  0  0  0  0  0  0  0
   -4.0419    0.5876    0.7946 H   0  0  0  0  0  0  0  0  0  0  0  0
   -4.4100    2.3162    0.7402 H   0  0  0  0  0  0  0  0  0  0  0  0
   -3.7561    1.5975    2.2230 H   0  0  0  0  0  0  0  0  0  0  0  0
   -2.5449    0.9128   -1.3129 H   0  0  0  0  0  0  0  0  0  0  0  0
   -2.9773    2.6305   -1.2789 H   0  0  0  0  0  0  0  0  0  0  0  0
   -1.2809    2.1565   -1.2807 H   0  0  0  0  0  0  0  0  0  0  0  0
    0.3201   -0.8442    2.3311 N   0  0  0  0  0  0  0  0  0  0  0  0
    0.9402   -1.8375    3.1782 C   0  0  2  0  0  0  0  0  0  0  0  0
    2.2853   -1.2905    3.6373 C   0  0  0  0  0  0  0  0  0  0  0  0
    2.8941   -0.4112    3.0312 O   0  0  0  0  0  0  0  0  0  0  0  0
    1.1122   -3.1594    2.4462 C   0  0  0  0  0  0  0  0  0  0  0  0
   -0.6802   -0.7005    2.4331 H   0  0  0  0  0  0  0  0  0  0  0  0
    0.2834   -1.9684    4.0451 H   0  0  0  0  0  0  0  0  0  0  0  0
    1.7672   -3.0480    1.5745 H   0  0  0  0  0  0  0  0  0  0  0  0
    1.5559   -3.9191    3.0981 H   0  0  0  0  0  0  0  0  0  0  0  0
    0.1472   -3.5365    2.0908 H   0  0  0  0  0  0  0  0  0  0  0  0
    2.7464   -1.9299    4.7795 N   0  0  0  0  0  0  0  0  0  0  0  0
    4.0060   -1.5988    5.4038 C   0  0  0  0  0  0  0  0  0  0  0  0
    2.1669   -2.6345    5.2261 H   0  0  0  0  0  0  0  0  0  0  0  0
    4.7959   -2.2532    5.0066 H   0  0  0  0  0  0  0  0  0  0  0  0
    4.2568   -0.5495    5.1891 H   0  0  0  0  0  0  0  0  0  0  0  0
    3.9246   -1.7411    6.4915 H   0  0  0  0  0  0  0  0  0  0  0  0
  1  3  1  0  0  0  0
  1  7  1  0  0  0  0
  1  2  2  0  0  0  0
 37 38  1  0  0  0  0
 38 46  1  0  0  0  0
 38 39  2  0  0  0  0
  8  9  1  0  0  0  0
  9 17  1  0  0  0  0
  9 10  2  0  0  0  0
 18 19  1  0  0  0  0
 19 36  1  0  0  0  0
 19 20  2  0  0  0  0
 37 40  1  0  0  0  0
  8 11  1  0  0  0  0
 22 23  1  0  0  0  0
 22 24  1  0  0  0  0
 46 47  1  0  0  0  0
 18 21  1  0  0  0  0
 21 22  1  0  0  0  0
 36 37  1  0  0  0  0
  7  8  1  0  0  0  0
 17 18  1  0  0  0  0
  3  4  1  0  0  0  0
  3  5  1  0  0  0  0
  3  6  1  0  0  0  0
 40 43  1  0  0  0  0
 40 44  1  0  0  0  0
 40 45  1  0  0  0  0
 11 14  1  0  0  0  0
 11 15  1  0  0  0  0
 11 16  1  0  0  0  0
 23 30  1  0  0  0  0
 23 31  1  0  0  0  0
 23 32  1  0  0  0  0
 24 33  1  0  0  0  0
 24 34  1  0  0  0  0
 24 35  1  0  0  0  0
 47 49  1  0  0  0  0
 47 50  1  0  0  0  0
 47 51  1  0  0  0  0
 21 27  1  0  0  0  0
 21 28  1  0  0  0  0
 37 42  1  0  0  0  0
  8 13  1  0  0  0  0
 18 26  1  0  0  0  0
 22 29  1  0  0  0  0
 46 48  1  0  0  0  0
  7 12  1  0  0  0  0
 36 41  1  0  0  0  0
 17 25  1  0  0  0  0
M  END
$$$$

  -OEChem-05262214473D

 51 50  0     1  0  0  0  0  0999 V2000
    3.4018   -1.2440   -3.0186 C   0  0  0  0  0  0  0  0  0  0  0  0
    3.2697   -2.0909   -2.1427 O   0  0  0  0  0  0  0  0  0  0  0  0
    4.6845   -1.1645   -3.7779 C   0  0  0  0  0  0  0  0  0  0  0  0
    5.4123   -0.4862   -3.3041 H   0  0  0  0  0  0  0  0  0  0  0  0
    5.1949   -2.1387   -3.8443 H   0  0  0  0  0  0  0  0  0  0  0  0
    4.5953   -0.8128   -4.8182 H   0  0  0  0  0  0  0  0  0  0  0  0
    2.4540   -0.3103   -3.4040 N   0  0  0  0  0  0  0  0  0  0  0  0
    1.1494   -0.2128   -2.8039 C   0  0  2  0  0  0  0  0  0  0  0  0
    1.3350    0.0367   -1.3130 C   0  0  0  0  0  0  0  0  0  0  0  0
    2.3625   -0.2586   -0.7063 O   0  0  0  0  0  0  0  0  0  0  0  0
    0.3331   -1.4728   -3.0467 C   0  0  0  0  0  0  0  0  0  0  0  0
    2.6924    0.3404   -4.1502 H   0  0  0  0  0  0  0  0  0  0  0  0
    0.6550    0.6514   -3.2607 H   0  0  0  0  0  0  0  0  0  0  0  0
    0.8129   -2.3494   -2.5963 H   0  0  0  0  0  0  0  0  0  0  0  0
   -0.6690   -1.3857   -2.6142 H   0  0  0  0  0  0  0  0  0  0  0  0
    0.2259   -1.6670   -4.1194 H   0  0  0  0  0  0  0  0  0  0  0  0
    0.2019    0.5893   -0.7269 N   0  0  0  0  0  0  0  0  0  0  0  0
    0.1242    0.9059    0.6756 C   0  0  2  0  0  0  0  0  0  0  0  0
    1.0251   -0.0823    1.4097 C   0  0  0  0  0  0  0  0  0  0  0  0
    2.2499    0.0195    1.4343 O   0  0  0  0  0  0  0  0  0  0  0  0
   -1.3100    0.8159    1.2125 C   0  0  0  0  0  0  0  0  0  0  0  0
   -2.2846    1.8613    0.6327 C   0  0  0  0  0  0  0  0  0  0  0  0
   -3.7045    1.5744    1.1291 C   0  0  0  0  0  0  0  0  0  0  0  0
   -2.2691    1.8875   -0.8963 C   0  0  0  0  0  0  0  0  0  0  0  0
   -0.5975    0.8179   -1.3140 H   0  0  0  0  0  0  0  0  0  0  0  0
    0.5335    1.9137    0.7988 H   0  0  0  0  0  0  0  0  0  0  0  0
   -1.2867    0.9255    2.3058 H   0  0  0  0  0  0  0  0  0  0  0  0
   -1.7076   -0.1898    1.0217 H   0  0  0  0  0  0  0  0  0  0  0  0
   -2.0026    2.8569    0.9964 H   0  0  0  0  0  0  0  0  0  0  0  0
   -4.0419    0.5876    0.7946 H   0  0  0  0  0  0  0  0  0  0  0  0
   -4.4100    2.3162    0.7402 H   0  0  0  0  0  0  0  0  0  0  0  0
   -3.7561    1.5975    2.2230 H   0  0  0  0  0  0  0  0  0  0  0  0
   -2.5449    0.9128   -1.3129 H   0  0  0  0  0  0  0  0  0  0  0  0
   -2.9773    2.6305   -1.2789 H   0  0  0  0  0  0  0  0  0  0  0  0
   -1.2809    2.1565   -1.2807 H   0  0  0  0  0  0  0  0  0  0  0  0
    0.2950   -1.0584    2.0736 N   0  0  0  0  0  0  0  0  0  0  0  0
    0.9041   -2.1013    2.8672 C   0  0  2  0  0  0  0  0  0  0  0  0
    2.0717   -1.4902    3.6307 C   0  0  0  0  0  0  0  0  0  0  0  0
    2.6417   -0.4613    3.2735 O   0  0  0  0  0  0  0  0  0  0  0  0
    1.3698   -3.2583    1.9969 C   0  0  0  0  0  0  0  0  0  0  0  0
   -0.7190   -1.0457    2.0160 H   0  0  0  0  0  0  0  0  0  0  0  0
    0.1430   -2.4446    3.5763 H   0  0  0  0  0  0  0  0  0  0  0  0
    2.1328   -2.9335    1.2800 H   0  0  0  0  0  0  0  0  0  0  0  0
    1.8052   -4.0600    2.6024 H   0  0  0  0  0  0  0  0  0  0  0  0
    0.5343   -3.6774    1.4259 H   0  0  0  0  0  0  0  0  0  0  0  0
    2.4300   -2.2523    4.7338 N   0  0  0  0  0  0  0  0  0  0  0  0
    3.5175   -1.8893    5.6122 C   0  0  0  0  0  0  0  0  0  0  0  0
    1.8897   -3.0807    4.9657 H   0  0  0  0  0  0  0  0  0  0  0  0
    4.4427   -2.3778    5.2724 H   0  0  0  0  0  0  0  0  0  0  0  0
    3.6523   -0.7977    5.5968 H   0  0  0  0  0  0  0  0  0  0  0  0
    3.2857   -2.2157    6.6368 H   0  0  0  0  0  0  0  0  0  0  0  0
  1  3  1  0  0  0  0
  1  7  1  0  0  0  0
  1  2  2  0  0  0  0
 37 38  1  0  0  0  0
 38 46  1  0  0  0  0
 38 39  2  0  0  0  0
  8  9  1  0  0  0  0
  9 17  1  0  0  0  0
  9 10  2  0  0  0  0
 18 19  1  0  0  0  0
 19 36  1  0  0  0  0
 19 20  2  0  0  0  0
 37 40  1  0  0  0  0
  8 11  1  0  0  0  0
 22 23  1  0  0  0  0
 22 24  1  0  0  0  0
 46 47  1  0  0  0  0
 18 21  1  0  0  0  0
 21 22  1  0  0  0  0
 36 37  1  0  0  0  0
  7  8  1  0  0  0  0
 17 18  1  0  0  0  0
  3  4  1  0  0  0  0
  3  5  1  0  0  0  0
  3  6  1  0  0  0  0
 40 43  1  0  0  0  0
 40 44  1  0  0  0  0
 40 45  1  0  0  0  0
 11 14  1  0  0  0  0
 11 15  1  0  0  0  0
 11 16  1  0  0  0  0
 23 30  1  0  0  0  0
 23 31  1  0  0  0  0
 23 32  1  0  0  0  0
 24 33  1  0  0  0  0
 24 34  1  0  0  0  0
 24 35  1  0  0  0  0
 47 49  1  0  0  0  0
 47 50  1  0  0  0  0
 47 51  1  0  0  0  0
 21 27  1  0  0  0  0
 21 28  1  0  0  0  0
 37 42  1  0  0  0  0
  8 13  1  0  0  0  0
 18 26  1  0  0  0  0
 22 29  1  0  0  0  0
 46 48  1  0  0  0  0
  7 12  1  0  0  0  0
 36 41  1  0  0  0  0
 17 25  1  0  0  0  0
M  END
$$$$

  -OEChem-05262214473D

 51 50  0     1  0  0  0  0  0999 V2000
    3.4018   -1.2440   -3.0186 C   0  0  0  0  0  0  0  0  0  0  0  0
    3.2697   -2.0909   -2.1427 O   0  0  0  0  0  0  0  0  0  0  0  0
    4.6845   -1.1645   -3.7779 C   0  0  0  0  0  0  0  0  0  0  0  0
    5.4123   -0.4862   -3.3041 H   0  0  0  0  0  0  0  0  0  0  0  0
    5.1949   -2.1387   -3.8443 H   0  0  0  0  0  0  0  0  0  0  0  0
    4.5953   -0.8128   -4.8182 H   0  0  0  0  0  0  0  0  0  0  0  0
    2.4540   -0.3103   -3.4040 N   0  0  0  0  0  0  0  0  0  0  0  0
    1.1494   -0.2128   -2.8039 C   0  0  2  0  0  0  0  0  0  0  0  0
    1.3350    0.0367   -1.3130 C   0  0  0  0  0  0  0  0  0  0  0  0
    2.3625   -0.2586   -0.7063 O   0  0  0  0  0  0  0  0  0  0  0  0
    0.3331   -1.4728   -3.0467 C   0  0  0  0  0  0  0  0  0  0  0  0
    2.6924    0.3404   -4.1502 H   0  0  0  0  0  0  0  0  0  0  0  0
    0.6550    0.6514   -3.2607 H   0  0  0  0  0  0  0  0  0  0  0  0
    0.8129   -2.3494   -2.5963 H   0  0  0  0  0  0  0  0  0  0  0  0
   -0.6690   -1.3857   -2.6142 H   0  0  0  0  0  0  0  0  0  0  0  0
    0.2259   -1.6670   -4.1194 H   0  0  0  0  0  0  0  0  0  0  0  0
    0.2019    0.5893   -0.7269 N   0  0  0  0  0  0  0  0  0  0  0  0
    0.1242    0.9059    0.6756 C   0  0  2  0  0  0  0  0  0  0  0  0
    1.0251   -0.0823    1.4097 C   0  0  0  0  0  0  0  0  0  0  0  0
    2.2048    0.1501    1.6653 O   0  0  0  0  0  0  0  0  0  0  0  0
   -1.3100    0.8159    1.2125 C   0  0  0  0  0  0  0  0  0  0  0  0
   -2.2846    1.8613    0.6327 C   0  0  0  0  0  0  0  0  0  0  0  0
   -3.7045    1.5744    1.1291 C   0  0  0  0  0  0  0  0  0  0  0  0
   -2.2691    1.8875   -0.8963 C   0  0  0  0  0  0  0  0  0  0  0  0
   -0.5975    0.8179   -1.3140 H   0  0  0  0  0  0  0  0  0  0  0  0
    0.5335    1.9137    0.7988 H   0  0  0  0  0  0  0  0  0  0  0  0
   -1.2867    0.9255    2.3058 H   0  0  0  0  0  0  0  0  0  0  0  0
   -1.7076   -0.1898    1.0217 H   0  0  0  0  0  0  0  0  0  0  0  0
   -2.0026    2.8569    0.9964 H   0  0  0  0  0  0  0  0  0  0  0  0
   -4.0419    0.5876    0.7946 H   0  0  0  0  0  0  0  0  0  0  0  0
   -4.4100    2.3162    0.7402 H   0  0  0  0  0  0  0  0  0  0  0  0
   -3.7561    1.5975    2.2230 H   0  0  0  0  0  0  0  0  0  0  0  0
   -2.5449    0.9128   -1.3129 H   0  0  0  0  0  0  0  0  0  0  0  0
   -2.9773    2.6305   -1.2789 H   0  0  0  0  0  0  0  0  0  0  0  0
   -1.2809    2.1565   -1.2807 H   0  0  0  0  0  0  0  0  0  0  0  0
    0.3406   -1.2290    1.7879 N   0  0  0  0  0  0  0  0  0  0  0  0
    0.9543   -2.3132    2.5204 C   0  0  2  0  0  0  0  0  0  0  0  0
    1.8912   -1.7087    3.5579 C   0  0  0  0  0  0  0  0  0  0  0  0
    2.3635   -0.5783    3.4575 O   0  0  0  0  0  0  0  0  0  0  0  0
    1.7064   -3.2530    1.5909 C   0  0  0  0  0  0  0  0  0  0  0  0
   -0.6435   -1.3203    1.5538 H   0  0  0  0  0  0  0  0  0  0  0  0
    0.1453   -2.8505    3.0271 H   0  0  0  0  0  0  0  0  0  0  0  0
    2.5209   -2.7324    1.0743 H   0  0  0  0  0  0  0  0  0  0  0  0
    2.1467   -4.0894    2.1437 H   0  0  0  0  0  0  0  0  0  0  0  0
    1.0372   -3.6637    0.8271 H   0  0  0  0  0  0  0  0  0  0  0  0
    2.1722   -2.5962    4.5873 N   0  0  0  0  0  0  0  0  0  0  0  0
    3.0469   -2.2627    5.6872 C   0  0  0  0  0  0  0  0  0  0  0  0
    1.7213   -3.5063    4.5994 H   0  0  0  0  0  0  0  0  0  0  0  0
    4.0724   -2.5827    5.4509 H   0  0  0  0  0  0  0  0  0  0  0  0
    3.0310   -1.1751    5.8514 H   0  0  0  0  0  0  0  0  0  0  0  0
    2.7032   -2.7760    6.5974 H   0  0  0  0  0  0  0  0  0  0  0  0
  1  3  1  0  0  0  0
  1  7  1  0  0  0  0
  1  2  2  0  0  0  0
 37 38  1  0  0  0  0
 38 46  1  0  0  0  0
 38 39  2  0  0  0  0
  8  9  1  0  0  0  0
  9 17  1  0  0  0  0
  9 10  2  0  0  0  0
 18 19  1  0  0  0  0
 19 36  1  0  0  0  0
 19 20  2  0  0  0  0
 37 40  1  0  0  0  0
  8 11  1  0  0  0  0
 22 23  1  0  0  0  0
 22 24  1  0  0  0  0
 46 47  1  0  0  0  0
 18 21  1  0  0  0  0
 21 22  1  0  0  0  0
 36 37  1  0  0  0  0
  7  8  1  0  0  0  0
 17 18  1  0  0  0  0
  3  4  1  0  0  0  0
  3  5  1  0  0  0  0
  3  6  1  0  0  0  0
 40 43  1  0  0  0  0
 40 44  1  0  0  0  0
 40 45  1  0  0  0  0
 11 14  1  0  0  0  0
 11 15  1  0  0  0  0
 11 16  1  0  0  0  0
 23 30  1  0  0  0  0
 23 31  1  0  0  0  0
 23 32  1  0  0  0  0
 24 33  1  0  0  0  0
 24 34  1  0  0  0  0
 24 35  1  0  0  0  0
 47 49  1  0  0  0  0
 47 50  1  0  0  0  0
 47 51  1  0  0  0  0
 21 27  1  0  0  0  0
 21 28  1  0  0  0  0
 37 42  1  0  0  0  0
  8 13  1  0  0  0  0
 18 26  1  0  0  0  0
 22 29  1  0  0  0  0
 46 48  1  0  0  0  0
  7 12  1  0  0  0  0
 36 41  1  0  0  0  0
 17 25  1  0  0  0  0
M  END
$$$$

  -OEChem-05262214473D

 51 50  0     1  0  0  0  0  0999 V2000
    3.4018   -1.2440   -3.0186 C   0  0  0  0  0  0  0  0  0  0  0  0
    3.2697   -2.0909   -2.1427 O   0  0  0  0  0  0  0  0  0  0  0  0
    4.6845   -1.1645   -3.7779 C   0  0  0  0  0  0  0  0  0  0  0  0
    5.4123   -0.4862   -3.3041 H   0  0  0  0  0  0  0  0  0  0  0  0
    5.1949   -2.1387   -3.8443 H   0  0  0  0  0  0  0  0  0  0  0  0
    4.5953   -0.8128   -4.8182 H   0  0  0  0  0  0  0  0  0  0  0  0
    2.4540   -0.3103   -3.4040 N   0  0  0  0  0  0  0  0  0  0  0  0
    1.1494   -0.2128   -2.8039 C   0  0  2  0  0  0  0  0  0  0  0  0
    1.3350    0.0367   -1.3130 C   0  0  0  0  0  0  0  0  0  0  0  0
    2.3625   -0.2586   -0.7063 O   0  0  0  0  0  0  0  0  0  0  0  0
    0.3331   -1.4728   -3.0467 C   0  0  0  0  0  0  0  0  0  0  0  0
    2.6924    0.3404   -4.1502 H   0  0  0  0  0  0  0  0  0  0  0  0
    0.6550    0.6514   -3.2607 H   0  0  0  0  0  0  0  0  0  0  0  0
    0.8129   -2.3494   -2.5963 H   0  0  0  0  0  0  0  0  0  0  0  0
   -0.6690   -1.3857   -2.6142 H   0  0  0  0  0  0  0  0  0  0  0  0
    0.2259   -1.6670   -4.1194 H   0  0  0  0  0  0  0  0  0  0  0  0
    0.2019    0.5893   -0.7269 N   0  0  0  0  0  0  0  0  0  0  0  0
    0.1242    0.9059    0.6756 C   0  0  2  0  0  0  0  0  0  0  0  0
    1.0251   -0.0823    1.4097 C   0  0  0  0  0  0  0  0  0  0  0  0
    2.1063    0.2352    1.9009 O   0  0  0  0  0  0  0  0  0  0  0  0
   -1.3100    0.8159    1.2125 C   0  0  0  0  0  0  0  0  0  0  0  0
   -2.2846    1.8613    0.6327 C   0  0  0  0  0  0  0  0  0  0  0  0
   -3.7045    1.5744    1.1291 C   0  0  0  0  0  0  0  0  0  0  0  0
   -2.2691    1.8875   -0.8963 C   0  0  0  0  0  0  0  0  0  0  0  0
   -0.5975    0.8179   -1.3140 H   0  0  0  0  0  0  0  0  0  0  0  0
    0.5335    1.9137    0.7988 H   0  0  0  0  0  0  0  0  0  0  0  0
   -1.2867    0.9255    2.3058 H   0  0  0  0  0  0  0  0  0  0  0  0
   -1.7076   -0.1898    1.0217 H   0  0  0  0  0  0  0  0  0  0  0  0
   -2.0026    2.8569    0.9964 H   0  0  0  0  0  0  0  0  0  0  0  0
   -4.0419    0.5876    0.7946 H   0  0  0  0  0  0  0  0  0  0  0  0
   -4.4100    2.3162    0.7402 H   0  0  0  0  0  0  0  0  0  0  0  0
   -3.7561    1.5975    2.2230 H   0  0  0  0  0  0  0  0  0  0  0  0
   -2.5449    0.9128   -1.3129 H   0  0  0  0  0  0  0  0  0  0  0  0
   -2.9773    2.6305   -1.2789 H   0  0  0  0  0  0  0  0  0  0  0  0
   -1.2809    2.1565   -1.2807 H   0  0  0  0  0  0  0  0  0  0  0  0
    0.4538   -1.3445    1.4935 N   0  0  0  0  0  0  0  0  0  0  0  0
    1.0874   -2.4585    2.1615 C   0  0  2  0  0  0  0  0  0  0  0  0
    1.7564   -1.9312    3.4239 C   0  0  0  0  0  0  0  0  0  0  0  0
    2.0785   -0.7540    3.5707 O   0  0  0  0  0  0  0  0  0  0  0  0
    2.0988   -3.1440    1.2560 C   0  0  0  0  0  0  0  0  0  0  0  0
   -0.4590   -1.5054    1.0780 H   0  0  0  0  0  0  0  0  0  0  0  0
    0.2901   -3.1583    2.4350 H   0  0  0  0  0  0  0  0  0  0  0  0
    2.9053   -2.4584    0.9714 H   0  0  0  0  0  0  0  0  0  0  0  0
    2.5572   -4.0051    1.7535 H   0  0  0  0  0  0  0  0  0  0  0  0
    1.6217   -3.4963    0.3352 H   0  0  0  0  0  0  0  0  0  0  0  0
    1.9906   -2.9380    4.3500 N   0  0  0  0  0  0  0  0  0  0  0  0
    2.6262   -2.6934    5.6236 C   0  0  0  0  0  0  0  0  0  0  0  0
    1.6730   -3.8824    4.1524 H   0  0  0  0  0  0  0  0  0  0  0  0
    3.7103   -2.8541    5.5298 H   0  0  0  0  0  0  0  0  0  0  0  0
    2.4351   -1.6559    5.9354 H   0  0  0  0  0  0  0  0  0  0  0  0
    2.2170   -3.3836    6.3760 H   0  0  0  0  0  0  0  0  0  0  0  0
  1  3  1  0  0  0  0
  1  7  1  0  0  0  0
  1  2  2  0  0  0  0
 37 38  1  0  0  0  0
 38 46  1  0  0  0  0
 38 39  2  0  0  0  0
  8  9  1  0  0  0  0
  9 17  1  0  0  0  0
  9 10  2  0  0  0  0
 18 19  1  0  0  0  0
 19 36  1  0  0  0  0
 19 20  2  0  0  0  0
 37 40  1  0  0  0  0
  8 11  1  0  0  0  0
 22 23  1  0  0  0  0
 22 24  1  0  0  0  0
 46 47  1  0  0  0  0
 18 21  1  0  0  0  0
 21 22  1  0  0  0  0
 36 37  1  0  0  0  0
  7  8  1  0  0  0  0
 17 18  1  0  0  0  0
  3  4  1  0  0  0  0
  3  5  1  0  0  0  0
  3  6  1  0  0  0  0
 40 43  1  0  0  0  0
 40 44  1  0  0  0  0
 40 45  1  0  0  0  0
 11 14  1  0  0  0  0
 11 15  1  0  0  0  0
 11 16  1  0  0  0  0
 23 30  1  0  0  0  0
 23 31  1  0  0  0  0
 23 32  1  0  0  0  0
 24 33  1  0  0  0  0
 24 34  1  0  0  0  0
 24 35  1  0  0  0  0
 47 49  1  0  0  0  0
 47 50  1  0  0  0  0
 47 51  1  0  0  0  0
 21 27  1  0  0  0  0
 21 28  1  0  0  0  0
 37 42  1  0  0  0  0
  8 13  1  0  0  0  0
 18 26  1  0  0  0  0
 22 29  1  0  0  0  0
 46 48  1  0  0  0  0
  7 12  1  0  0  0  0
 36 41  1  0  0  0  0
 17 25  1  0  0  0  0
M  END
$$$$

  -OEChem-05262214473D

 51 50  0     1  0  0  0  0  0999 V2000
    3.4018   -1.2440   -3.0186 C   0  0  0  0  0  0  0  0  0  0  0  0
    3.2697   -2.0909   -2.1427 O   0  0  0  0  0  0  0  0  0  0  0  0
    4.6845   -1.1645   -3.7779 C   0  0  0  0  0  0  0  0  0  0  0  0
    5.4123   -0.4862   -3.3041 H   0  0  0  0  0  0  0  0  0  0  0  0
    5.1949   -2.1387   -3.8443 H   0  0  0  0  0  0  0  0  0  0  0  0
    4.5953   -0.8128   -4.8182 H   0  0  0  0  0  0  0  0  0  0  0  0
    2.4540   -0.3103   -3.4040 N   0  0  0  0  0  0  0  0  0  0  0  0
    1.1494   -0.2128   -2.8039 C   0  0  2  0  0  0  0  0  0  0  0  0
    1.3350    0.0367   -1.3130 C   0  0  0  0  0  0  0  0  0  0  0  0
    2.3625   -0.2586   -0.7063 O   0  0  0  0  0  0  0  0  0  0  0  0
    0.3331   -1.4728   -3.0467 C   0  0  0  0  0  0  0  0  0  0  0  0
    2.6924    0.3404   -4.1502 H   0  0  0  0  0  0  0  0  0  0  0  0
    0.6550    0.6514   -3.2607 H   0  0  0  0  0  0  0  0  0  0  0  0
    0.8129   -2.3494   -2.5963 H   0  0  0  0  0  0  0  0  0  0  0  0
   -0.6690   -1.3857   -2.6142 H   0  0  0  0  0  0  0  0  0  0  0  0
    0.2259   -1.6670   -4.1194 H   0  0  0  0  0  0  0  0  0  0  0  0
    0.2019    0.5893   -0.7269 N   0  0  0  0  0  0  0  0  0  0  0  0
    0.1242    0.9059    0.6756 C   0  0  2  0  0  0  0  0  0  0  0  0
    1.0251   -0.0823    1.4097 C   0  0  0  0  0  0  0  0  0  0  0  0
    1.9610    0.2692    2.1250 O   0  0  0  0  0  0  0  0  0  0  0  0
   -1.3100    0.8159    1.2125 C   0  0  0  0  0  0  0  0  0  0  0  0
   -2.2846    1.8613    0.6327 C   0  0  0  0  0  0  0  0  0  0  0  0
   -3.7045    1.5744    1.1291 C   0  0  0  0  0  0  0  0  0  0  0  0
   -2.2691    1.8875   -0.8963 C   0  0  0  0  0  0  0  0  0  0  0  0
   -0.5975    0.8179   -1.3140 H   0  0  0  0  0  0  0  0  0  0  0  0
    0.5335    1.9137    0.7988 H   0  0  0  0  0  0  0  0  0  0  0  0
   -1.2867    0.9255    2.3058 H   0  0  0  0  0  0  0  0  0  0  0  0
   -1.7076   -0.1898    1.0217 H   0  0  0  0  0  0  0  0  0  0  0  0
   -2.0026    2.8569    0.9964 H   0  0  0  0  0  0  0  0  0  0  0  0
   -4.0419    0.5876    0.7946 H   0  0  0  0  0  0  0  0  0  0  0  0
   -4.4100    2.3162    0.7402 H   0  0  0  0  0  0  0  0  0  0  0  0
   -3.7561    1.5975    2.2230 H   0  0  0  0  0  0  0  0  0  0  0  0
   -2.5449    0.9128   -1.3129 H   0  0  0  0  0  0  0  0  0  0  0  0
   -2.9773    2.6305   -1.2789 H   0  0  0  0  0  0  0  0  0  0  0  0
   -1.2809    2.1565   -1.2807 H   0  0  0  0  0  0  0  0  0  0  0  0
    0.6268   -1.3970    1.2105 N   0  0  0  0  0  0  0  0  0  0  0  0
    1.2941   -2.5275    1.8149 C   0  0  2  0  0  0  0  0  0  0  0  0
    1.6763   -2.1423    3.2379 C   0  0  0  0  0  0  0  0  0  0  0  0
    1.8061   -0.9765    3.6054 O   0  0  0  0  0  0  0  0  0  0  0  0
    2.5205   -2.9386    1.0150 C   0  0  0  0  0  0  0  0  0  0  0  0
   -0.1779   -1.5885    0.6211 H   0  0  0  0  0  0  0  0  0  0  0  0
    0.5676   -3.3470    1.8403 H   0  0  0  0  0  0  0  0  0  0  0  0
    3.2597   -2.1301    0.9784 H   0  0  0  0  0  0  0  0  0  0  0  0
    3.0086   -3.8128    1.4583 H   0  0  0  0  0  0  0  0  0  0  0  0
    2.2479   -3.1866   -0.0165 H   0  0  0  0  0  0  0  0  0  0  0  0
    1.8976   -3.2545    4.0380 N   0  0  0  0  0  0  0  0  0  0  0  0
    2.2842   -3.1521    5.4259 C   0  0  0  0  0  0  0  0  0  0  0  0
    1.7481   -4.1834    3.6550 H   0  0  0  0  0  0  0  0  0  0  0  0
    3.3812   -3.1734    5.5040 H   0  0  0  0  0  0  0  0  0  0  0  0
    1.9053   -2.2074    5.8431 H   0  0  0  0  0  0  0  0  0  0  0  0
    1.8602   -3.9973    5.9878 H   0  0  0  0  0  0  0  0  0  0  0  0
  1  3  1  0  0  0  0
  1  7  1  0  0  0  0
  1  2  2  0  0  0  0
 37 38  1  0  0  0  0
 38 46  1  0  0  0  0
 38 39  2  0  0  0  0
  8  9  1  0  0  0  0
  9 17  1  0  0  0  0
  9 10  2  0  0  0  0
 18 19  1  0  0  0  0
 19 36  1  0  0  0  0
 19 20  2  0  0  0  0
 37 40  1  0  0  0  0
  8 11  1  0  0  0  0
 22 23  1  0  0  0  0
 22 24  1  0  0  0  0
 46 47  1  0  0  0  0
 18 21  1  0  0  0  0
 21 22  1  0  0  0  0
 36 37  1  0  0  0  0
  7  8  1  0  0  0  0
 17 18  1  0  0  0  0
  3  4  1  0  0  0  0
  3  5  1  0  0  0  0
  3  6  1  0  0  0  0
 40 43  1  0  0  0  0
 40 44  1  0  0  0  0
 40 45  1  0  0  0  0
 11 14  1  0  0  0  0
 11 15  1  0  0  0  0
 11 16  1  0  0  0  0
 23 30  1  0  0  0  0
 23 31  1  0  0  0  0
 23 32  1  0  0  0  0
 24 33  1  0  0  0  0
 24 34  1  0  0  0  0
 24 35  1  0  0  0  0
 47 49  1  0  0  0  0
 47 50  1  0  0  0  0
 47 51  1  0  0  0  0
 21 27  1  0  0  0  0
 21 28  1  0  0  0  0
 37 42  1  0  0  0  0
  8 13  1  0  0  0  0
 18 26  1  0  0  0  0
 22 29  1  0  0  0  0
 46 48  1  0  0  0  0
  7 12  1  0  0  0  0
 36 41  1  0  0  0  0
 17 25  1  0  0  0  0
M  END
$$$$

  -OEChem-05262214473D

 51 50  0     1  0  0  0  0  0999 V2000
    3.4018   -1.2440   -3.0186 C   0  0  0  0  0  0  0  0  0  0  0  0
    3.2697   -2.0909   -2.1427 O   0  0  0  0  0  0  0  0  0  0  0  0
    4.6845   -1.1645   -3.7779 C   0  0  0  0  0  0  0  0  0  0  0  0
    5.4123   -0.4862   -3.3041 H   0  0  0  0  0  0  0  0  0  0  0  0
    5.1949   -2.1387   -3.8443 H   0  0  0  0  0  0  0  0  0  0  0  0
    4.5953   -0.8128   -4.8182 H   0  0  0  0  0  0  0  0  0  0  0  0
    2.4540   -0.3103   -3.4040 N   0  0  0  0  0  0  0  0  0  0  0  0
    1.1494   -0.2128   -2.8039 C   0  0  2  0  0  0  0  0  0  0  0  0
    1.3350    0.0367   -1.3130 C   0  0  0  0  0  0  0  0  0  0  0  0
    2.3625   -0.2586   -0.7063 O   0  0  0  0  0  0  0  0  0  0  0  0
    0.3331   -1.4728   -3.0467 C   0  0  0  0  0  0  0  0  0  0  0  0
    2.6924    0.3404   -4.1502 H   0  0  0  0  0  0  0  0  0  0  0  0
    0.6550    0.6514   -3.2607 H   0  0  0  0  0  0  0  0  0  0  0  0
    0.8129   -2.3494   -2.5963 H   0  0  0  0  0  0  0  0  0  0  0  0
   -0.6690   -1.3857   -2.6142 H   0  0  0  0  0  0  0  0  0  0  0  0
    0.2259   -1.6670   -4.1194 H   0  0  0  0  0  0  0  0  0  0  0  0
    0.2019    0.5893   -0.7269 N   0  0  0  0  0  0  0  0  0  0  0  0
    0.1242    0.9059    0.6756 C   0  0  2  0  0  0  0  0  0  0  0  0
    1.0251   -0.0823    1.4097 C   0  0  0  0  0  0  0  0  0  0  0  0
    1.7789    0.2497    2.3222 O   0  0  0  0  0  0  0  0  0  0  0  0
   -1.3100    0.8159    1.2125 C   0  0  0  0  0  0  0  0  0  0  0  0
   -2.2846    1.8613    0.6327 C   0  0  0  0  0  0  0  0  0  0  0  0
   -3.7045    1.5744    1.1291 C   0  0  0  0  0  0  0  0  0  0  0  0
   -2.2691    1.8875   -0.8963 C   0  0  0  0  0  0  0  0  0  0  0  0
   -0.5975    0.8179   -1.3140 H   0  0  0  0  0  0  0  0  0  0  0  0
    0.5335    1.9137    0.7988 H   0  0  0  0  0  0  0  0  0  0  0  0
   -1.2867    0.9255    2.3058 H   0  0  0  0  0  0  0  0  0  0  0  0
   -1.7076   -0.1898    1.0217 H   0  0  0  0  0  0  0  0  0  0  0  0
   -2.0026    2.8569    0.9964 H   0  0  0  0  0  0  0  0  0  0  0  0
   -4.0419    0.5876    0.7946 H   0  0  0  0  0  0  0  0  0  0  0  0
   -4.4100    2.3162    0.7402 H   0  0  0  0  0  0  0  0  0  0  0  0
   -3.7561    1.5975    2.2230 H   0  0  0  0  0  0  0  0  0  0  0  0
   -2.5449    0.9128   -1.3129 H   0  0  0  0  0  0  0  0  0  0  0  0
   -2.9773    2.6305   -1.2789 H   0  0  0  0  0  0  0  0  0  0  0  0
   -1.2809    2.1565   -1.2807 H   0  0  0  0  0  0  0  0  0  0  0  0
    0.8480   -1.3828    0.9581 N   0  0  0  0  0  0  0  0  0  0  0  0
    1.5606   -2.5154    1.5042 C   0  0  2  0  0  0  0  0  0  0  0  0
    1.6565   -2.3279    3.0125 C   0  0  0  0  0  0  0  0  0  0  0  0
    1.5649   -1.2307    3.5592 O   0  0  0  0  0  0  0  0  0  0  0  0
    2.9426   -2.6508    0.8843 C   0  0  0  0  0  0  0  0  0  0  0  0
    0.1806   -1.5640    0.2142 H   0  0  0  0  0  0  0  0  0  0  0  0
    0.9589   -3.4039    1.2836 H   0  0  0  0  0  0  0  0  0  0  0  0
    3.5600   -1.7699    1.0947 H   0  0  0  0  0  0  0  0  0  0  0  0
    3.4701   -3.5259    1.2782 H   0  0  0  0  0  0  0  0  0  0  0  0
    2.8732   -2.7558   -0.2038 H   0  0  0  0  0  0  0  0  0  0  0  0
    1.8994   -3.5242    3.6728 N   0  0  0  0  0  0  0  0  0  0  0  0
    2.0441   -3.6075    5.1074 C   0  0  0  0  0  0  0  0  0  0  0  0
    1.9416   -4.3887    3.1411 H   0  0  0  0  0  0  0  0  0  0  0  0
    3.1074   -3.5189    5.3750 H   0  0  0  0  0  0  0  0  0  0  0  0
    1.4778   -2.7920    5.5809 H   0  0  0  0  0  0  0  0  0  0  0  0
    1.6570   -4.5752    5.4592 H   0  0  0  0  0  0  0  0  0  0  0  0
  1  3  1  0  0  0  0
  1  7  1  0  0  0  0
  1  2  2  0  0  0  0
 37 38  1  0  0  0  0
 38 46  1  0  0  0  0
 38 39  2  0  0  0  0
  8  9  1  0  0  0  0
  9 17  1  0  0  0  0
  9 10  2  0  0  0  0
 18 19  1  0  0  0  0
 19 36  1  0  0  0  0
 19 20  2  0  0  0  0
 37 40  1  0  0  0  0
  8 11  1  0  0  0  0
 22 23  1  0  0  0  0
 22 24  1  0  0  0  0
 46 47  1  0  0  0  0
 18 21  1  0  0  0  0
 21 22  1  0  0  0  0
 36 37  1  0  0  0  0
  7  8  1  0  0  0  0
 17 18  1  0  0  0  0
  3  4  1  0  0  0  0
  3  5  1  0  0  0  0
  3  6  1  0  0  0  0
 40 43  1  0  0  0  0
 40 44  1  0  0  0  0
 40 45  1  0  0  0  0
 11 14  1  0  0  0  0
 11 15  1  0  0  0  0
 11 16  1  0  0  0  0
 23 30  1  0  0  0  0
 23 31  1  0  0  0  0
 23 32  1  0  0  0  0
 24 33  1  0  0  0  0
 24 34  1  0  0  0  0
 24 35  1  0  0  0  0
 47 49  1  0  0  0  0
 47 50  1  0  0  0  0
 47 51  1  0  0  0  0
 21 27  1  0  0  0  0
 21 28  1  0  0  0  0
 37 42  1  0  0  0  0
  8 13  1  0  0  0  0
 18 26  1  0  0  0  0
 22 29  1  0  0  0  0
 46 48  1  0  0  0  0
  7 12  1  0  0  0  0
 36 41  1  0  0  0  0
 17 25  1  0  0  0  0
M  END
$$$$

  -OEChem-05262214473D

 51 50  0     1  0  0  0  0  0999 V2000
    3.4018   -1.2440   -3.0186 C   0  0  0  0  0  0  0  0  0  0  0  0
    3.2697   -2.0909   -2.1427 O   0  0  0  0  0  0  0  0  0  0  0  0
    4.6845   -1.1645   -3.7779 C   0  0  0  0  0  0  0  0  0  0  0  0
    5.4123   -0.4862   -3.3041 H   0  0  0  0  0  0  0  0  0  0  0  0
    5.1949   -2.1387   -3.8443 H   0  0  0  0  0  0  0  0  0  0  0  0
    4.5953   -0.8128   -4.8182 H   0  0  0  0  0  0  0  0  0  0  0  0
    2.4540   -0.3103   -3.4040 N   0  0  0  0  0  0  0  0  0  0  0  0
    1.1494   -0.2128   -2.8039 C   0  0  2  0  0  0  0  0  0  0  0  0
    1.3350    0.0367   -1.3130 C   0  0  0  0  0  0  0  0  0  0  0  0
    2.3625   -0.2586   -0.7063 O   0  0  0  0  0  0  0  0  0  0  0  0
    0.3331   -1.4728   -3.0467 C   0  0  0  0  0  0  0  0  0  0  0  0
    2.6924    0.3404   -4.1502 H   0  0  0  0  0  0  0  0  0  0  0  0
    0.6550    0.6514   -3.2607 H   0  0  0  0  0  0  0  0  0  0  0  0
    0.8129   -2.3494   -2.5963 H   0  0  0  0  0  0  0  0  0  0  0  0
   -0.6690   -1.3857   -2.6142 H   0  0  0  0  0  0  0  0  0  0  0  0
    0.2259   -1.6670   -4.1194 H   0  0  0  0  0  0  0  0  0  0  0  0
    0.2019    0.5893   -0.7269 N   0  0  0  0  0  0  0  0  0  0  0  0
    0.1242    0.9059    0.6756 C   0  0  2  0  0  0  0  0  0  0  0  0
    1.0251   -0.0823    1.4097 C   0  0  0  0  0  0  0  0  0  0  0  0
    1.5723    0.1780    2.4792 O   0  0  0  0  0  0  0  0  0  0  0  0
   -1.3100    0.8159    1.2125 C   0  0  0  0  0  0  0  0  0  0  0  0
   -2.2846    1.8613    0.6327 C   0  0  0  0  0  0  0  0  0  0  0  0
   -3.7045    1.5744    1.1291 C   0  0  0  0  0  0  0  0  0  0  0  0
   -2.2691    1.8875   -0.8963 C   0  0  0  0  0  0  0  0  0  0  0  0
   -0.5975    0.8179   -1.3140 H   0  0  0  0  0  0  0  0  0  0  0  0
    0.5335    1.9137    0.7988 H   0  0  0  0  0  0  0  0  0  0  0  0
   -1.2867    0.9255    2.3058 H   0  0  0  0  0  0  0  0  0  0  0  0
   -1.7076   -0.1898    1.0217 H   0  0  0  0  0  0  0  0  0  0  0  0
   -2.0026    2.8569    0.9964 H   0  0  0  0  0  0  0  0  0  0  0  0
   -4.0419    0.5876    0.7946 H   0  0  0  0  0  0  0  0  0  0  0  0
   -4.4100    2.3162    0.7402 H   0  0  0  0  0  0  0  0  0  0  0  0
   -3.7561    1.5975    2.2230 H   0  0  0  0  0  0  0  0  0  0  0  0
   -2.5449    0.9128   -1.3129 H   0  0  0  0  0  0  0  0  0  0  0  0
   -2.9773    2.6305   -1.2789 H   0  0  0  0  0  0  0  0  0  0  0  0
   -1.2809    2.1565   -1.2807 H   0  0  0  0  0  0  0  0  0  0  0  0
    1.1022   -1.3030    0.7535 N   0  0  0  0  0  0  0  0  0  0  0  0
    1.8685   -2.4230    1.2506 C   0  0  2  0  0  0  0  0  0  0  0  0
    1.6982   -2.4751    2.7631 C   0  0  0  0  0  0  0  0  0  0  0  0
    1.3714   -1.4992    3.4354 O   0  0  0  0  0  0  0  0  0  0  0  0
    3.3365   -2.3003    0.8728 C   0  0  0  0  0  0  0  0  0  0  0  0
    0.5921   -1.4334   -0.1150 H   0  0  0  0  0  0  0  0  0  0  0  0
    1.4373   -3.3249    0.8027 H   0  0  0  0  0  0  0  0  0  0  0  0
    3.7857   -1.4024    1.3125 H   0  0  0  0  0  0  0  0  0  0  0  0
    3.9104   -3.1636    1.2255 H   0  0  0  0  0  0  0  0  0  0  0  0
    3.4549   -2.2330   -0.2140 H   0  0  0  0  0  0  0  0  0  0  0  0
    1.9960   -3.7286    3.2790 N   0  0  0  0  0  0  0  0  0  0  0  0
    1.9223   -4.0287    4.6899 C   0  0  0  0  0  0  0  0  0  0  0  0
    2.2402   -4.4844    2.6459 H   0  0  0  0  0  0  0  0  0  0  0  0
    2.9075   -3.8670    5.1516 H   0  0  0  0  0  0  0  0  0  0  0  0
    1.1815   -3.3698    5.1665 H   0  0  0  0  0  0  0  0  0  0  0  0
    1.6214   -5.0779    4.8262 H   0  0  0  0  0  0  0  0  0  0  0  0
  1  3  1  0  0  0  0
  1  7  1  0  0  0  0
  1  2  2  0  0  0  0
 37 38  1  0  0  0  0
 38 46  1  0  0  0  0
 38 39  2  0  0  0  0
  8  9  1  0  0  0  0
  9 17  1  0  0  0  0
  9 10  2  0  0  0  0
 18 19  1  0  0  0  0
 19 36  1  0  0  0  0
 19 20  2  0  0  0  0
 37 40  1  0  0  0  0
  8 11  1  0  0  0  0
 22 23  1  0  0  0  0
 22 24  1  0  0  0  0
 46 47  1  0  0  0  0
 18 21  1  0  0  0  0
 21 22  1  0  0  0  0
 36 37  1  0  0  0  0
  7  8  1  0  0  0  0
 17 18  1  0  0  0  0
  3  4  1  0  0  0  0
  3  5  1  0  0  0  0
  3  6  1  0  0  0  0
 40 43  1  0  0  0  0
 40 44  1  0  0  0  0
 40 45  1  0  0  0  0
 11 14  1  0  0  0  0
 11 15  1  0  0  0  0
 11 16  1  0  0  0  0
 23 30  1  0  0  0  0
 23 31  1  0  0  0  0
 23 32  1  0  0  0  0
 24 33  1  0  0  0  0
 24 34  1  0  0  0  0
 24 35  1  0  0  0  0
 47 49  1  0  0  0  0
 47 50  1  0  0  0  0
 47 51  1  0  0  0  0
 21 27  1  0  0  0  0
 21 28  1  0  0  0  0
 37 42  1  0  0  0  0
  8 13  1  0  0  0  0
 18 26  1  0  0  0  0
 22 29  1  0  0  0  0
 46 48  1  0  0  0  0
  7 12  1  0  0  0  0
 36 41  1  0  0  0  0
 17 25  1  0  0  0  0
M  END
$$$$

  -OEChem-05262214473D

 51 50  0     1  0  0  0  0  0999 V2000
    3.4018   -1.2440   -3.0186 C   0  0  0  0  0  0  0  0  0  0  0  0
    3.2697   -2.0909   -2.1427 O   0  0  0  0  0  0  0  0  0  0  0  0
    4.6845   -1.1645   -3.7779 C   0  0  0  0  0  0  0  0  0  0  0  0
    5.4123   -0.4862   -3.3041 H   0  0  0  0  0  0  0  0  0  0  0  0
    5.1949   -2.1387   -3.8443 H   0  0  0  0  0  0  0  0  0  0  0  0
    4.5953   -0.8128   -4.8182 H   0  0  0  0  0  0  0  0  0  0  0  0
    2.4540   -0.3103   -3.4040 N   0  0  0  0  0  0  0  0  0  0  0  0
    1.1494   -0.2128   -2.8039 C   0  0  2  0  0  0  0  0  0  0  0  0
    1.3350    0.0367   -1.3130 C   0  0  0  0  0  0  0  0  0  0  0  0
    2.3625   -0.2586   -0.7063 O   0  0  0  0  0  0  0  0  0  0  0  0
    0.3331   -1.4728   -3.0467 C   0  0  0  0  0  0  0  0  0  0  0  0
    2.6924    0.3404   -4.1502 H   0  0  0  0  0  0  0  0  0  0  0  0
    0.6550    0.6514   -3.2607 H   0  0  0  0  0  0  0  0  0  0  0  0
    0.8129   -2.3494   -2.5963 H   0  0  0  0  0  0  0  0  0  0  0  0
   -0.6690   -1.3857   -2.6142 H   0  0  0  0  0  0  0  0  0  0  0  0
    0.2259   -1.6670   -4.1194 H   0  0  0  0  0  0  0  0  0  0  0  0
    0.2019    0.5893   -0.7269 N   0  0  0  0  0  0  0  0  0  0  0  0
    0.1242    0.9059    0.6756 C   0  0  2  0  0  0  0  0  0  0  0  0
    1.0251   -0.0823    1.4097 C   0  0  0  0  0  0  0  0  0  0  0  0
    1.3554    0.0590    2.5853 O   0  0  0  0  0  0  0  0  0  0  0  0
   -1.3100    0.8159    1.2125 C   0  0  0  0  0  0  0  0  0  0  0  0
   -2.2846    1.8613    0.6327 C   0  0  0  0  0  0  0  0  0  0  0  0
   -3.7045    1.5744    1.1291 C   0  0  0  0  0  0  0  0  0  0  0  0
   -2.2691    1.8875   -0.8963 C   0  0  0  0  0  0  0  0  0  0  0  0
   -0.5975    0.8179   -1.3140 H   0  0  0  0  0  0  0  0  0  0  0  0
    0.5335    1.9137    0.7988 H   0  0  0  0  0  0  0  0  0  0  0  0
   -1.2867    0.9255    2.3058 H   0  0  0  0  0  0  0  0  0  0  0  0
   -1.7076   -0.1898    1.0217 H   0  0  0  0  0  0  0  0  0  0  0  0
   -2.0026    2.8569    0.9964 H   0  0  0  0  0  0  0  0  0  0  0  0
   -4.0419    0.5876    0.7946 H   0  0  0  0  0  0  0  0  0  0  0  0
   -4.4100    2.3162    0.7402 H   0  0  0  0  0  0  0  0  0  0  0  0
   -3.7561    1.5975    2.2230 H   0  0  0  0  0  0  0  0  0  0  0  0
   -2.5449    0.9128   -1.3129 H   0  0  0  0  0  0  0  0  0  0  0  0
   -2.9773    2.6305   -1.2789 H   0  0  0  0  0  0  0  0  0  0  0  0
   -1.2809    2.1565   -1.2807 H   0  0  0  0  0  0  0  0  0  0  0  0
    1.3721   -1.1630    0.6108 N   0  0  0  0  0  0  0  0  0  0  0  0
    2.1969   -2.2567    1.0714 C   0  0  2  0  0  0  0  0  0  0  0  0
    1.7986   -2.5740    2.5068 C   0  0  0  0  0  0  0  0  0  0  0  0
    1.2386   -1.7637    3.2422 O   0  0  0  0  0  0  0  0  0  0  0  0
    3.6751   -1.9110    0.9813 C   0  0  0  0  0  0  0  0  0  0  0  0
    1.0285   -1.2057   -0.3441 H   0  0  0  0  0  0  0  0  0  0  0  0
    1.9701   -3.1156    0.4305 H   0  0  0  0  0  0  0  0  0  0  0  0
    3.9214   -1.0526    1.6169 H   0  0  0  0  0  0  0  0  0  0  0  0
    4.2994   -2.7508    1.3037 H   0  0  0  0  0  0  0  0  0  0  0  0
    3.9534   -1.6541   -0.0465 H   0  0  0  0  0  0  0  0  0  0  0  0
    2.1808   -3.8538    2.8837 N   0  0  0  0  0  0  0  0  0  0  0  0
    1.9271   -4.3868    4.2018 C   0  0  0  0  0  0  0  0  0  0  0  0
    2.6236   -4.4639    2.2029 H   0  0  0  0  0  0  0  0  0  0  0  0
    2.7953   -4.1939    4.8492 H   0  0  0  0  0  0  0  0  0  0  0  0
    1.0369   -3.9016    4.6283 H   0  0  0  0  0  0  0  0  0  0  0  0
    1.7557   -5.4711    4.1320 H   0  0  0  0  0  0  0  0  0  0  0  0
  1  3  1  0  0  0  0
  1  7  1  0  0  0  0
  1  2  2  0  0  0  0
 37 38  1  0  0  0  0
 38 46  1  0  0  0  0
 38 39  2  0  0  0  0
  8  9  1  0  0  0  0
  9 17  1  0  0  0  0
  9 10  2  0  0  0  0
 18 19  1  0  0  0  0
 19 36  1  0  0  0  0
 19 20  2  0  0  0  0
 37 40  1  0  0  0  0
  8 11  1  0  0  0  0
 22 23  1  0  0  0  0
 22 24  1  0  0  0  0
 46 47  1  0  0  0  0
 18 21  1  0  0  0  0
 21 22  1  0  0  0  0
 36 37  1  0  0  0  0
  7  8  1  0  0  0  0
 17 18  1  0  0  0  0
  3  4  1  0  0  0  0
  3  5  1  0  0  0  0
  3  6  1  0  0  0  0
 40 43  1  0  0  0  0
 40 44  1  0  0  0  0
 40 45  1  0  0  0  0
 11 14  1  0  0  0  0
 11 15  1  0  0  0  0
 11 16  1  0  0  0  0
 23 30  1  0  0  0  0
 23 31  1  0  0  0  0
 23 32  1  0  0  0  0
 24 33  1  0  0  0  0
 24 34  1  0  0  0  0
 24 35  1  0  0  0  0
 47 49  1  0  0  0  0
 47 50  1  0  0  0  0
 47 51  1  0  0  0  0
 21 27  1  0  0  0  0
 21 28  1  0  0  0  0
 37 42  1  0  0  0  0
  8 13  1  0  0  0  0
 18 26  1  0  0  0  0
 22 29  1  0  0  0  0
 46 48  1  0  0  0  0
  7 12  1  0  0  0  0
 36 41  1  0  0  0  0
 17 25  1  0  0  0  0
M  END
$$$$

  -OEChem-05262214473D

 51 50  0     1  0  0  0  0  0999 V2000
    3.4018   -1.2440   -3.0186 C   0  0  0  0  0  0  0  0  0  0  0  0
    3.2697   -2.0909   -2.1427 O   0  0  0  0  0  0  0  0  0  0  0  0
    4.6845   -1.1645   -3.7779 C   0  0  0  0  0  0  0  0  0  0  0  0
    5.4123   -0.4862   -3.3041 H   0  0  0  0  0  0  0  0  0  0  0  0
    5.1949   -2.1387   -3.8443 H   0  0  0  0  0  0  0  0  0  0  0  0
    4.5953   -0.8128   -4.8182 H   0  0  0  0  0  0  0  0  0  0  0  0
    2.4540   -0.3103   -3.4040 N   0  0  0  0  0  0  0  0  0  0  0  0
    1.1494   -0.2128   -2.8039 C   0  0  2  0  0  0  0  0  0  0  0  0
    1.3350    0.0367   -1.3130 C   0  0  0  0  0  0  0  0  0  0  0  0
    2.3625   -0.2586   -0.7063 O   0  0  0  0  0  0  0  0  0  0  0  0
    0.3331   -1.4728   -3.0467 C   0  0  0  0  0  0  0  0  0  0  0  0
    2.6924    0.3404   -4.1502 H   0  0  0  0  0  0  0  0  0  0  0  0
    0.6550    0.6514   -3.2607 H   0  0  0  0  0  0  0  0  0  0  0  0
    0.8129   -2.3494   -2.5963 H   0  0  0  0  0  0  0  0  0  0  0  0
   -0.6690   -1.3857   -2.6142 H   0  0  0  0  0  0  0  0  0  0  0  0
    0.2259   -1.6670   -4.1194 H   0  0  0  0  0  0  0  0  0  0  0  0
    0.2019    0.5893   -0.7269 N   0  0  0  0  0  0  0  0  0  0  0  0
    0.1242    0.9059    0.6756 C   0  0  2  0  0  0  0  0  0  0  0  0
    1.0251   -0.0823    1.4097 C   0  0  0  0  0  0  0  0  0  0  0  0
    1.1429   -0.0992    2.6332 O   0  0  0  0  0  0  0  0  0  0  0  0
   -1.3100    0.8159    1.2125 C   0  0  0  0  0  0  0  0  0  0  0  0
   -2.2846    1.8613    0.6327 C   0  0  0  0  0  0  0  0  0  0  0  0
   -3.7045    1.5744    1.1291 C   0  0  0  0  0  0  0  0  0  0  0  0
   -2.2691    1.8875   -0.8963 C   0  0  0  0  0  0  0  0  0  0  0  0
   -0.5975    0.8179   -1.3140 H   0  0  0  0  0  0  0  0  0  0  0  0
    0.5335    1.9137    0.7988 H   0  0  0  0  0  0  0  0  0  0  0  0
   -1.2867    0.9255    2.3058 H   0  0  0  0  0  0  0  0  0  0  0  0
   -1.7076   -0.1898    1.0217 H   0  0  0  0  0  0  0  0  0  0  0  0
   -2.0026    2.8569    0.9964 H   0  0  0  0  0  0  0  0  0  0  0  0
   -4.0419    0.5876    0.7946 H   0  0  0  0  0  0  0  0  0  0  0  0
   -4.4100    2.3162    0.7402 H   0  0  0  0  0  0  0  0  0  0  0  0
   -3.7561    1.5975    2.2230 H   0  0  0  0  0  0  0  0  0  0  0  0
   -2.5449    0.9128   -1.3129 H   0  0  0  0  0  0  0  0  0  0  0  0
   -2.9773    2.6305   -1.2789 H   0  0  0  0  0  0  0  0  0  0  0  0
   -1.2809    2.1565   -1.2807 H   0  0  0  0  0  0  0  0  0  0  0  0
    1.6393   -0.9724    0.5395 N   0  0  0  0  0  0  0  0  0  0  0  0
    2.5235   -2.0277    0.9789 C   0  0  2  0  0  0  0  0  0  0  0  0
    1.9509   -2.6178    2.2608 C   0  0  0  0  0  0  0  0  0  0  0  0
    1.1757   -2.0062    2.9929 O   0  0  0  0  0  0  0  0  0  0  0  0
    3.9356   -1.5093    1.2024 C   0  0  0  0  0  0  0  0  0  0  0  0
    1.4600   -0.8965   -0.4573 H   0  0  0  0  0  0  0  0  0  0  0  0
    2.5212   -2.7902    0.1923 H   0  0  0  0  0  0  0  0  0  0  0  0
    3.9579   -0.7443    1.9871 H   0  0  0  0  0  0  0  0  0  0  0  0
    4.6106   -2.3156    1.5077 H   0  0  0  0  0  0  0  0  0  0  0  0
    4.3347   -1.0585    0.2874 H   0  0  0  0  0  0  0  0  0  0  0  0
    2.4412   -3.8913    2.5136 N   0  0  0  0  0  0  0  0  0  0  0  0
    2.0582   -4.6576    3.6765 C   0  0  0  0  0  0  0  0  0  0  0  0
    3.0656   -4.3287    1.8424 H   0  0  0  0  0  0  0  0  0  0  0  0
    2.7783   -4.4775    4.4883 H   0  0  0  0  0  0  0  0  0  0  0  0
    1.0536   -4.3509    4.0029 H   0  0  0  0  0  0  0  0  0  0  0  0
    2.0508   -5.7281    3.4238 H   0  0  0  0  0  0  0  0  0  0  0  0
  1  3  1  0  0  0  0
  1  7  1  0  0  0  0
  1  2  2  0  0  0  0
 37 38  1  0  0  0  0
 38 46  1  0  0  0  0
 38 39  2  0  0  0  0
  8  9  1  0  0  0  0
  9 17  1  0  0  0  0
  9 10  2  0  0  0  0
 18 19  1  0  0  0  0
 19 36  1  0  0  0  0
 19 20  2  0  0  0  0
 37 40  1  0  0  0  0
  8 11  1  0  0  0  0
 22 23  1  0  0  0  0
 22 24  1  0  0  0  0
 46 47  1  0  0  0  0
 18 21  1  0  0  0  0
 21 22  1  0  0  0  0
 36 37  1  0  0  0  0
  7  8  1  0  0  0  0
 17 18  1  0  0  0  0
  3  4  1  0  0  0  0
  3  5  1  0  0  0  0
  3  6  1  0  0  0  0
 40 43  1  0  0  0  0
 40 44  1  0  0  0  0
 40 45  1  0  0  0  0
 11 14  1  0  0  0  0
 11 15  1  0  0  0  0
 11 16  1  0  0  0  0
 23 30  1  0  0  0  0
 23 31  1  0  0  0  0
 23 32  1  0  0  0  0
 24 33  1  0  0  0  0
 24 34  1  0  0  0  0
 24 35  1  0  0  0  0
 47 49  1  0  0  0  0
 47 50  1  0  0  0  0
 47 51  1  0  0  0  0
 21 27  1  0  0  0  0
 21 28  1  0  0  0  0
 37 42  1  0  0  0  0
  8 13  1  0  0  0  0
 18 26  1  0  0  0  0
 22 29  1  0  0  0  0
 46 48  1  0  0  0  0
  7 12  1  0  0  0  0
 36 41  1  0  0  0  0
 17 25  1  0  0  0  0
M  END
$$$$

  -OEChem-05262214473D

 51 50  0     1  0  0  0  0  0999 V2000
    3.4018   -1.2440   -3.0186 C   0  0  0  0  0  0  0  0  0  0  0  0
    3.2697   -2.0909   -2.1427 O   0  0  0  0  0  0  0  0  0  0  0  0
    4.6845   -1.1645   -3.7779 C   0  0  0  0  0  0  0  0  0  0  0  0
    5.4123   -0.4862   -3.3041 H   0  0  0  0  0  0  0  0  0  0  0  0
    5.1949   -2.1387   -3.8443 H   0  0  0  0  0  0  0  0  0  0  0  0
    4.5953   -0.8128   -4.8182 H   0  0  0  0  0  0  0  0  0  0  0  0
    2.4540   -0.3103   -3.4040 N   0  0  0  0  0  0  0  0  0  0  0  0
    1.1494   -0.2128   -2.8039 C   0  0  2  0  0  0  0  0  0  0  0  0
    1.3350    0.0367   -1.3130 C   0  0  0  0  0  0  0  0  0  0  0  0
    2.3625   -0.2586   -0.7063 O   0  0  0  0  0  0  0  0  0  0  0  0
    0.3331   -1.4728   -3.0467 C   0  0  0  0  0  0  0  0  0  0  0  0
    2.6924    0.3404   -4.1502 H   0  0  0  0  0  0  0  0  0  0  0  0
    0.6550    0.6514   -3.2607 H   0  0  0  0  0  0  0  0  0  0  0  0
    0.8129   -2.3494   -2.5963 H   0  0  0  0  0  0  0  0  0  0  0  0
   -0.6690   -1.3857   -2.6142 H   0  0  0  0  0  0  0  0  0  0  0  0
    0.2259   -1.6670   -4.1194 H   0  0  0  0  0  0  0  0  0  0  0  0
    0.2019    0.5893   -0.7269 N   0  0  0  0  0  0  0  0  0  0  0  0
    0.1242    0.9059    0.6756 C   0  0  2  0  0  0  0  0  0  0  0  0
    1.0251   -0.0823    1.4097 C   0  0  0  0  0  0  0  0  0  0  0  0
    0.9493   -0.2857    2.6196 O   0  0  0  0  0  0  0  0  0  0  0  0
   -1.3100    0.8159    1.2125 C   0  0  0  0  0  0  0  0  0  0  0  0
   -2.2846    1.8613    0.6327 C   0  0  0  0  0  0  0  0  0  0  0  0
   -3.7045    1.5744    1.1291 C   0  0  0  0  0  0  0  0  0  0  0  0
   -2.2691    1.8875   -0.8963 C   0  0  0  0  0  0  0  0  0  0  0  0
   -0.5975    0.8179   -1.3140 H   0  0  0  0  0  0  0  0  0  0  0  0
    0.5335    1.9137    0.7988 H   0  0  0  0  0  0  0  0  0  0  0  0
   -1.2867    0.9255    2.3058 H   0  0  0  0  0  0  0  0  0  0  0  0
   -1.7076   -0.1898    1.0217 H   0  0  0  0  0  0  0  0  0  0  0  0
   -2.0026    2.8569    0.9964 H   0  0  0  0  0  0  0  0  0  0  0  0
   -4.0419    0.5876    0.7946 H   0  0  0  0  0  0  0  0  0  0  0  0
   -4.4100    2.3162    0.7402 H   0  0  0  0  0  0  0  0  0  0  0  0
   -3.7561    1.5975    2.2230 H   0  0  0  0  0  0  0  0  0  0  0  0
   -2.5449    0.9128   -1.3129 H   0  0  0  0  0  0  0  0  0  0  0  0
   -2.9773    2.6305   -1.2789 H   0  0  0  0  0  0  0  0  0  0  0  0
   -1.2809    2.1565   -1.2807 H   0  0  0  0  0  0  0  0  0  0  0  0
    1.8856   -0.7440    0.5446 N   0  0  0  0  0  0  0  0  0  0  0  0
    2.8260   -1.7517    0.9792 C   0  0  2  0  0  0  0  0  0  0  0  0
    2.1448   -2.6036    2.0421 C   0  0  0  0  0  0  0  0  0  0  0  0
    1.1869   -2.2102    2.7046 O   0  0  0  0  0  0  0  0  0  0  0  0
    4.1001   -1.1227    1.5211 C   0  0  0  0  0  0  0  0  0  0  0  0
    1.8573   -0.5267   -0.4471 H   0  0  0  0  0  0  0  0  0  0  0  0
    3.0529   -2.3708    0.1044 H   0  0  0  0  0  0  0  0  0  0  0  0
    3.8927   -0.4986    2.3980 H   0  0  0  0  0  0  0  0  0  0  0  0
    4.8228   -1.8877    1.8233 H   0  0  0  0  0  0  0  0  0  0  0  0
    4.5728   -0.4867    0.7649 H   0  0  0  0  0  0  0  0  0  0  0  0
    2.7594   -3.8386    2.1941 N   0  0  0  0  0  0  0  0  0  0  0  0
    2.3067   -4.8225    3.1496 C   0  0  0  0  0  0  0  0  0  0  0  0
    3.5362   -4.0880    1.5890 H   0  0  0  0  0  0  0  0  0  0  0  0
    2.8577   -4.6984    4.0935 H   0  0  0  0  0  0  0  0  0  0  0  0
    1.2305   -4.6872    3.3329 H   0  0  0  0  0  0  0  0  0  0  0  0
    2.4866   -5.8314    2.7500 H   0  0  0  0  0  0  0  0  0  0  0  0
  1  3  1  0  0  0  0
  1  7  1  0  0  0  0
  1  2  2  0  0  0  0
 37 38  1  0  0  0  0
 38 46  1  0  0  0  0
 38 39  2  0  0  0  0
  8  9  1  0  0  0  0
  9 17  1  0  0  0  0
  9 10  2  0  0  0  0
 18 19  1  0  0  0  0
 19 36  1  0  0  0  0
 19 20  2  0  0  0  0
 37 40  1  0  0  0  0
  8 11  1  0  0  0  0
 22 23  1  0  0  0  0
 22 24  1  0  0  0  0
 46 47  1  0  0  0  0
 18 21  1  0  0  0  0
 21 22  1  0  0  0  0
 36 37  1  0  0  0  0
  7  8  1  0  0  0  0
 17 18  1  0  0  0  0
  3  4  1  0  0  0  0
  3  5  1  0  0  0  0
  3  6  1  0  0  0  0
 40 43  1  0  0  0  0
 40 44  1  0  0  0  0
 40 45  1  0  0  0  0
 11 14  1  0  0  0  0
 11 15  1  0  0  0  0
 11 16  1  0  0  0  0
 23 30  1  0  0  0  0
 23 31  1  0  0  0  0
 23 32  1  0  0  0  0
 24 33  1  0  0  0  0
 24 34  1  0  0  0  0
 24 35  1  0  0  0  0
 47 49  1  0  0  0  0
 47 50  1  0  0  0  0
 47 51  1  0  0  0  0
 21 27  1  0  0  0  0
 21 28  1  0  0  0  0
 37 42  1  0  0  0  0
  8 13  1  0  0  0  0
 18 26  1  0  0  0  0
 22 29  1  0  0  0  0
 46 48  1  0  0  0  0
  7 12  1  0  0  0  0
 36 41  1  0  0  0  0
 17 25  1  0  0  0  0
M  END
$$$$

  -OEChem-05262214473D

 51 50  0     1  0  0  0  0  0999 V2000
    3.4018   -1.2440   -3.0186 C   0  0  0  0  0  0  0  0  0  0  0  0
    3.2697   -2.0909   -2.1427 O   0  0  0  0  0  0  0  0  0  0  0  0
    4.6845   -1.1645   -3.7779 C   0  0  0  0  0  0  0  0  0  0  0  0
    5.4123   -0.4862   -3.3041 H   0  0  0  0  0  0  0  0  0  0  0  0
    5.1949   -2.1387   -3.8443 H   0  0  0  0  0  0  0  0  0  0  0  0
    4.5953   -0.8128   -4.8182 H   0  0  0  0  0  0  0  0  0  0  0  0
    2.4540   -0.3103   -3.4040 N   0  0  0  0  0  0  0  0  0  0  0  0
    1.1494   -0.2128   -2.8039 C   0  0  2  0  0  0  0  0  0  0  0  0
    1.3350    0.0367   -1.3130 C   0  0  0  0  0  0  0  0  0  0  0  0
    2.3625   -0.2586   -0.7063 O   0  0  0  0  0  0  0  0  0  0  0  0
    0.3331   -1.4728   -3.0467 C   0  0  0  0  0  0  0  0  0  0  0  0
    2.6924    0.3404   -4.1502 H   0  0  0  0  0  0  0  0  0  0  0  0
    0.6550    0.6514   -3.2607 H   0  0  0  0  0  0  0  0  0  0  0  0
    0.8129   -2.3494   -2.5963 H   0  0  0  0  0  0  0  0  0  0  0  0
   -0.6690   -1.3857   -2.6142 H   0  0  0  0  0  0  0  0  0  0  0  0
    0.2259   -1.6670   -4.1194 H   0  0  0  0  0  0  0  0  0  0  0  0
    0.2019    0.5893   -0.7269 N   0  0  0  0  0  0  0  0  0  0  0  0
    0.1242    0.9059    0.6756 C   0  0  2  0  0  0  0  0  0  0  0  0
    1.0251   -0.0823    1.4097 C   0  0  0  0  0  0  0  0  0  0  0  0
    0.7878   -0.4880    2.5456 O   0  0  0  0  0  0  0  0  0  0  0  0
   -1.3100    0.8159    1.2125 C   0  0  0  0  0  0  0  0  0  0  0  0
   -2.2846    1.8613    0.6327 C   0  0  0  0  0  0  0  0  0  0  0  0
   -3.7045    1.5744    1.1291 C   0  0  0  0  0  0  0  0  0  0  0  0
   -2.2691    1.8875   -0.8963 C   0  0  0  0  0  0  0  0  0  0  0  0
   -0.5975    0.8179   -1.3140 H   0  0  0  0  0  0  0  0  0  0  0  0
    0.5335    1.9137    0.7988 H   0  0  0  0  0  0  0  0  0  0  0  0
   -1.2867    0.9255    2.3058 H   0  0  0  0  0  0  0  0  0  0  0  0
   -1.7076   -0.1898    1.0217 H   0  0  0  0  0  0  0  0  0  0  0  0
   -2.0026    2.8569    0.9964 H   0  0  0  0  0  0  0  0  0  0  0  0
   -4.0419    0.5876    0.7946 H   0  0  0  0  0  0  0  0  0  0  0  0
   -4.4100    2.3162    0.7402 H   0  0  0  0  0  0  0  0  0  0  0  0
   -3.7561    1.5975    2.2230 H   0  0  0  0  0  0  0  0  0  0  0  0
   -2.5449    0.9128   -1.3129 H   0  0  0  0  0  0  0  0  0  0  0  0
   -2.9773    2.6305   -1.2789 H   0  0  0  0  0  0  0  0  0  0  0  0
   -1.2809    2.1565   -1.2807 H   0  0  0  0  0  0  0  0  0  0  0  0
    2.0942   -0.4936    0.6258 N   0  0  0  0  0  0  0  0  0  0  0  0
    3.0837   -1.4475    1.0724 C   0  0  2  0  0  0  0  0  0  0  0  0
    2.3669   -2.5322    1.8655 C   0  0  0  0  0  0  0  0  0  0  0  0
    1.2715   -2.3618    2.3967 O   0  0  0  0  0  0  0  0  0  0  0  0
    4.1574   -0.7774    1.9155 C   0  0  0  0  0  0  0  0  0  0  0  0
    2.1933   -0.1215   -0.3141 H   0  0  0  0  0  0  0  0  0  0  0  0
    3.5289   -1.8861    0.1727 H   0  0  0  0  0  0  0  0  0  0  0  0
    3.7302   -0.3322    2.8215 H   0  0  0  0  0  0  0  0  0  0  0  0
    4.9216   -1.4961    2.2292 H   0  0  0  0  0  0  0  0  0  0  0  0
    4.6516    0.0223    1.3534 H   0  0  0  0  0  0  0  0  0  0  0  0
    3.1138   -3.6991    1.9469 N   0  0  0  0  0  0  0  0  0  0  0  0
    2.6555   -4.8702    2.6571 C   0  0  0  0  0  0  0  0  0  0  0  0
    4.0033   -3.7580    1.4599 H   0  0  0  0  0  0  0  0  0  0  0  0
    3.0282   -4.8415    3.6917 H   0  0  0  0  0  0  0  0  0  0  0  0
    1.5557   -4.8877    2.6641 H   0  0  0  0  0  0  0  0  0  0  0  0
    3.0334   -5.7738    2.1564 H   0  0  0  0  0  0  0  0  0  0  0  0
  1  3  1  0  0  0  0
  1  7  1  0  0  0  0
  1  2  2  0  0  0  0
 37 38  1  0  0  0  0
 38 46  1  0  0  0  0
 38 39  2  0  0  0  0
  8  9  1  0  0  0  0
  9 17  1  0  0  0  0
  9 10  2  0  0  0  0
 18 19  1  0  0  0  0
 19 36  1  0  0  0  0
 19 20  2  0  0  0  0
 37 40  1  0  0  0  0
  8 11  1  0  0  0  0
 22 23  1  0  0  0  0
 22 24  1  0  0  0  0
 46 47  1  0  0  0  0
 18 21  1  0  0  0  0
 21 22  1  0  0  0  0
 36 37  1  0  0  0  0
  7  8  1  0  0  0  0
 17 18  1  0  0  0  0
  3  4  1  0  0  0  0
  3  5  1  0  0  0  0
  3  6  1  0  0  0  0
 40 43  1  0  0  0  0
 40 44  1  0  0  0  0
 40 45  1  0  0  0  0
 11 14  1  0  0  0  0
 11 15  1  0  0  0  0
 11 16  1  0  0  0  0
 23 30  1  0  0  0  0
 23 31  1  0  0  0  0
 23 32  1  0  0  0  0
 24 33  1  0  0  0  0
 24 34  1  0  0  0  0
 24 35  1  0  0  0  0
 47 49  1  0  0  0  0
 47 50  1  0  0  0  0
 47 51  1  0  0  0  0
 21 27  1  0  0  0  0
 21 28  1  0  0  0  0
 37 42  1  0  0  0  0
  8 13  1  0  0  0  0
 18 26  1  0  0  0  0
 22 29  1  0  0  0  0
 46 48  1  0  0  0  0
  7 12  1  0  0  0  0
 36 41  1  0  0  0  0
 17 25  1  0  0  0  0
M  END
$$$$

  -OEChem-05262214473D

 51 50  0     1  0  0  0  0  0999 V2000
    3.4018   -1.2440   -3.0186 C   0  0  0  0  0  0  0  0  0  0  0  0
    3.2697   -2.0909   -2.1427 O   0  0  0  0  0  0  0  0  0  0  0  0
    4.6845   -1.1645   -3.7779 C   0  0  0  0  0  0  0  0  0  0  0  0
    5.4123   -0.4862   -3.3041 H   0  0  0  0  0  0  0  0  0  0  0  0
    5.1949   -2.1387   -3.8443 H   0  0  0  0  0  0  0  0  0  0  0  0
    4.5953   -0.8128   -4.8182 H   0  0  0  0  0  0  0  0  0  0  0  0
    2.4540   -0.3103   -3.4040 N   0  0  0  0  0  0  0  0  0  0  0  0
    1.1494   -0.2128   -2.8039 C   0  0  2  0  0  0  0  0  0  0  0  0
    1.3350    0.0367   -1.3130 C   0  0  0  0  0  0  0  0  0  0  0  0
    2.3625   -0.2586   -0.7063 O   0  0  0  0  0  0  0  0  0  0  0  0
    0.3331   -1.4728   -3.0467 C   0  0  0  0  0  0  0  0  0  0  0  0
    2.6924    0.3404   -4.1502 H   0  0  0  0  0  0  0  0  0  0  0  0
    0.6550    0.6514   -3.2607 H   0  0  0  0  0  0  0  0  0  0  0  0
    0.8129   -2.3494   -2.5963 H   0  0  0  0  0  0  0  0  0  0  0  0
   -0.6690   -1.3857   -2.6142 H   0  0  0  0  0  0  0  0  0  0  0  0
    0.2259   -1.6670   -4.1194 H   0  0  0  0  0  0  0  0  0  0  0  0
    0.2019    0.5893   -0.7269 N   0  0  0  0  0  0  0  0  0  0  0  0
    0.1242    0.9059    0.6756 C   0  0  2  0  0  0  0  0  0  0  0  0
    1.0251   -0.0823    1.4097 C   0  0  0  0  0  0  0  0  0  0  0  0
    0.6694   -0.6921    2.4161 O   0  0  0  0  0  0  0  0  0  0  0  0
   -1.3100    0.8159    1.2125 C   0  0  0  0  0  0  0  0  0  0  0  0
   -2.2846    1.8613    0.6327 C   0  0  0  0  0  0  0  0  0  0  0  0
   -3.7045    1.5744    1.1291 C   0  0  0  0  0  0  0  0  0  0  0  0
   -2.2691    1.8875   -0.8963 C   0  0  0  0  0  0  0  0  0  0  0  0
   -0.5975    0.8179   -1.3140 H   0  0  0  0  0  0  0  0  0  0  0  0
    0.5335    1.9137    0.7988 H   0  0  0  0  0  0  0  0  0  0  0  0
   -1.2867    0.9255    2.3058 H   0  0  0  0  0  0  0  0  0  0  0  0
   -1.7076   -0.1898    1.0217 H   0  0  0  0  0  0  0  0  0  0  0  0
   -2.0026    2.8569    0.9964 H   0  0  0  0  0  0  0  0  0  0  0  0
   -4.0419    0.5876    0.7946 H   0  0  0  0  0  0  0  0  0  0  0  0
   -4.4100    2.3162    0.7402 H   0  0  0  0  0  0  0  0  0  0  0  0
   -3.7561    1.5975    2.2230 H   0  0  0  0  0  0  0  0  0  0  0  0
   -2.5449    0.9128   -1.3129 H   0  0  0  0  0  0  0  0  0  0  0  0
   -2.9773    2.6305   -1.2789 H   0  0  0  0  0  0  0  0  0  0  0  0
   -1.2809    2.1565   -1.2807 H   0  0  0  0  0  0  0  0  0  0  0  0
    2.2509   -0.2381    0.7774 N   0  0  0  0  0  0  0  0  0  0  0  0
    3.2791   -1.1359    1.2521 C   0  0  2  0  0  0  0  0  0  0  0  0
    2.6021   -2.4087    1.7431 C   0  0  0  0  0  0  0  0  0  0  0  0
    1.4237   -2.4506    2.0903 O   0  0  0  0  0  0  0  0  0  0  0  0
    4.1036   -0.4971    2.3589 C   0  0  0  0  0  0  0  0  0  0  0  0
    2.4451    0.2913   -0.0674 H   0  0  0  0  0  0  0  0  0  0  0  0
    3.9170   -1.3690    0.3926 H   0  0  0  0  0  0  0  0  0  0  0  0
    3.4815   -0.2564    3.2287 H   0  0  0  0  0  0  0  0  0  0  0  0
    4.9002   -1.1676    2.6977 H   0  0  0  0  0  0  0  0  0  0  0  0
    4.5656    0.4339    2.0130 H   0  0  0  0  0  0  0  0  0  0  0  0
    3.4802   -3.4825    1.7888 N   0  0  0  0  0  0  0  0  0  0  0  0
    3.0810   -4.7977    2.2326 C   0  0  0  0  0  0  0  0  0  0  0  0
    4.4349   -3.3615    1.4639 H   0  0  0  0  0  0  0  0  0  0  0  0
    3.2780   -4.8971    3.3103 H   0  0  0  0  0  0  0  0  0  0  0  0
    2.0069   -4.9386    2.0418 H   0  0  0  0  0  0  0  0  0  0  0  0
    3.6539   -5.5594    1.6835 H   0  0  0  0  0  0  0  0  0  0  0  0
  1  3  1  0  0  0  0
  1  7  1  0  0  0  0
  1  2  2  0  0  0  0
 37 38  1  0  0  0  0
 38 46  1  0  0  0  0
 38 39  2  0  0  0  0
  8  9  1  0  0  0  0
  9 17  1  0  0  0  0
  9 10  2  0  0  0  0
 18 19  1  0  0  0  0
 19 36  1  0  0  0  0
 19 20  2  0  0  0  0
 37 40  1  0  0  0  0
  8 11  1  0  0  0  0
 22 23  1  0  0  0  0
 22 24  1  0  0  0  0
 46 47  1  0  0  0  0
 18 21  1  0  0  0  0
 21 22  1  0  0  0  0
 36 37  1  0  0  0  0
  7  8  1  0  0  0  0
 17 18  1  0  0  0  0
  3  4  1  0  0  0  0
  3  5  1  0  0  0  0
  3  6  1  0  0  0  0
 40 43  1  0  0  0  0
 40 44  1  0  0  0  0
 40 45  1  0  0  0  0
 11 14  1  0  0  0  0
 11 15  1  0  0  0  0
 11 16  1  0  0  0  0
 23 30  1  0  0  0  0
 23 31  1  0  0  0  0
 23 32  1  0  0  0  0
 24 33  1  0  0  0  0
 24 34  1  0  0  0  0
 24 35  1  0  0  0  0
 47 49  1  0  0  0  0
 47 50  1  0  0  0  0
 47 51  1  0  0  0  0
 21 27  1  0  0  0  0
 21 28  1  0  0  0  0
 37 42  1  0  0  0  0
  8 13  1  0  0  0  0
 18 26  1  0  0  0  0
 22 29  1  0  0  0  0
 46 48  1  0  0  0  0
  7 12  1  0  0  0  0
 36 41  1  0  0  0  0
 17 25  1  0  0  0  0
M  END
$$$$

  -OEChem-05262214473D

 51 50  0     1  0  0  0  0  0999 V2000
    3.4018   -1.2440   -3.0186 C   0  0  0  0  0  0  0  0  0  0  0  0
    3.2697   -2.0909   -2.1427 O   0  0  0  0  0  0  0  0  0  0  0  0
    4.6845   -1.1645   -3.7779 C   0  0  0  0  0  0  0  0  0  0  0  0
    5.4123   -0.4862   -3.3041 H   0  0  0  0  0  0  0  0  0  0  0  0
    5.1949   -2.1387   -3.8443 H   0  0  0  0  0  0  0  0  0  0  0  0
    4.5953   -0.8128   -4.8182 H   0  0  0  0  0  0  0  0  0  0  0  0
    2.4540   -0.3103   -3.4040 N   0  0  0  0  0  0  0  0  0  0  0  0
    1.1494   -0.2128   -2.8039 C   0  0  2  0  0  0  0  0  0  0  0  0
    1.3350    0.0367   -1.3130 C   0  0  0  0  0  0  0  0  0  0  0  0
    2.3625   -0.2586   -0.7063 O   0  0  0  0  0  0  0  0  0  0  0  0
    0.3331   -1.4728   -3.0467 C   0  0  0  0  0  0  0  0  0  0  0  0
    2.6924    0.3404   -4.1502 H   0  0  0  0  0  0  0  0  0  0  0  0
    0.6550    0.6514   -3.2607 H   0  0  0  0  0  0  0  0  0  0  0  0
    0.8129   -2.3494   -2.5963 H   0  0  0  0  0  0  0  0  0  0  0  0
   -0.6690   -1.3857   -2.6142 H   0  0  0  0  0  0  0  0  0  0  0  0
    0.2259   -1.6670   -4.1194 H   0  0  0  0  0  0  0  0  0  0  0  0
    0.2019    0.5893   -0.7269 N   0  0  0  0  0  0  0  0  0  0  0  0
    0.1242    0.9059    0.6756 C   0  0  2  0  0  0  0  0  0  0  0  0
    1.0251   -0.0823    1.4097 C   0  0  0  0  0  0  0  0  0  0  0  0
    0.6022   -0.8842    2.2399 O   0  0  0  0  0  0  0  0  0  0  0  0
   -1.3100    0.8159    1.2125 C   0  0  0  0  0  0  0  0  0  0  0  0
   -2.2846    1.8613    0.6327 C   0  0  0  0  0  0  0  0  0  0  0  0
   -3.7045    1.5744    1.1291 C   0  0  0  0  0  0  0  0  0  0  0  0
   -2.2691    1.8875   -0.8963 C   0  0  0  0  0  0  0  0  0  0  0  0
   -0.5975    0.8179   -1.3140 H   0  0  0  0  0  0  0  0  0  0  0  0
    0.5335    1.9137    0.7988 H   0  0  0  0  0  0  0  0  0  0  0  0
   -1.2867    0.9255    2.3058 H   0  0  0  0  0  0  0  0  0  0  0  0
   -1.7076   -0.1898    1.0217 H   0  0  0  0  0  0  0  0  0  0  0  0
   -2.0026    2.8569    0.9964 H   0  0  0  0  0  0  0  0  0  0  0  0
   -4.0419    0.5876    0.7946 H   0  0  0  0  0  0  0  0  0  0  0  0
   -4.4100    2.3162    0.7402 H   0  0  0  0  0  0  0  0  0  0  0  0
   -3.7561    1.5975    2.2230 H   0  0  0  0  0  0  0  0  0  0  0  0
   -2.5449    0.9128   -1.3129 H   0  0  0  0  0  0  0  0  0  0  0  0
   -2.9773    2.6305   -1.2789 H   0  0  0  0  0  0  0  0  0  0  0  0
   -1.2809    2.1565   -1.2807 H   0  0  0  0  0  0  0  0  0  0  0  0
    2.3450    0.0050    0.9892 N   0  0  0  0  0  0  0  0  0  0  0  0
    3.3989   -0.8379    1.5062 C   0  0  2  0  0  0  0  0  0  0  0  0
    2.8345   -2.2414    1.6832 C   0  0  0  0  0  0  0  0  0  0  0  0
    1.6331   -2.4706    1.8064 O   0  0  0  0  0  0  0  0  0  0  0  0
    3.9424   -0.3008    2.8210 C   0  0  0  0  0  0  0  0  0  0  0  0
    2.5955    0.6837    0.2763 H   0  0  0  0  0  0  0  0  0  0  0  0
    4.1905   -0.8548    0.7491 H   0  0  0  0  0  0  0  0  0  0  0  0
    3.1635   -0.2764    3.5920 H   0  0  0  0  0  0  0  0  0  0  0  0
    4.7600   -0.9247    3.1969 H   0  0  0  0  0  0  0  0  0  0  0  0
    4.3207    0.7198    2.6985 H   0  0  0  0  0  0  0  0  0  0  0  0
    3.8336   -3.2035    1.7307 N   0  0  0  0  0  0  0  0  0  0  0  0
    3.5541   -4.6097    1.9050 C   0  0  0  0  0  0  0  0  0  0  0  0
    4.8019   -2.9253    1.6009 H   0  0  0  0  0  0  0  0  0  0  0  0
    3.5901   -4.8613    2.9752 H   0  0  0  0  0  0  0  0  0  0  0  0
    2.5533   -4.8364    1.5087 H   0  0  0  0  0  0  0  0  0  0  0  0
    4.3059   -5.2028    1.3635 H   0  0  0  0  0  0  0  0  0  0  0  0
  1  3  1  0  0  0  0
  1  7  1  0  0  0  0
  1  2  2  0  0  0  0
 37 38  1  0  0  0  0
 38 46  1  0  0  0  0
 38 39  2  0  0  0  0
  8  9  1  0  0  0  0
  9 17  1  0  0  0  0
  9 10  2  0  0  0  0
 18 19  1  0  0  0  0
 19 36  1  0  0  0  0
 19 20  2  0  0  0  0
 37 40  1  0  0  0  0
  8 11  1  0  0  0  0
 22 23  1  0  0  0  0
 22 24  1  0  0  0  0
 46 47  1  0  0  0  0
 18 21  1  0  0  0  0
 21 22  1  0  0  0  0
 36 37  1  0  0  0  0
  7  8  1  0  0  0  0
 17 18  1  0  0  0  0
  3  4  1  0  0  0  0
  3  5  1  0  0  0  0
  3  6  1  0  0  0  0
 40 43  1  0  0  0  0
 40 44  1  0  0  0  0
 40 45  1  0  0  0  0
 11 14  1  0  0  0  0
 11 15  1  0  0  0  0
 11 16  1  0  0  0  0
 23 30  1  0  0  0  0
 23 31  1  0  0  0  0
 23 32  1  0  0  0  0
 24 33  1  0  0  0  0
 24 34  1  0  0  0  0
 24 35  1  0  0  0  0
 47 49  1  0  0  0  0
 47 50  1  0  0  0  0
 47 51  1  0  0  0  0
 21 27  1  0  0  0  0
 21 28  1  0  0  0  0
 37 42  1  0  0  0  0
  8 13  1  0  0  0  0
 18 26  1  0  0  0  0
 22 29  1  0  0  0  0
 46 48  1  0  0  0  0
  7 12  1  0  0  0  0
 36 41  1  0  0  0  0
 17 25  1  0  0  0  0
M  END
$$$$

  -OEChem-05262214473D

 51 50  0     1  0  0  0  0  0999 V2000
    3.4018   -1.2440   -3.0186 C   0  0  0  0  0  0  0  0  0  0  0  0
    3.2697   -2.0909   -2.1427 O   0  0  0  0  0  0  0  0  0  0  0  0
    4.6845   -1.1645   -3.7779 C   0  0  0  0  0  0  0  0  0  0  0  0
    5.4123   -0.4862   -3.3041 H   0  0  0  0  0  0  0  0  0  0  0  0
    5.1949   -2.1387   -3.8443 H   0  0  0  0  0  0  0  0  0  0  0  0
    4.5953   -0.8128   -4.8182 H   0  0  0  0  0  0  0  0  0  0  0  0
    2.4540   -0.3103   -3.4040 N   0  0  0  0  0  0  0  0  0  0  0  0
    1.1494   -0.2128   -2.8039 C   0  0  2  0  0  0  0  0  0  0  0  0
    1.3350    0.0367   -1.3130 C   0  0  0  0  0  0  0  0  0  0  0  0
    2.3625   -0.2586   -0.7063 O   0  0  0  0  0  0  0  0  0  0  0  0
    0.3331   -1.4728   -3.0467 C   0  0  0  0  0  0  0  0  0  0  0  0
    2.6924    0.3404   -4.1502 H   0  0  0  0  0  0  0  0  0  0  0  0
    0.6550    0.6514   -3.2607 H   0  0  0  0  0  0  0  0  0  0  0  0
    0.8129   -2.3494   -2.5963 H   0  0  0  0  0  0  0  0  0  0  0  0
   -0.6690   -1.3857   -2.6142 H   0  0  0  0  0  0  0  0  0  0  0  0
    0.2259   -1.6670   -4.1194 H   0  0  0  0  0  0  0  0  0  0  0  0
    0.2019    0.5893   -0.7269 N   0  0  0  0  0  0  0  0  0  0  0  0
    0.1242    0.9059    0.6756 C   0  0  2  0  0  0  0  0  0  0  0  0
    1.0251   -0.0823    1.4097 C   0  0  0  0  0  0  0  0  0  0  0  0
    0.5907   -1.0513    2.0291 O   0  0  0  0  0  0  0  0  0  0  0  0
   -1.3100    0.8159    1.2125 C   0  0  0  0  0  0  0  0  0  0  0  0
   -2.2846    1.8613    0.6327 C   0  0  0  0  0  0  0  0  0  0  0  0
   -3.7045    1.5744    1.1291 C   0  0  0  0  0  0  0  0  0  0  0  0
   -2.2691    1.8875   -0.8963 C   0  0  0  0  0  0  0  0  0  0  0  0
   -0.5975    0.8179   -1.3140 H   0  0  0  0  0  0  0  0  0  0  0  0
    0.5335    1.9137    0.7988 H   0  0  0  0  0  0  0  0  0  0  0  0
   -1.2867    0.9255    2.3058 H   0  0  0  0  0  0  0  0  0  0  0  0
   -1.7076   -0.1898    1.0217 H   0  0  0  0  0  0  0  0  0  0  0  0
   -2.0026    2.8569    0.9964 H   0  0  0  0  0  0  0  0  0  0  0  0
   -4.0419    0.5876    0.7946 H   0  0  0  0  0  0  0  0  0  0  0  0
   -4.4100    2.3162    0.7402 H   0  0  0  0  0  0  0  0  0  0  0  0
   -3.7561    1.5975    2.2230 H   0  0  0  0  0  0  0  0  0  0  0  0
   -2.5449    0.9128   -1.3129 H   0  0  0  0  0  0  0  0  0  0  0  0
   -2.9773    2.6305   -1.2789 H   0  0  0  0  0  0  0  0  0  0  0  0
   -1.2809    2.1565   -1.2807 H   0  0  0  0  0  0  0  0  0  0  0  0
    2.3701    0.2192    1.2467 N   0  0  0  0  0  0  0  0  0  0  0  0
    3.4350   -0.5741    1.8172 C   0  0  2  0  0  0  0  0  0  0  0  0
    3.0482   -2.0416    1.6898 C   0  0  0  0  0  0  0  0  0  0  0  0
    1.8856   -2.4204    1.5641 O   0  0  0  0  0  0  0  0  0  0  0  0
    3.6847   -0.2019    3.2704 C   0  0  0  0  0  0  0  0  0  0  0  0
    2.6343    1.0290    0.6934 H   0  0  0  0  0  0  0  0  0  0  0  0
    4.3309   -0.3786    1.2179 H   0  0  0  0  0  0  0  0  0  0  0  0
    2.7980   -0.3909    3.8865 H   0  0  0  0  0  0  0  0  0  0  0  0
    4.5107   -0.7837    3.6927 H   0  0  0  0  0  0  0  0  0  0  0  0
    3.9336    0.8608    3.3633 H   0  0  0  0  0  0  0  0  0  0  0  0
    4.1500   -2.8811    1.7764 N   0  0  0  0  0  0  0  0  0  0  0  0
    4.0426   -4.3192    1.6966 C   0  0  0  0  0  0  0  0  0  0  0  0
    5.0790   -2.4792    1.8613 H   0  0  0  0  0  0  0  0  0  0  0  0
    3.9434   -4.7367    2.7094 H   0  0  0  0  0  0  0  0  0  0  0  0
    3.1578   -4.5882    1.1010 H   0  0  0  0  0  0  0  0  0  0  0  0
    4.9448   -4.7281    1.2183 H   0  0  0  0  0  0  0  0  0  0  0  0
  1  3  1  0  0  0  0
  1  7  1  0  0  0  0
  1  2  2  0  0  0  0
 37 38  1  0  0  0  0
 38 46  1  0  0  0  0
 38 39  2  0  0  0  0
  8  9  1  0  0  0  0
  9 17  1  0  0  0  0
  9 10  2  0  0  0  0
 18 19  1  0  0  0  0
 19 36  1  0  0  0  0
 19 20  2  0  0  0  0
 37 40  1  0  0  0  0
  8 11  1  0  0  0  0
 22 23  1  0  0  0  0
 22 24  1  0  0  0  0
 46 47  1  0  0  0  0
 18 21  1  0  0  0  0
 21 22  1  0  0  0  0
 36 37  1  0  0  0  0
  7  8  1  0  0  0  0
 17 18  1  0  0  0  0
  3  4  1  0  0  0  0
  3  5  1  0  0  0  0
  3  6  1  0  0  0  0
 40 43  1  0  0  0  0
 40 44  1  0  0  0  0
 40 45  1  0  0  0  0
 11 14  1  0  0  0  0
 11 15  1  0  0  0  0
 11 16  1  0  0  0  0
 23 30  1  0  0  0  0
 23 31  1  0  0  0  0
 23 32  1  0  0  0  0
 24 33  1  0  0  0  0
 24 34  1  0  0  0  0
 24 35  1  0  0  0  0
 47 49  1  0  0  0  0
 47 50  1  0  0  0  0
 47 51  1  0  0  0  0
 21 27  1  0  0  0  0
 21 28  1  0  0  0  0
 37 42  1  0  0  0  0
  8 13  1  0  0  0  0
 18 26  1  0  0  0  0
 22 29  1  0  0  0  0
 46 48  1  0  0  0  0
  7 12  1  0  0  0  0
 36 41  1  0  0  0  0
 17 25  1  0  0  0  0
M  END
$$$$

  -OEChem-05262214473D

 51 50  0     1  0  0  0  0  0999 V2000
    3.4018   -1.2440   -3.0186 C   0  0  0  0  0  0  0  0  0  0  0  0
    3.2697   -2.0909   -2.1427 O   0  0  0  0  0  0  0  0  0  0  0  0
    4.6845   -1.1645   -3.7779 C   0  0  0  0  0  0  0  0  0  0  0  0
    5.4123   -0.4862   -3.3041 H   0  0  0  0  0  0  0  0  0  0  0  0
    5.1949   -2.1387   -3.8443 H   0  0  0  0  0  0  0  0  0  0  0  0
    4.5953   -0.8128   -4.8182 H   0  0  0  0  0  0  0  0  0  0  0  0
    2.4540   -0.3103   -3.4040 N   0  0  0  0  0  0  0  0  0  0  0  0
    1.1494   -0.2128   -2.8039 C   0  0  2  0  0  0  0  0  0  0  0  0
    1.3350    0.0367   -1.3130 C   0  0  0  0  0  0  0  0  0  0  0  0
    2.3625   -0.2586   -0.7063 O   0  0  0  0  0  0  0  0  0  0  0  0
    0.3331   -1.4728   -3.0467 C   0  0  0  0  0  0  0  0  0  0  0  0
    2.6924    0.3404   -4.1502 H   0  0  0  0  0  0  0  0  0  0  0  0
    0.6550    0.6514   -3.2607 H   0  0  0  0  0  0  0  0  0  0  0  0
    0.8129   -2.3494   -2.5963 H   0  0  0  0  0  0  0  0  0  0  0  0
   -0.6690   -1.3857   -2.6142 H   0  0  0  0  0  0  0  0  0  0  0  0
    0.2259   -1.6670   -4.1194 H   0  0  0  0  0  0  0  0  0  0  0  0
    0.2019    0.5893   -0.7269 N   0  0  0  0  0  0  0  0  0  0  0  0
    0.1242    0.9059    0.6756 C   0  0  2  0  0  0  0  0  0  0  0  0
    1.0251   -0.0823    1.4097 C   0  0  0  0  0  0  0  0  0  0  0  0
    0.6358   -1.1818    1.7980 O   0  0  0  0  0  0  0  0  0  0  0  0
   -1.3100    0.8159    1.2125 C   0  0  0  0  0  0  0  0  0  0  0  0
   -2.2846    1.8613    0.6327 C   0  0  0  0  0  0  0  0  0  0  0  0
   -3.7045    1.5744    1.1291 C   0  0  0  0  0  0  0  0  0  0  0  0
   -2.2691    1.8875   -0.8963 C   0  0  0  0  0  0  0  0  0  0  0  0
   -0.5975    0.8179   -1.3140 H   0  0  0  0  0  0  0  0  0  0  0  0
    0.5335    1.9137    0.7988 H   0  0  0  0  0  0  0  0  0  0  0  0
   -1.2867    0.9255    2.3058 H   0  0  0  0  0  0  0  0  0  0  0  0
   -1.7076   -0.1898    1.0217 H   0  0  0  0  0  0  0  0  0  0  0  0
   -2.0026    2.8569    0.9964 H   0  0  0  0  0  0  0  0  0  0  0  0
   -4.0419    0.5876    0.7946 H   0  0  0  0  0  0  0  0  0  0  0  0
   -4.4100    2.3162    0.7402 H   0  0  0  0  0  0  0  0  0  0  0  0
   -3.7561    1.5975    2.2230 H   0  0  0  0  0  0  0  0  0  0  0  0
   -2.5449    0.9128   -1.3129 H   0  0  0  0  0  0  0  0  0  0  0  0
   -2.9773    2.6305   -1.2789 H   0  0  0  0  0  0  0  0  0  0  0  0
   -1.2809    2.1565   -1.2807 H   0  0  0  0  0  0  0  0  0  0  0  0
    2.3245    0.3899    1.5324 N   0  0  0  0  0  0  0  0  0  0  0  0
    3.3848   -0.3622    2.1639 C   0  0  2  0  0  0  0  0  0  0  0  0
    3.2286   -1.8231    1.7626 C   0  0  0  0  0  0  0  0  0  0  0  0
    2.1637   -2.3035    1.3801 O   0  0  0  0  0  0  0  0  0  0  0  0
    3.3482   -0.2071    3.6763 C   0  0  0  0  0  0  0  0  0  0  0  0
    2.5589    1.3035    1.1556 H   0  0  0  0  0  0  0  0  0  0  0  0
    4.3286    0.0273    1.7670 H   0  0  0  0  0  0  0  0  0  0  0  0
    2.4098   -0.5920    4.0921 H   0  0  0  0  0  0  0  0  0  0  0  0
    4.1691   -0.7544    4.1513 H   0  0  0  0  0  0  0  0  0  0  0  0
    3.4307    0.8471    3.9621 H   0  0  0  0  0  0  0  0  0  0  0  0
    4.4078   -2.5372    1.9229 N   0  0  0  0  0  0  0  0  0  0  0  0
    4.5132   -3.9458    1.6216 C   0  0  0  0  0  0  0  0  0  0  0  0
    5.2474   -2.0536    2.2275 H   0  0  0  0  0  0  0  0  0  0  0  0
    4.3137   -4.5318    2.5310 H   0  0  0  0  0  0  0  0  0  0  0  0
    3.7792   -4.2108    0.8464 H   0  0  0  0  0  0  0  0  0  0  0  0
    5.5273   -4.1679    1.2577 H   0  0  0  0  0  0  0  0  0  0  0  0
  1  3  1  0  0  0  0
  1  7  1  0  0  0  0
  1  2  2  0  0  0  0
 37 38  1  0  0  0  0
 38 46  1  0  0  0  0
 38 39  2  0  0  0  0
  8  9  1  0  0  0  0
  9 17  1  0  0  0  0
  9 10  2  0  0  0  0
 18 19  1  0  0  0  0
 19 36  1  0  0  0  0
 19 20  2  0  0  0  0
 37 40  1  0  0  0  0
  8 11  1  0  0  0  0
 22 23  1  0  0  0  0
 22 24  1  0  0  0  0
 46 47  1  0  0  0  0
 18 21  1  0  0  0  0
 21 22  1  0  0  0  0
 36 37  1  0  0  0  0
  7  8  1  0  0  0  0
 17 18  1  0  0  0  0
  3  4  1  0  0  0  0
  3  5  1  0  0  0  0
  3  6  1  0  0  0  0
 40 43  1  0  0  0  0
 40 44  1  0  0  0  0
 40 45  1  0  0  0  0
 11 14  1  0  0  0  0
 11 15  1  0  0  0  0
 11 16  1  0  0  0  0
 23 30  1  0  0  0  0
 23 31  1  0  0  0  0
 23 32  1  0  0  0  0
 24 33  1  0  0  0  0
 24 34  1  0  0  0  0
 24 35  1  0  0  0  0
 47 49  1  0  0  0  0
 47 50  1  0  0  0  0
 47 51  1  0  0  0  0
 21 27  1  0  0  0  0
 21 28  1  0  0  0  0
 37 42  1  0  0  0  0
  8 13  1  0  0  0  0
 18 26  1  0  0  0  0
 22 29  1  0  0  0  0
 46 48  1  0  0  0  0
  7 12  1  0  0  0  0
 36 41  1  0  0  0  0
 17 25  1  0  0  0  0
M  END
$$$$

  -OEChem-05262214473D

 51 50  0     1  0  0  0  0  0999 V2000
    3.4018   -1.2440   -3.0186 C   0  0  0  0  0  0  0  0  0  0  0  0
    3.2697   -2.0909   -2.1427 O   0  0  0  0  0  0  0  0  0  0  0  0
    4.6845   -1.1645   -3.7779 C   0  0  0  0  0  0  0  0  0  0  0  0
    5.4123   -0.4862   -3.3041 H   0  0  0  0  0  0  0  0  0  0  0  0
    5.1949   -2.1387   -3.8443 H   0  0  0  0  0  0  0  0  0  0  0  0
    4.5953   -0.8128   -4.8182 H   0  0  0  0  0  0  0  0  0  0  0  0
    2.4540   -0.3103   -3.4040 N   0  0  0  0  0  0  0  0  0  0  0  0
    1.1494   -0.2128   -2.8039 C   0  0  2  0  0  0  0  0  0  0  0  0
    1.3350    0.0367   -1.3130 C   0  0  0  0  0  0  0  0  0  0  0  0
    2.3625   -0.2586   -0.7063 O   0  0  0  0  0  0  0  0  0  0  0  0
    0.3331   -1.4728   -3.0467 C   0  0  0  0  0  0  0  0  0  0  0  0
    2.6924    0.3404   -4.1502 H   0  0  0  0  0  0  0  0  0  0  0  0
    0.6550    0.6514   -3.2607 H   0  0  0  0  0  0  0  0  0  0  0  0
    0.8129   -2.3494   -2.5963 H   0  0  0  0  0  0  0  0  0  0  0  0
   -0.6690   -1.3857   -2.6142 H   0  0  0  0  0  0  0  0  0  0  0  0
    0.2259   -1.6670   -4.1194 H   0  0  0  0  0  0  0  0  0  0  0  0
    0.2019    0.5893   -0.7269 N   0  0  0  0  0  0  0  0  0  0  0  0
    0.1242    0.9059    0.6756 C   0  0  2  0  0  0  0  0  0  0  0  0
    1.0251   -0.0823    1.4097 C   0  0  0  0  0  0  0  0  0  0  0  0
    0.7344   -1.2670    1.5625 O   0  0  0  0  0  0  0  0  0  0  0  0
   -1.3100    0.8159    1.2125 C   0  0  0  0  0  0  0  0  0  0  0  0
   -2.2846    1.8613    0.6327 C   0  0  0  0  0  0  0  0  0  0  0  0
   -3.7045    1.5744    1.1291 C   0  0  0  0  0  0  0  0  0  0  0  0
   -2.2691    1.8875   -0.8963 C   0  0  0  0  0  0  0  0  0  0  0  0
   -0.5975    0.8179   -1.3140 H   0  0  0  0  0  0  0  0  0  0  0  0
    0.5335    1.9137    0.7988 H   0  0  0  0  0  0  0  0  0  0  0  0
   -1.2867    0.9255    2.3058 H   0  0  0  0  0  0  0  0  0  0  0  0
   -1.7076   -0.1898    1.0217 H   0  0  0  0  0  0  0  0  0  0  0  0
   -2.0026    2.8569    0.9964 H   0  0  0  0  0  0  0  0  0  0  0  0
   -4.0419    0.5876    0.7946 H   0  0  0  0  0  0  0  0  0  0  0  0
   -4.4100    2.3162    0.7402 H   0  0  0  0  0  0  0  0  0  0  0  0
   -3.7561    1.5975    2.2230 H   0  0  0  0  0  0  0  0  0  0  0  0
   -2.5449    0.9128   -1.3129 H   0  0  0  0  0  0  0  0  0  0  0  0
   -2.9773    2.6305   -1.2789 H   0  0  0  0  0  0  0  0  0  0  0  0
   -1.2809    2.1565   -1.2807 H   0  0  0  0  0  0  0  0  0  0  0  0
    2.2113    0.5054    1.8268 N   0  0  0  0  0  0  0  0  0  0  0  0
    3.2518   -0.2169    2.5229 C   0  0  2  0  0  0  0  0  0  0  0  0
    3.3634   -1.6006    1.8966 C   0  0  0  0  0  0  0  0  0  0  0  0
    2.4487   -2.1278    1.2669 O   0  0  0  0  0  0  0  0  0  0  0  0
    2.9557   -0.3162    4.0112 C   0  0  0  0  0  0  0  0  0  0  0  0
    2.3743    1.4887    1.6314 H   0  0  0  0  0  0  0  0  0  0  0  0
    4.1837    0.3351    2.3591 H   0  0  0  0  0  0  0  0  0  0  0  0
    2.0254   -0.8660    4.1950 H   0  0  0  0  0  0  0  0  0  0  0  0
    3.7587   -0.8387    4.5415 H   0  0  0  0  0  0  0  0  0  0  0  0
    2.8462    0.6797    4.4541 H   0  0  0  0  0  0  0  0  0  0  0  0
    4.5894   -2.1954    2.1603 N   0  0  0  0  0  0  0  0  0  0  0  0
    4.9339   -3.5151    1.6852 C   0  0  0  0  0  0  0  0  0  0  0  0
    5.2957   -1.6774    2.6746 H   0  0  0  0  0  0  0  0  0  0  0  0
    4.6757   -4.2604    2.4520 H   0  0  0  0  0  0  0  0  0  0  0  0
    4.3751   -3.7300    0.7624 H   0  0  0  0  0  0  0  0  0  0  0  0
    6.0135   -3.5602    1.4790 H   0  0  0  0  0  0  0  0  0  0  0  0
  1  3  1  0  0  0  0
  1  7  1  0  0  0  0
  1  2  2  0  0  0  0
 37 38  1  0  0  0  0
 38 46  1  0  0  0  0
 38 39  2  0  0  0  0
  8  9  1  0  0  0  0
  9 17  1  0  0  0  0
  9 10  2  0  0  0  0
 18 19  1  0  0  0  0
 19 36  1  0  0  0  0
 19 20  2  0  0  0  0
 37 40  1  0  0  0  0
  8 11  1  0  0  0  0
 22 23  1  0  0  0  0
 22 24  1  0  0  0  0
 46 47  1  0  0  0  0
 18 21  1  0  0  0  0
 21 22  1  0  0  0  0
 36 37  1  0  0  0  0
  7  8  1  0  0  0  0
 17 18  1  0  0  0  0
  3  4  1  0  0  0  0
  3  5  1  0  0  0  0
  3  6  1  0  0  0  0
 40 43  1  0  0  0  0
 40 44  1  0  0  0  0
 40 45  1  0  0  0  0
 11 14  1  0  0  0  0
 11 15  1  0  0  0  0
 11 16  1  0  0  0  0
 23 30  1  0  0  0  0
 23 31  1  0  0  0  0
 23 32  1  0  0  0  0
 24 33  1  0  0  0  0
 24 34  1  0  0  0  0
 24 35  1  0  0  0  0
 47 49  1  0  0  0  0
 47 50  1  0  0  0  0
 47 51  1  0  0  0  0
 21 27  1  0  0  0  0
 21 28  1  0  0  0  0
 37 42  1  0  0  0  0
  8 13  1  0  0  0  0
 18 26  1  0  0  0  0
 22 29  1  0  0  0  0
 46 48  1  0  0  0  0
  7 12  1  0  0  0  0
 36 41  1  0  0  0  0
 17 25  1  0  0  0  0
M  END
$$$$

  -OEChem-05262214473D

 51 50  0     1  0  0  0  0  0999 V2000
    3.4018   -1.2440   -3.0186 C   0  0  0  0  0  0  0  0  0  0  0  0
    3.2697   -2.0909   -2.1427 O   0  0  0  0  0  0  0  0  0  0  0  0
    4.6845   -1.1645   -3.7779 C   0  0  0  0  0  0  0  0  0  0  0  0
    5.4123   -0.4862   -3.3041 H   0  0  0  0  0  0  0  0  0  0  0  0
    5.1949   -2.1387   -3.8443 H   0  0  0  0  0  0  0  0  0  0  0  0
    4.5953   -0.8128   -4.8182 H   0  0  0  0  0  0  0  0  0  0  0  0
    2.4540   -0.3103   -3.4040 N   0  0  0  0  0  0  0  0  0  0  0  0
    1.1494   -0.2128   -2.8039 C   0  0  2  0  0  0  0  0  0  0  0  0
    1.3350    0.0367   -1.3130 C   0  0  0  0  0  0  0  0  0  0  0  0
    2.3625   -0.2586   -0.7063 O   0  0  0  0  0  0  0  0  0  0  0  0
    0.3331   -1.4728   -3.0467 C   0  0  0  0  0  0  0  0  0  0  0  0
    2.6924    0.3404   -4.1502 H   0  0  0  0  0  0  0  0  0  0  0  0
    0.6550    0.6514   -3.2607 H   0  0  0  0  0  0  0  0  0  0  0  0
    0.8129   -2.3494   -2.5963 H   0  0  0  0  0  0  0  0  0  0  0  0
   -0.6690   -1.3857   -2.6142 H   0  0  0  0  0  0  0  0  0  0  0  0
    0.2259   -1.6670   -4.1194 H   0  0  0  0  0  0  0  0  0  0  0  0
    0.2019    0.5893   -0.7269 N   0  0  0  0  0  0  0  0  0  0  0  0
    0.1242    0.9059    0.6756 C   0  0  2  0  0  0  0  0  0  0  0  0
    1.0251   -0.0823    1.4097 C   0  0  0  0  0  0  0  0  0  0  0  0
    0.8796   -1.3009    1.3384 O   0  0  0  0  0  0  0  0  0  0  0  0
   -1.3100    0.8159    1.2125 C   0  0  0  0  0  0  0  0  0  0  0  0
   -2.2846    1.8613    0.6327 C   0  0  0  0  0  0  0  0  0  0  0  0
   -3.7045    1.5744    1.1291 C   0  0  0  0  0  0  0  0  0  0  0  0
   -2.2691    1.8875   -0.8963 C   0  0  0  0  0  0  0  0  0  0  0  0
   -0.5975    0.8179   -1.3140 H   0  0  0  0  0  0  0  0  0  0  0  0
    0.5335    1.9137    0.7988 H   0  0  0  0  0  0  0  0  0  0  0  0
   -1.2867    0.9255    2.3058 H   0  0  0  0  0  0  0  0  0  0  0  0
   -1.7076   -0.1898    1.0217 H   0  0  0  0  0  0  0  0  0  0  0  0
   -2.0026    2.8569    0.9964 H   0  0  0  0  0  0  0  0  0  0  0  0
   -4.0419    0.5876    0.7946 H   0  0  0  0  0  0  0  0  0  0  0  0
   -4.4100    2.3162    0.7402 H   0  0  0  0  0  0  0  0  0  0  0  0
   -3.7561    1.5975    2.2230 H   0  0  0  0  0  0  0  0  0  0  0  0
   -2.5449    0.9128   -1.3129 H   0  0  0  0  0  0  0  0  0  0  0  0
   -2.9773    2.6305   -1.2789 H   0  0  0  0  0  0  0  0  0  0  0  0
   -1.2809    2.1565   -1.2807 H   0  0  0  0  0  0  0  0  0  0  0  0
    2.0382    0.5578    2.1098 N   0  0  0  0  0  0  0  0  0  0  0  0
    3.0450   -0.1479    2.8695 C   0  0  2  0  0  0  0  0  0  0  0  0
    3.4435   -1.3895    2.0826 C   0  0  0  0  0  0  0  0  0  0  0  0
    2.7211   -1.9052    1.2322 O   0  0  0  0  0  0  0  0  0  0  0  0
    2.5340   -0.5215    4.2522 C   0  0  0  0  0  0  0  0  0  0  0  0
    2.0932    1.5718    2.0883 H   0  0  0  0  0  0  0  0  0  0  0  0
    3.9062    0.5238    2.9538 H   0  0  0  0  0  0  0  0  0  0  0  0
    1.6710   -1.1943    4.1880 H   0  0  0  0  0  0  0  0  0  0  0  0
    3.3073   -1.0309    4.8367 H   0  0  0  0  0  0  0  0  0  0  0  0
    2.2200    0.3700    4.8057 H   0  0  0  0  0  0  0  0  0  0  0  0
    4.6824   -1.8789    2.4722 N   0  0  0  0  0  0  0  0  0  0  0  0
    5.2759   -3.0564    1.8830 C   0  0  0  0  0  0  0  0  0  0  0  0
    5.2206   -1.3765    3.1720 H   0  0  0  0  0  0  0  0  0  0  0  0
    5.0049   -3.9411    2.4779 H   0  0  0  0  0  0  0  0  0  0  0  0
    4.9048   -3.1785    0.8547 H   0  0  0  0  0  0  0  0  0  0  0  0
    6.3703   -2.9465    1.8672 H   0  0  0  0  0  0  0  0  0  0  0  0
  1  3  1  0  0  0  0
  1  7  1  0  0  0  0
  1  2  2  0  0  0  0
 37 38  1  0  0  0  0
 38 46  1  0  0  0  0
 38 39  2  0  0  0  0
  8  9  1  0  0  0  0
  9 17  1  0  0  0  0
  9 10  2  0  0  0  0
 18 19  1  0  0  0  0
 19 36  1  0  0  0  0
 19 20  2  0  0  0  0
 37 40  1  0  0  0  0
  8 11  1  0  0  0  0
 22 23  1  0  0  0  0
 22 24  1  0  0  0  0
 46 47  1  0  0  0  0
 18 21  1  0  0  0  0
 21 22  1  0  0  0  0
 36 37  1  0  0  0  0
  7  8  1  0  0  0  0
 17 18  1  0  0  0  0
  3  4  1  0  0  0  0
  3  5  1  0  0  0  0
  3  6  1  0  0  0  0
 40 43  1  0  0  0  0
 40 44  1  0  0  0  0
 40 45  1  0  0  0  0
 11 14  1  0  0  0  0
 11 15  1  0  0  0  0
 11 16  1  0  0  0  0
 23 30  1  0  0  0  0
 23 31  1  0  0  0  0
 23 32  1  0  0  0  0
 24 33  1  0  0  0  0
 24 34  1  0  0  0  0
 24 35  1  0  0  0  0
 47 49  1  0  0  0  0
 47 50  1  0  0  0  0
 47 51  1  0  0  0  0
 21 27  1  0  0  0  0
 21 28  1  0  0  0  0
 37 42  1  0  0  0  0
  8 13  1  0  0  0  0
 18 26  1  0  0  0  0
 22 29  1  0  0  0  0
 46 48  1  0  0  0  0
  7 12  1  0  0  0  0
 36 41  1  0  0  0  0
 17 25  1  0  0  0  0
M  END
$$$$

  -OEChem-05262214473D

 51 50  0     1  0  0  0  0  0999 V2000
    3.4018   -1.2440   -3.0186 C   0  0  0  0  0  0  0  0  0  0  0  0
    3.2697   -2.0909   -2.1427 O   0  0  0  0  0  0  0  0  0  0  0  0
    4.6845   -1.1645   -3.7779 C   0  0  0  0  0  0  0  0  0  0  0  0
    5.4123   -0.4862   -3.3041 H   0  0  0  0  0  0  0  0  0  0  0  0
    5.1949   -2.1387   -3.8443 H   0  0  0  0  0  0  0  0  0  0  0  0
    4.5953   -0.8128   -4.8182 H   0  0  0  0  0  0  0  0  0  0  0  0
    2.4540   -0.3103   -3.4040 N   0  0  0  0  0  0  0  0  0  0  0  0
    1.1494   -0.2128   -2.8039 C   0  0  2  0  0  0  0  0  0  0  0  0
    1.3350    0.0367   -1.3130 C   0  0  0  0  0  0  0  0  0  0  0  0
    2.3625   -0.2586   -0.7063 O   0  0  0  0  0  0  0  0  0  0  0  0
    0.3331   -1.4728   -3.0467 C   0  0  0  0  0  0  0  0  0  0  0  0
    2.6924    0.3404   -4.1502 H   0  0  0  0  0  0  0  0  0  0  0  0
    0.6550    0.6514   -3.2607 H   0  0  0  0  0  0  0  0  0  0  0  0
    0.8129   -2.3494   -2.5963 H   0  0  0  0  0  0  0  0  0  0  0  0
   -0.6690   -1.3857   -2.6142 H   0  0  0  0  0  0  0  0  0  0  0  0
    0.2259   -1.6670   -4.1194 H   0  0  0  0  0  0  0  0  0  0  0  0
    0.2019    0.5893   -0.7269 N   0  0  0  0  0  0  0  0  0  0  0  0
    0.1242    0.9059    0.6756 C   0  0  2  0  0  0  0  0  0  0  0  0
    1.0251   -0.0823    1.4097 C   0  0  0  0  0  0  0  0  0  0  0  0
    1.0618   -1.2814    1.1412 O   0  0  0  0  0  0  0  0  0  0  0  0
   -1.3100    0.8159    1.2125 C   0  0  0  0  0  0  0  0  0  0  0  0
   -2.2846    1.8613    0.6327 C   0  0  0  0  0  0  0  0  0  0  0  0
   -3.7045    1.5744    1.1291 C   0  0  0  0  0  0  0  0  0  0  0  0
   -2.2691    1.8875   -0.8963 C   0  0  0  0  0  0  0  0  0  0  0  0
   -0.5975    0.8179   -1.3140 H   0  0  0  0  0  0  0  0  0  0  0  0
    0.5335    1.9137    0.7988 H   0  0  0  0  0  0  0  0  0  0  0  0
   -1.2867    0.9255    2.3058 H   0  0  0  0  0  0  0  0  0  0  0  0
   -1.7076   -0.1898    1.0217 H   0  0  0  0  0  0  0  0  0  0  0  0
   -2.0026    2.8569    0.9964 H   0  0  0  0  0  0  0  0  0  0  0  0
   -4.0419    0.5876    0.7946 H   0  0  0  0  0  0  0  0  0  0  0  0
   -4.4100    2.3162    0.7402 H   0  0  0  0  0  0  0  0  0  0  0  0
   -3.7561    1.5975    2.2230 H   0  0  0  0  0  0  0  0  0  0  0  0
   -2.5449    0.9128   -1.3129 H   0  0  0  0  0  0  0  0  0  0  0  0
   -2.9773    2.6305   -1.2789 H   0  0  0  0  0  0  0  0  0  0  0  0
   -1.2809    2.1565   -1.2807 H   0  0  0  0  0  0  0  0  0  0  0  0
    1.8171    0.5437    2.3622 N   0  0  0  0  0  0  0  0  0  0  0  0
    2.7786   -0.1600    3.1802 C   0  0  2  0  0  0  0  0  0  0  0  0
    3.4634   -1.2039    2.3080 C   0  0  0  0  0  0  0  0  0  0  0  0
    2.9623   -1.6511    1.2784 O   0  0  0  0  0  0  0  0  0  0  0  0
    2.1119   -0.8093    4.3829 C   0  0  0  0  0  0  0  0  0  0  0  0
    1.7347    1.5472    2.4953 H   0  0  0  0  0  0  0  0  0  0  0  0
    3.5149    0.5807    3.5106 H   0  0  0  0  0  0  0  0  0  0  0  0
    1.3707   -1.5545    4.0717 H   0  0  0  0  0  0  0  0  0  0  0  0
    2.8458   -1.3179    5.0168 H   0  0  0  0  0  0  0  0  0  0  0  0
    1.5947   -0.0609    4.9930 H   0  0  0  0  0  0  0  0  0  0  0  0
    4.6806   -1.6092    2.8374 N   0  0  0  0  0  0  0  0  0  0  0  0
    5.5160   -2.6010    2.2014 C   0  0  0  0  0  0  0  0  0  0  0  0
    5.0271   -1.1711    3.6858 H   0  0  0  0  0  0  0  0  0  0  0  0
    5.2787   -3.5956    2.6069 H   0  0  0  0  0  0  0  0  0  0  0  0
    5.3324   -2.5939    1.1169 H   0  0  0  0  0  0  0  0  0  0  0  0
    6.5735   -2.3687    2.3958 H   0  0  0  0  0  0  0  0  0  0  0  0
  1  3  1  0  0  0  0
  1  7  1  0  0  0  0
  1  2  2  0  0  0  0
 37 38  1  0  0  0  0
 38 46  1  0  0  0  0
 38 39  2  0  0  0  0
  8  9  1  0  0  0  0
  9 17  1  0  0  0  0
  9 10  2  0  0  0  0
 18 19  1  0  0  0  0
 19 36  1  0  0  0  0
 19 20  2  0  0  0  0
 37 40  1  0  0  0  0
  8 11  1  0  0  0  0
 22 23  1  0  0  0  0
 22 24  1  0  0  0  0
 46 47  1  0  0  0  0
 18 21  1  0  0  0  0
 21 22  1  0  0  0  0
 36 37  1  0  0  0  0
  7  8  1  0  0  0  0
 17 18  1  0  0  0  0
  3  4  1  0  0  0  0
  3  5  1  0  0  0  0
  3  6  1  0  0  0  0
 40 43  1  0  0  0  0
 40 44  1  0  0  0  0
 40 45  1  0  0  0  0
 11 14  1  0  0  0  0
 11 15  1  0  0  0  0
 11 16  1  0  0  0  0
 23 30  1  0  0  0  0
 23 31  1  0  0  0  0
 23 32  1  0  0  0  0
 24 33  1  0  0  0  0
 24 34  1  0  0  0  0
 24 35  1  0  0  0  0
 47 49  1  0  0  0  0
 47 50  1  0  0  0  0
 47 51  1  0  0  0  0
 21 27  1  0  0  0  0
 21 28  1  0  0  0  0
 37 42  1  0  0  0  0
  8 13  1  0  0  0  0
 18 26  1  0  0  0  0
 22 29  1  0  0  0  0
 46 48  1  0  0  0  0
  7 12  1  0  0  0  0
 36 41  1  0  0  0  0
 17 25  1  0  0  0  0
M  END
$$$$

  -OEChem-05262214473D

 51 50  0     1  0  0  0  0  0999 V2000
    3.4018   -1.2440   -3.0186 C   0  0  0  0  0  0  0  0  0  0  0  0
    3.2697   -2.0909   -2.1427 O   0  0  0  0  0  0  0  0  0  0  0  0
    4.6845   -1.1645   -3.7779 C   0  0  0  0  0  0  0  0  0  0  0  0
    5.4123   -0.4862   -3.3041 H   0  0  0  0  0  0  0  0  0  0  0  0
    5.1949   -2.1387   -3.8443 H   0  0  0  0  0  0  0  0  0  0  0  0
    4.5953   -0.8128   -4.8182 H   0  0  0  0  0  0  0  0  0  0  0  0
    2.4540   -0.3103   -3.4040 N   0  0  0  0  0  0  0  0  0  0  0  0
    1.1494   -0.2128   -2.8039 C   0  0  2  0  0  0  0  0  0  0  0  0
    1.3350    0.0367   -1.3130 C   0  0  0  0  0  0  0  0  0  0  0  0
    2.3625   -0.2586   -0.7063 O   0  0  0  0  0  0  0  0  0  0  0  0
    0.3331   -1.4728   -3.0467 C   0  0  0  0  0  0  0  0  0  0  0  0
    2.6924    0.3404   -4.1502 H   0  0  0  0  0  0  0  0  0  0  0  0
    0.6550    0.6514   -3.2607 H   0  0  0  0  0  0  0  0  0  0  0  0
    0.8129   -2.3494   -2.5963 H   0  0  0  0  0  0  0  0  0  0  0  0
   -0.6690   -1.3857   -2.6142 H   0  0  0  0  0  0  0  0  0  0  0  0
    0.2259   -1.6670   -4.1194 H   0  0  0  0  0  0  0  0  0  0  0  0
    0.2019    0.5893   -0.7269 N   0  0  0  0  0  0  0  0  0  0  0  0
    0.1242    0.9059    0.6756 C   0  0  2  0  0  0  0  0  0  0  0  0
    1.0251   -0.0823    1.4097 C   0  0  0  0  0  0  0  0  0  0  0  0
    1.2684   -1.2097    0.9841 O   0  0  0  0  0  0  0  0  0  0  0  0
   -1.3100    0.8159    1.2125 C   0  0  0  0  0  0  0  0  0  0  0  0
   -2.2846    1.8613    0.6327 C   0  0  0  0  0  0  0  0  0  0  0  0
   -3.7045    1.5744    1.1291 C   0  0  0  0  0  0  0  0  0  0  0  0
   -2.2691    1.8875   -0.8963 C   0  0  0  0  0  0  0  0  0  0  0  0
   -0.5975    0.8179   -1.3140 H   0  0  0  0  0  0  0  0  0  0  0  0
    0.5335    1.9137    0.7988 H   0  0  0  0  0  0  0  0  0  0  0  0
   -1.2867    0.9255    2.3058 H   0  0  0  0  0  0  0  0  0  0  0  0
   -1.7076   -0.1898    1.0217 H   0  0  0  0  0  0  0  0  0  0  0  0
   -2.0026    2.8569    0.9964 H   0  0  0  0  0  0  0  0  0  0  0  0
   -4.0419    0.5876    0.7946 H   0  0  0  0  0  0  0  0  0  0  0  0
   -4.4100    2.3162    0.7402 H   0  0  0  0  0  0  0  0  0  0  0  0
   -3.7561    1.5975    2.2230 H   0  0  0  0  0  0  0  0  0  0  0  0
   -2.5449    0.9128   -1.3129 H   0  0  0  0  0  0  0  0  0  0  0  0
   -2.9773    2.6305   -1.2789 H   0  0  0  0  0  0  0  0  0  0  0  0
   -1.2809    2.1565   -1.2807 H   0  0  0  0  0  0  0  0  0  0  0  0
    1.5629    0.4639    2.5668 N   0  0  0  0  0  0  0  0  0  0  0  0
    2.4706   -0.2524    3.4337 C   0  0  2  0  0  0  0  0  0  0  0  0
    3.4217   -1.0567    2.5573 C   0  0  0  0  0  0  0  0  0  0  0  0
    3.1559   -1.3826    1.4022 O   0  0  0  0  0  0  0  0  0  0  0  0
    1.7181   -1.1598    4.3944 C   0  0  0  0  0  0  0  0  0  0  0  0
    1.3232    1.4167    2.8245 H   0  0  0  0  0  0  0  0  0  0  0  0
    3.0366    0.5017    3.9914 H   0  0  0  0  0  0  0  0  0  0  0  0
    1.1451   -1.9220    3.8539 H   0  0  0  0  0  0  0  0  0  0  0  0
    2.4055   -1.6801    5.0696 H   0  0  0  0  0  0  0  0  0  0  0  0
    1.0130   -0.5836    5.0033 H   0  0  0  0  0  0  0  0  0  0  0  0
    4.5840   -1.4048    3.2312 N   0  0  0  0  0  0  0  0  0  0  0  0
    5.6378   -2.1798    2.6189 C   0  0  0  0  0  0  0  0  0  0  0  0
    4.7285   -1.0754    4.1811 H   0  0  0  0  0  0  0  0  0  0  0  0
    5.4785   -3.2475    2.8302 H   0  0  0  0  0  0  0  0  0  0  0  0
    5.6286   -2.0160    1.5312 H   0  0  0  0  0  0  0  0  0  0  0  0
    6.6091   -1.8660    3.0288 H   0  0  0  0  0  0  0  0  0  0  0  0
  1  3  1  0  0  0  0
  1  7  1  0  0  0  0
  1  2  2  0  0  0  0
 37 38  1  0  0  0  0
 38 46  1  0  0  0  0
 38 39  2  0  0  0  0
  8  9  1  0  0  0  0
  9 17  1  0  0  0  0
  9 10  2  0  0  0  0
 18 19  1  0  0  0  0
 19 36  1  0  0  0  0
 19 20  2  0  0  0  0
 37 40  1  0  0  0  0
  8 11  1  0  0  0  0
 22 23  1  0  0  0  0
 22 24  1  0  0  0  0
 46 47  1  0  0  0  0
 18 21  1  0  0  0  0
 21 22  1  0  0  0  0
 36 37  1  0  0  0  0
  7  8  1  0  0  0  0
 17 18  1  0  0  0  0
  3  4  1  0  0  0  0
  3  5  1  0  0  0  0
  3  6  1  0  0  0  0
 40 43  1  0  0  0  0
 40 44  1  0  0  0  0
 40 45  1  0  0  0  0
 11 14  1  0  0  0  0
 11 15  1  0  0  0  0
 11 16  1  0  0  0  0
 23 30  1  0  0  0  0
 23 31  1  0  0  0  0
 23 32  1  0  0  0  0
 24 33  1  0  0  0  0
 24 34  1  0  0  0  0
 24 35  1  0  0  0  0
 47 49  1  0  0  0  0
 47 50  1  0  0  0  0
 47 51  1  0  0  0  0
 21 27  1  0  0  0  0
 21 28  1  0  0  0  0
 37 42  1  0  0  0  0
  8 13  1  0  0  0  0
 18 26  1  0  0  0  0
 22 29  1  0  0  0  0
 46 48  1  0  0  0  0
  7 12  1  0  0  0  0
 36 41  1  0  0  0  0
 17 25  1  0  0  0  0
M  END
$$$$

  -OEChem-05262214473D

 51 50  0     1  0  0  0  0  0999 V2000
    3.4018   -1.2440   -3.0186 C   0  0  0  0  0  0  0  0  0  0  0  0
    3.2697   -2.0909   -2.1427 O   0  0  0  0  0  0  0  0  0  0  0  0
    4.6845   -1.1645   -3.7779 C   0  0  0  0  0  0  0  0  0  0  0  0
    5.4123   -0.4862   -3.3041 H   0  0  0  0  0  0  0  0  0  0  0  0
    5.1949   -2.1387   -3.8443 H   0  0  0  0  0  0  0  0  0  0  0  0
    4.5953   -0.8128   -4.8182 H   0  0  0  0  0  0  0  0  0  0  0  0
    2.4540   -0.3103   -3.4040 N   0  0  0  0  0  0  0  0  0  0  0  0
    1.1494   -0.2128   -2.8039 C   0  0  2  0  0  0  0  0  0  0  0  0
    1.3350    0.0367   -1.3130 C   0  0  0  0  0  0  0  0  0  0  0  0
    2.3625   -0.2586   -0.7063 O   0  0  0  0  0  0  0  0  0  0  0  0
    0.3331   -1.4728   -3.0467 C   0  0  0  0  0  0  0  0  0  0  0  0
    2.6924    0.3404   -4.1502 H   0  0  0  0  0  0  0  0  0  0  0  0
    0.6550    0.6514   -3.2607 H   0  0  0  0  0  0  0  0  0  0  0  0
    0.8129   -2.3494   -2.5963 H   0  0  0  0  0  0  0  0  0  0  0  0
   -0.6690   -1.3857   -2.6142 H   0  0  0  0  0  0  0  0  0  0  0  0
    0.2259   -1.6670   -4.1194 H   0  0  0  0  0  0  0  0  0  0  0  0
    0.2019    0.5893   -0.7269 N   0  0  0  0  0  0  0  0  0  0  0  0
    0.1242    0.9059    0.6756 C   0  0  2  0  0  0  0  0  0  0  0  0
    1.0251   -0.0823    1.4097 C   0  0  0  0  0  0  0  0  0  0  0  0
    1.4853   -1.0907    0.8781 O   0  0  0  0  0  0  0  0  0  0  0  0
   -1.3100    0.8159    1.2125 C   0  0  0  0  0  0  0  0  0  0  0  0
   -2.2846    1.8613    0.6327 C   0  0  0  0  0  0  0  0  0  0  0  0
   -3.7045    1.5744    1.1291 C   0  0  0  0  0  0  0  0  0  0  0  0
   -2.2691    1.8875   -0.8963 C   0  0  0  0  0  0  0  0  0  0  0  0
   -0.5975    0.8179   -1.3140 H   0  0  0  0  0  0  0  0  0  0  0  0
    0.5335    1.9137    0.7988 H   0  0  0  0  0  0  0  0  0  0  0  0
   -1.2867    0.9255    2.3058 H   0  0  0  0  0  0  0  0  0  0  0  0
   -1.7076   -0.1898    1.0217 H   0  0  0  0  0  0  0  0  0  0  0  0
   -2.0026    2.8569    0.9964 H   0  0  0  0  0  0  0  0  0  0  0  0
   -4.0419    0.5876    0.7946 H   0  0  0  0  0  0  0  0  0  0  0  0
   -4.4100    2.3162    0.7402 H   0  0  0  0  0  0  0  0  0  0  0  0
   -3.7561    1.5975    2.2230 H   0  0  0  0  0  0  0  0  0  0  0  0
   -2.5449    0.9128   -1.3129 H   0  0  0  0  0  0  0  0  0  0  0  0
   -2.9773    2.6305   -1.2789 H   0  0  0  0  0  0  0  0  0  0  0  0
   -1.2809    2.1565   -1.2807 H   0  0  0  0  0  0  0  0  0  0  0  0
    1.2930    0.3239    2.7096 N   0  0  0  0  0  0  0  0  0  0  0  0
    2.1422   -0.4187    3.6129 C   0  0  2  0  0  0  0  0  0  0  0  0
    3.3212   -0.9578    2.8137 C   0  0  0  0  0  0  0  0  0  0  0  0
    3.2886   -1.1180    1.5954 O   0  0  0  0  0  0  0  0  0  0  0  0
    1.3794   -1.5492    4.2859 C   0  0  0  0  0  0  0  0  0  0  0  0
    0.8869    1.1890    3.0535 H   0  0  0  0  0  0  0  0  0  0  0  0
    2.5037    0.2924    4.3636 H   0  0  0  0  0  0  0  0  0  0  0  0
    1.0094   -2.2718    3.5495 H   0  0  0  0  0  0  0  0  0  0  0  0
    2.0165   -2.0929    4.9913 H   0  0  0  0  0  0  0  0  0  0  0  0
    0.5145   -1.1625    4.8358 H   0  0  0  0  0  0  0  0  0  0  0  0
    4.3992   -1.2796    3.6266 N   0  0  0  0  0  0  0  0  0  0  0  0
    5.6329   -1.8217    3.1070 C   0  0  0  0  0  0  0  0  0  0  0  0
    4.3452   -1.0959    4.6241 H   0  0  0  0  0  0  0  0  0  0  0  0
    5.5908   -2.9206    3.1326 H   0  0  0  0  0  0  0  0  0  0  0  0
    5.7733   -1.4843    2.0694 H   0  0  0  0  0  0  0  0  0  0  0  0
    6.4748   -1.4727    3.7231 H   0  0  0  0  0  0  0  0  0  0  0  0
  1  3  1  0  0  0  0
  1  7  1  0  0  0  0
  1  2  2  0  0  0  0
 37 38  1  0  0  0  0
 38 46  1  0  0  0  0
 38 39  2  0  0  0  0
  8  9  1  0  0  0  0
  9 17  1  0  0  0  0
  9 10  2  0  0  0  0
 18 19  1  0  0  0  0
 19 36  1  0  0  0  0
 19 20  2  0  0  0  0
 37 40  1  0  0  0  0
  8 11  1  0  0  0  0
 22 23  1  0  0  0  0
 22 24  1  0  0  0  0
 46 47  1  0  0  0  0
 18 21  1  0  0  0  0
 21 22  1  0  0  0  0
 36 37  1  0  0  0  0
  7  8  1  0  0  0  0
 17 18  1  0  0  0  0
  3  4  1  0  0  0  0
  3  5  1  0  0  0  0
  3  6  1  0  0  0  0
 40 43  1  0  0  0  0
 40 44  1  0  0  0  0
 40 45  1  0  0  0  0
 11 14  1  0  0  0  0
 11 15  1  0  0  0  0
 11 16  1  0  0  0  0
 23 30  1  0  0  0  0
 23 31  1  0  0  0  0
 23 32  1  0  0  0  0
 24 33  1  0  0  0  0
 24 34  1  0  0  0  0
 24 35  1  0  0  0  0
 47 49  1  0  0  0  0
 47 50  1  0  0  0  0
 47 51  1  0  0  0  0
 21 27  1  0  0  0  0
 21 28  1  0  0  0  0
 37 42  1  0  0  0  0
  8 13  1  0  0  0  0
 18 26  1  0  0  0  0
 22 29  1  0  0  0  0
 46 48  1  0  0  0  0
  7 12  1  0  0  0  0
 36 41  1  0  0  0  0
 17 25  1  0  0  0  0
M  END
$$$$

  -OEChem-05262214473D

 51 50  0     1  0  0  0  0  0999 V2000
    3.4018   -1.2440   -3.0186 C   0  0  0  0  0  0  0  0  0  0  0  0
    3.2697   -2.0909   -2.1427 O   0  0  0  0  0  0  0  0  0  0  0  0
    4.6845   -1.1645   -3.7779 C   0  0  0  0  0  0  0  0  0  0  0  0
    5.4123   -0.4862   -3.3041 H   0  0  0  0  0  0  0  0  0  0  0  0
    5.1949   -2.1387   -3.8443 H   0  0  0  0  0  0  0  0  0  0  0  0
    4.5953   -0.8128   -4.8182 H   0  0  0  0  0  0  0  0  0  0  0  0
    2.4540   -0.3103   -3.4040 N   0  0  0  0  0  0  0  0  0  0  0  0
    1.1494   -0.2128   -2.8039 C   0  0  2  0  0  0  0  0  0  0  0  0
    1.3350    0.0367   -1.3130 C   0  0  0  0  0  0  0  0  0  0  0  0
    2.3625   -0.2586   -0.7063 O   0  0  0  0  0  0  0  0  0  0  0  0
    0.3331   -1.4728   -3.0467 C   0  0  0  0  0  0  0  0  0  0  0  0
    2.6924    0.3404   -4.1502 H   0  0  0  0  0  0  0  0  0  0  0  0
    0.6550    0.6514   -3.2607 H   0  0  0  0  0  0  0  0  0  0  0  0
    0.8129   -2.3494   -2.5963 H   0  0  0  0  0  0  0  0  0  0  0  0
   -0.6690   -1.3857   -2.6142 H   0  0  0  0  0  0  0  0  0  0  0  0
    0.2259   -1.6670   -4.1194 H   0  0  0  0  0  0  0  0  0  0  0  0
    0.2019    0.5893   -0.7269 N   0  0  0  0  0  0  0  0  0  0  0  0
    0.1242    0.9059    0.6756 C   0  0  2  0  0  0  0  0  0  0  0  0
    1.2845    0.1921    1.3621 C   0  0  0  0  0  0  0  0  0  0  0  0
    2.1171   -0.4736    0.7498 O   0  0  0  0  0  0  0  0  0  0  0  0
   -1.2090    0.4693    1.2963 C   0  0  0  0  0  0  0  0  0  0  0  0
   -2.4464    1.2231    0.7678 C   0  0  0  0  0  0  0  0  0  0  0  0
   -3.7182    0.5987    1.3486 C   0  0  0  0  0  0  0  0  0  0  0  0
   -2.5223    1.2198   -0.7596 C   0  0  0  0  0  0  0  0  0  0  0  0
   -0.5975    0.8179   -1.3140 H   0  0  0  0  0  0  0  0  0  0  0  0
    0.2719    1.9866    0.7678 H   0  0  0  0  0  0  0  0  0  0  0  0
   -1.1539    0.6044    2.3857 H   0  0  0  0  0  0  0  0  0  0  0  0
   -1.3496   -0.6079    1.1359 H   0  0  0  0  0  0  0  0  0  0  0  0
   -2.4053    2.2652    1.1077 H   0  0  0  0  0  0  0  0  0  0  0  0
   -3.8134   -0.4481    1.0411 H   0  0  0  0  0  0  0  0  0  0  0  0
   -4.6085    1.1306    0.9969 H   0  0  0  0  0  0  0  0  0  0  0  0
   -3.7136    0.6314    2.4435 H   0  0  0  0  0  0  0  0  0  0  0  0
   -2.5656    0.1985   -1.1528 H   0  0  0  0  0  0  0  0  0  0  0  0
   -3.4151    1.7524   -1.1049 H   0  0  0  0  0  0  0  0  0  0  0  0
   -1.6568    1.7207   -1.2031 H   0  0  0  0  0  0  0  0  0  0  0  0
    1.3063    0.4300    2.7294 N   0  0  0  0  0  0  0  0  0  0  0  0
    2.3174   -0.1071    3.6113 C   0  0  2  0  0  0  0  0  0  0  0  0
    3.6564   -0.0379    2.8889 C   0  0  0  0  0  0  0  0  0  0  0  0
    3.7562    0.0194    1.6650 O   0  0  0  0  0  0  0  0  0  0  0  0
    1.9933   -1.5357    4.0196 C   0  0  0  0  0  0  0  0  0  0  0  0
    0.5880    1.0169    3.1431 H   0  0  0  0  0  0  0  0  0  0  0  0
    2.3440    0.5412    4.4939 H   0  0  0  0  0  0  0  0  0  0  0  0
    1.9623   -2.2002    3.1484 H   0  0  0  0  0  0  0  0  0  0  0  0
    2.7453   -1.9313    4.7103 H   0  0  0  0  0  0  0  0  0  0  0  0
    1.0165   -1.5881    4.5124 H   0  0  0  0  0  0  0  0  0  0  0  0
    4.7278   -0.0913    3.7695 N   0  0  0  0  0  0  0  0  0  0  0  0
    6.1025   -0.0548    3.3279 C   0  0  0  0  0  0  0  0  0  0  0  0
    4.5518   -0.1190    4.7695 H   0  0  0  0  0  0  0  0  0  0  0  0
    6.4714   -1.0820    3.1903 H   0  0  0  0  0  0  0  0  0  0  0  0
    6.1666    0.4885    2.3736 H   0  0  0  0  0  0  0  0  0  0  0  0
    6.7167    0.4571    4.0833 H   0  0  0  0  0  0  0  0  0  0  0  0
  1  3  1  0  0  0  0
  1  7  1  0  0  0  0
  1  2  2  0  0  0  0
 37 38  1  0  0  0  0
 38 46  1  0  0  0  0
 38 39  2  0  0  0  0
  8  9  1  0  0  0  0
  9 17  1  0  0  0  0
  9 10  2  0  0  0  0
 18 19  1  0  0  0  0
 19 36  1  0  0  0  0
 19 20  2  0  0  0  0
 37 40  1  0  0  0  0
  8 11  1  0  0  0  0
 22 23  1  0  0  0  0
 22 24  1  0  0  0  0
 46 47  1  0  0  0  0
 18 21  1  0  0  0  0
 21 22  1  0  0  0  0
 36 37  1  0  0  0  0
  7  8  1  0  0  0  0
 17 18  1  0  0  0  0
  3  4  1  0  0  0  0
  3  5  1  0  0  0  0
  3  6  1  0  0  0  0
 40 43  1  0  0  0  0
 40 44  1  0  0  0  0
 40 45  1  0  0  0  0
 11 14  1  0  0  0  0
 11 15  1  0  0  0  0
 11 16  1  0  0  0  0
 23 30  1  0  0  0  0
 23 31  1  0  0  0  0
 23 32  1  0  0  0  0
 24 33  1  0  0  0  0
 24 34  1  0  0  0  0
 24 35  1  0  0  0  0
 47 49  1  0  0  0  0
 47 50  1  0  0  0  0
 47 51  1  0  0  0  0
 21 27  1  0  0  0  0
 21 28  1  0  0  0  0
 37 42  1  0  0  0  0
  8 13  1  0  0  0  0
 18 26  1  0  0  0  0
 22 29  1  0  0  0  0
 46 48  1  0  0  0  0
  7 12  1  0  0  0  0
 36 41  1  0  0  0  0
 17 25  1  0  0  0  0
M  END
$$$$

  -OEChem-05262214473D

 51 50  0     1  0  0  0  0  0999 V2000
    3.4018   -1.2440   -3.0186 C   0  0  0  0  0  0  0  0  0  0  0  0
    3.2697   -2.0909   -2.1427 O   0  0  0  0  0  0  0  0  0  0  0  0
    4.6845   -1.1645   -3.7779 C   0  0  0  0  0  0  0  0  0  0  0  0
    5.4123   -0.4862   -3.3041 H   0  0  0  0  0  0  0  0  0  0  0  0
    5.1949   -2.1387   -3.8443 H   0  0  0  0  0  0  0  0  0  0  0  0
    4.5953   -0.8128   -4.8182 H   0  0  0  0  0  0  0  0  0  0  0  0
    2.4540   -0.3103   -3.4040 N   0  0  0  0  0  0  0  0  0  0  0  0
    1.1494   -0.2128   -2.8039 C   0  0  2  0  0  0  0  0  0  0  0  0
    1.3350    0.0367   -1.3130 C   0  0  0  0  0  0  0  0  0  0  0  0
    2.3625   -0.2586   -0.7063 O   0  0  0  0  0  0  0  0  0  0  0  0
    0.3331   -1.4728   -3.0467 C   0  0  0  0  0  0  0  0  0  0  0  0
    2.6924    0.3404   -4.1502 H   0  0  0  0  0  0  0  0  0  0  0  0
    0.6550    0.6514   -3.2607 H   0  0  0  0  0  0  0  0  0  0  0  0
    0.8129   -2.3494   -2.5963 H   0  0  0  0  0  0  0  0  0  0  0  0
   -0.6690   -1.3857   -2.6142 H   0  0  0  0  0  0  0  0  0  0  0  0
    0.2259   -1.6670   -4.1194 H   0  0  0  0  0  0  0  0  0  0  0  0
    0.2019    0.5893   -0.7269 N   0  0  0  0  0  0  0  0  0  0  0  0
    0.1242    0.9059    0.6756 C   0  0  2  0  0  0  0  0  0  0  0  0
    1.2845    0.1921    1.3621 C   0  0  0  0  0  0  0  0  0  0  0  0
    2.2577   -0.2441    0.7507 O   0  0  0  0  0  0  0  0  0  0  0  0
   -1.2090    0.4693    1.2963 C   0  0  0  0  0  0  0  0  0  0  0  0
   -2.4464    1.2231    0.7678 C   0  0  0  0  0  0  0  0  0  0  0  0
   -3.7182    0.5987    1.3486 C   0  0  0  0  0  0  0  0  0  0  0  0
   -2.5223    1.2198   -0.7596 C   0  0  0  0  0  0  0  0  0  0  0  0
   -0.5975    0.8179   -1.3140 H   0  0  0  0  0  0  0  0  0  0  0  0
    0.2719    1.9866    0.7678 H   0  0  0  0  0  0  0  0  0  0  0  0
   -1.1539    0.6044    2.3857 H   0  0  0  0  0  0  0  0  0  0  0  0
   -1.3496   -0.6079    1.1359 H   0  0  0  0  0  0  0  0  0  0  0  0
   -2.4053    2.2652    1.1077 H   0  0  0  0  0  0  0  0  0  0  0  0
   -3.8134   -0.4481    1.0411 H   0  0  0  0  0  0  0  0  0  0  0  0
   -4.6085    1.1306    0.9969 H   0  0  0  0  0  0  0  0  0  0  0  0
   -3.7136    0.6314    2.4435 H   0  0  0  0  0  0  0  0  0  0  0  0
   -2.5656    0.1985   -1.1528 H   0  0  0  0  0  0  0  0  0  0  0  0
   -3.4151    1.7524   -1.1049 H   0  0  0  0  0  0  0  0  0  0  0  0
   -1.6568    1.7207   -1.2031 H   0  0  0  0  0  0  0  0  0  0  0  0
    1.1257    0.1470    2.7402 N   0  0  0  0  0  0  0  0  0  0  0  0
    2.0949   -0.4503    3.6305 C   0  0  2  0  0  0  0  0  0  0  0  0
    3.4848   -0.0958    3.1187 C   0  0  0  0  0  0  0  0  0  0  0  0
    3.7097    0.2201    1.9522 O   0  0  0  0  0  0  0  0  0  0  0  0
    1.9145   -1.9580    3.7137 C   0  0  0  0  0  0  0  0  0  0  0  0
    0.2970    0.5589    3.1587 H   0  0  0  0  0  0  0  0  0  0  0  0
    1.9412    0.0035    4.6157 H   0  0  0  0  0  0  0  0  0  0  0  0
    2.0647   -2.4302    2.7360 H   0  0  0  0  0  0  0  0  0  0  0  0
    2.6309   -2.4055    4.4105 H   0  0  0  0  0  0  0  0  0  0  0  0
    0.9045   -2.2115    4.0536 H   0  0  0  0  0  0  0  0  0  0  0  0
    4.4514   -0.2157    4.1075 N   0  0  0  0  0  0  0  0  0  0  0  0
    5.8499    0.0534    3.8673 C   0  0  0  0  0  0  0  0  0  0  0  0
    4.1720   -0.4650    5.0517 H   0  0  0  0  0  0  0  0  0  0  0  0
    6.3606   -0.8799    3.5877 H   0  0  0  0  0  0  0  0  0  0  0  0
    5.9477    0.7837    3.0506 H   0  0  0  0  0  0  0  0  0  0  0  0
    6.3067    0.4617    4.7809 H   0  0  0  0  0  0  0  0  0  0  0  0
  1  3  1  0  0  0  0
  1  7  1  0  0  0  0
  1  2  2  0  0  0  0
 37 38  1  0  0  0  0
 38 46  1  0  0  0  0
 38 39  2  0  0  0  0
  8  9  1  0  0  0  0
  9 17  1  0  0  0  0
  9 10  2  0  0  0  0
 18 19  1  0  0  0  0
 19 36  1  0  0  0  0
 19 20  2  0  0  0  0
 37 40  1  0  0  0  0
  8 11  1  0  0  0  0
 22 23  1  0  0  0  0
 22 24  1  0  0  0  0
 46 47  1  0  0  0  0
 18 21  1  0  0  0  0
 21 22  1  0  0  0  0
 36 37  1  0  0  0  0
  7  8  1  0  0  0  0
 17 18  1  0  0  0  0
  3  4  1  0  0  0  0
  3  5  1  0  0  0  0
  3  6  1  0  0  0  0
 40 43  1  0  0  0  0
 40 44  1  0  0  0  0
 40 45  1  0  0  0  0
 11 14  1  0  0  0  0
 11 15  1  0  0  0  0
 11 16  1  0  0  0  0
 23 30  1  0  0  0  0
 23 31  1  0  0  0  0
 23 32  1  0  0  0  0
 24 33  1  0  0  0  0
 24 34  1  0  0  0  0
 24 35  1  0  0  0  0
 47 49  1  0  0  0  0
 47 50  1  0  0  0  0
 47 51  1  0  0  0  0
 21 27  1  0  0  0  0
 21 28  1  0  0  0  0
 37 42  1  0  0  0  0
  8 13  1  0  0  0  0
 18 26  1  0  0  0  0
 22 29  1  0  0  0  0
 46 48  1  0  0  0  0
  7 12  1  0  0  0  0
 36 41  1  0  0  0  0
 17 25  1  0  0  0  0
M  END
$$$$

  -OEChem-05262214473D

 51 50  0     1  0  0  0  0  0999 V2000
    3.4018   -1.2440   -3.0186 C   0  0  0  0  0  0  0  0  0  0  0  0
    3.2697   -2.0909   -2.1427 O   0  0  0  0  0  0  0  0  0  0  0  0
    4.6845   -1.1645   -3.7779 C   0  0  0  0  0  0  0  0  0  0  0  0
    5.4123   -0.4862   -3.3041 H   0  0  0  0  0  0  0  0  0  0  0  0
    5.1949   -2.1387   -3.8443 H   0  0  0  0  0  0  0  0  0  0  0  0
    4.5953   -0.8128   -4.8182 H   0  0  0  0  0  0  0  0  0  0  0  0
    2.4540   -0.3103   -3.4040 N   0  0  0  0  0  0  0  0  0  0  0  0
    1.1494   -0.2128   -2.8039 C   0  0  2  0  0  0  0  0  0  0  0  0
    1.3350    0.0367   -1.3130 C   0  0  0  0  0  0  0  0  0  0  0  0
    2.3625   -0.2586   -0.7063 O   0  0  0  0  0  0  0  0  0  0  0  0
    0.3331   -1.4728   -3.0467 C   0  0  0  0  0  0  0  0  0  0  0  0
    2.6924    0.3404   -4.1502 H   0  0  0  0  0  0  0  0  0  0  0  0
    0.6550    0.6514   -3.2607 H   0  0  0  0  0  0  0  0  0  0  0  0
    0.8129   -2.3494   -2.5963 H   0  0  0  0  0  0  0  0  0  0  0  0
   -0.6690   -1.3857   -2.6142 H   0  0  0  0  0  0  0  0  0  0  0  0
    0.2259   -1.6670   -4.1194 H   0  0  0  0  0  0  0  0  0  0  0  0
    0.2019    0.5893   -0.7269 N   0  0  0  0  0  0  0  0  0  0  0  0
    0.1242    0.9059    0.6756 C   0  0  2  0  0  0  0  0  0  0  0  0
    1.2845    0.1921    1.3621 C   0  0  0  0  0  0  0  0  0  0  0  0
    2.3667   -0.0062    0.8138 O   0  0  0  0  0  0  0  0  0  0  0  0
   -1.2090    0.4693    1.2963 C   0  0  0  0  0  0  0  0  0  0  0  0
   -2.4464    1.2231    0.7678 C   0  0  0  0  0  0  0  0  0  0  0  0
   -3.7182    0.5987    1.3486 C   0  0  0  0  0  0  0  0  0  0  0  0
   -2.5223    1.2198   -0.7596 C   0  0  0  0  0  0  0  0  0  0  0  0
   -0.5975    0.8179   -1.3140 H   0  0  0  0  0  0  0  0  0  0  0  0
    0.2719    1.9866    0.7678 H   0  0  0  0  0  0  0  0  0  0  0  0
   -1.1539    0.6044    2.3857 H   0  0  0  0  0  0  0  0  0  0  0  0
   -1.3496   -0.6079    1.1359 H   0  0  0  0  0  0  0  0  0  0  0  0
   -2.4053    2.2652    1.1077 H   0  0  0  0  0  0  0  0  0  0  0  0
   -3.8134   -0.4481    1.0411 H   0  0  0  0  0  0  0  0  0  0  0  0
   -4.6085    1.1306    0.9969 H   0  0  0  0  0  0  0  0  0  0  0  0
   -3.7136    0.6314    2.4435 H   0  0  0  0  0  0  0  0  0  0  0  0
   -2.5656    0.1985   -1.1528 H   0  0  0  0  0  0  0  0  0  0  0  0
   -3.4151    1.7524   -1.1049 H   0  0  0  0  0  0  0  0  0  0  0  0
   -1.6568    1.7207   -1.2031 H   0  0  0  0  0  0  0  0  0  0  0  0
    0.9830   -0.1496    2.6731 N   0  0  0  0  0  0  0  0  0  0  0  0
    1.9176   -0.8115    3.5547 C   0  0  2  0  0  0  0  0  0  0  0  0
    3.2980   -0.2170    3.3085 C   0  0  0  0  0  0  0  0  0  0  0  0
    3.6067    0.3520    2.2635 O   0  0  0  0  0  0  0  0  0  0  0  0
    1.9245   -2.3149    3.3256 C   0  0  0  0  0  0  0  0  0  0  0  0
    0.0674    0.0795    3.0484 H   0  0  0  0  0  0  0  0  0  0  0  0
    1.5999   -0.5868    4.5787 H   0  0  0  0  0  0  0  0  0  0  0  0
    2.2403   -2.5594    2.3049 H   0  0  0  0  0  0  0  0  0  0  0  0
    2.6120   -2.8179    4.0137 H   0  0  0  0  0  0  0  0  0  0  0  0
    0.9245   -2.7363    3.4741 H   0  0  0  0  0  0  0  0  0  0  0  0
    4.1578   -0.4345    4.3760 N   0  0  0  0  0  0  0  0  0  0  0  0
    5.5280    0.0223    4.3791 C   0  0  0  0  0  0  0  0  0  0  0  0
    3.8112   -0.8990    5.2102 H   0  0  0  0  0  0  0  0  0  0  0  0
    6.1820   -0.7758    3.9978 H   0  0  0  0  0  0  0  0  0  0  0  0
    5.6198    0.9100    3.7360 H   0  0  0  0  0  0  0  0  0  0  0  0
    5.8258    0.2810    5.4059 H   0  0  0  0  0  0  0  0  0  0  0  0
  1  3  1  0  0  0  0
  1  7  1  0  0  0  0
  1  2  2  0  0  0  0
 37 38  1  0  0  0  0
 38 46  1  0  0  0  0
 38 39  2  0  0  0  0
  8  9  1  0  0  0  0
  9 17  1  0  0  0  0
  9 10  2  0  0  0  0
 18 19  1  0  0  0  0
 19 36  1  0  0  0  0
 19 20  2  0  0  0  0
 37 40  1  0  0  0  0
  8 11  1  0  0  0  0
 22 23  1  0  0  0  0
 22 24  1  0  0  0  0
 46 47  1  0  0  0  0
 18 21  1  0  0  0  0
 21 22  1  0  0  0  0
 36 37  1  0  0  0  0
  7  8  1  0  0  0  0
 17 18  1  0  0  0  0
  3  4  1  0  0  0  0
  3  5  1  0  0  0  0
  3  6  1  0  0  0  0
 40 43  1  0  0  0  0
 40 44  1  0  0  0  0
 40 45  1  0  0  0  0
 11 14  1  0  0  0  0
 11 15  1  0  0  0  0
 11 16  1  0  0  0  0
 23 30  1  0  0  0  0
 23 31  1  0  0  0  0
 23 32  1  0  0  0  0
 24 33  1  0  0  0  0
 24 34  1  0  0  0  0
 24 35  1  0  0  0  0
 47 49  1  0  0  0  0
 47 50  1  0  0  0  0
 47 51  1  0  0  0  0
 21 27  1  0  0  0  0
 21 28  1  0  0  0  0
 37 42  1  0  0  0  0
  8 13  1  0  0  0  0
 18 26  1  0  0  0  0
 22 29  1  0  0  0  0
 46 48  1  0  0  0  0
  7 12  1  0  0  0  0
 36 41  1  0  0  0  0
 17 25  1  0  0  0  0
M  END
$$$$

  -OEChem-05262214473D

 51 50  0     1  0  0  0  0  0999 V2000
    3.4018   -1.2440   -3.0186 C   0  0  0  0  0  0  0  0  0  0  0  0
    3.2697   -2.0909   -2.1427 O   0  0  0  0  0  0  0  0  0  0  0  0
    4.6845   -1.1645   -3.7779 C   0  0  0  0  0  0  0  0  0  0  0  0
    5.4123   -0.4862   -3.3041 H   0  0  0  0  0  0  0  0  0  0  0  0
    5.1949   -2.1387   -3.8443 H   0  0  0  0  0  0  0  0  0  0  0  0
    4.5953   -0.8128   -4.8182 H   0  0  0  0  0  0  0  0  0  0  0  0
    2.4540   -0.3103   -3.4040 N   0  0  0  0  0  0  0  0  0  0  0  0
    1.1494   -0.2128   -2.8039 C   0  0  2  0  0  0  0  0  0  0  0  0
    1.3350    0.0367   -1.3130 C   0  0  0  0  0  0  0  0  0  0  0  0
    2.3625   -0.2586   -0.7063 O   0  0  0  0  0  0  0  0  0  0  0  0
    0.3331   -1.4728   -3.0467 C   0  0  0  0  0  0  0  0  0  0  0  0
    2.6924    0.3404   -4.1502 H   0  0  0  0  0  0  0  0  0  0  0  0
    0.6550    0.6514   -3.2607 H   0  0  0  0  0  0  0  0  0  0  0  0
    0.8129   -2.3494   -2.5963 H   0  0  0  0  0  0  0  0  0  0  0  0
   -0.6690   -1.3857   -2.6142 H   0  0  0  0  0  0  0  0  0  0  0  0
    0.2259   -1.6670   -4.1194 H   0  0  0  0  0  0  0  0  0  0  0  0
    0.2019    0.5893   -0.7269 N   0  0  0  0  0  0  0  0  0  0  0  0
    0.1242    0.9059    0.6756 C   0  0  2  0  0  0  0  0  0  0  0  0
    1.2845    0.1921    1.3621 C   0  0  0  0  0  0  0  0  0  0  0  0
    2.4367    0.2239    0.9348 O   0  0  0  0  0  0  0  0  0  0  0  0
   -1.2090    0.4693    1.2963 C   0  0  0  0  0  0  0  0  0  0  0  0
   -2.4464    1.2231    0.7678 C   0  0  0  0  0  0  0  0  0  0  0  0
   -3.7182    0.5987    1.3486 C   0  0  0  0  0  0  0  0  0  0  0  0
   -2.5223    1.2198   -0.7596 C   0  0  0  0  0  0  0  0  0  0  0  0
   -0.5975    0.8179   -1.3140 H   0  0  0  0  0  0  0  0  0  0  0  0
    0.2719    1.9866    0.7678 H   0  0  0  0  0  0  0  0  0  0  0  0
   -1.1539    0.6044    2.3857 H   0  0  0  0  0  0  0  0  0  0  0  0
   -1.3496   -0.6079    1.1359 H   0  0  0  0  0  0  0  0  0  0  0  0
   -2.4053    2.2652    1.1077 H   0  0  0  0  0  0  0  0  0  0  0  0
   -3.8134   -0.4481    1.0411 H   0  0  0  0  0  0  0  0  0  0  0  0
   -4.6085    1.1306    0.9969 H   0  0  0  0  0  0  0  0  0  0  0  0
   -3.7136    0.6314    2.4435 H   0  0  0  0  0  0  0  0  0  0  0  0
   -2.5656    0.1985   -1.1528 H   0  0  0  0  0  0  0  0  0  0  0  0
   -3.4151    1.7524   -1.1049 H   0  0  0  0  0  0  0  0  0  0  0  0
   -1.6568    1.7207   -1.2031 H   0  0  0  0  0  0  0  0  0  0  0  0
    0.8878   -0.4395    2.5327 N   0  0  0  0  0  0  0  0  0  0  0  0
    1.7976   -1.1661    3.3888 C   0  0  2  0  0  0  0  0  0  0  0  0
    3.1087   -0.3931    3.4454 C   0  0  0  0  0  0  0  0  0  0  0  0
    3.4541    0.4062    2.5777 O   0  0  0  0  0  0  0  0  0  0  0  0
    2.0229   -2.5820    2.8817 C   0  0  0  0  0  0  0  0  0  0  0  0
   -0.0852   -0.3886    2.8196 H   0  0  0  0  0  0  0  0  0  0  0  0
    1.3435   -1.1895    4.3854 H   0  0  0  0  0  0  0  0  0  0  0  0
    2.4773   -2.5788    1.8843 H   0  0  0  0  0  0  0  0  0  0  0  0
    2.6898   -3.1403    3.5469 H   0  0  0  0  0  0  0  0  0  0  0  0
    1.0751   -3.1269    2.8134 H   0  0  0  0  0  0  0  0  0  0  0  0
    3.8673   -0.7330    4.5567 N   0  0  0  0  0  0  0  0  0  0  0  0
    5.1587   -0.1460    4.8283 C   0  0  0  0  0  0  0  0  0  0  0  0
    3.4941   -1.3915    5.2341 H   0  0  0  0  0  0  0  0  0  0  0  0
    5.9477   -0.7767    4.3928 H   0  0  0  0  0  0  0  0  0  0  0  0
    5.2054    0.8589    4.3833 H   0  0  0  0  0  0  0  0  0  0  0  0
    5.3066   -0.0726    5.9159 H   0  0  0  0  0  0  0  0  0  0  0  0
  1  3  1  0  0  0  0
  1  7  1  0  0  0  0
  1  2  2  0  0  0  0
 37 38  1  0  0  0  0
 38 46  1  0  0  0  0
 38 39  2  0  0  0  0
  8  9  1  0  0  0  0
  9 17  1  0  0  0  0
  9 10  2  0  0  0  0
 18 19  1  0  0  0  0
 19 36  1  0  0  0  0
 19 20  2  0  0  0  0
 37 40  1  0  0  0  0
  8 11  1  0  0  0  0
 22 23  1  0  0  0  0
 22 24  1  0  0  0  0
 46 47  1  0  0  0  0
 18 21  1  0  0  0  0
 21 22  1  0  0  0  0
 36 37  1  0  0  0  0
  7  8  1  0  0  0  0
 17 18  1  0  0  0  0
  3  4  1  0  0  0  0
  3  5  1  0  0  0  0
  3  6  1  0  0  0  0
 40 43  1  0  0  0  0
 40 44  1  0  0  0  0
 40 45  1  0  0  0  0
 11 14  1  0  0  0  0
 11 15  1  0  0  0  0
 11 16  1  0  0  0  0
 23 30  1  0  0  0  0
 23 31  1  0  0  0  0
 23 32  1  0  0  0  0
 24 33  1  0  0  0  0
 24 34  1  0  0  0  0
 24 35  1  0  0  0  0
 47 49  1  0  0  0  0
 47 50  1  0  0  0  0
 47 51  1  0  0  0  0
 21 27  1  0  0  0  0
 21 28  1  0  0  0  0
 37 42  1  0  0  0  0
  8 13  1  0  0  0  0
 18 26  1  0  0  0  0
 22 29  1  0  0  0  0
 46 48  1  0  0  0  0
  7 12  1  0  0  0  0
 36 41  1  0  0  0  0
 17 25  1  0  0  0  0
M  END
$$$$

  -OEChem-05262214473D

 51 50  0     1  0  0  0  0  0999 V2000
    3.4018   -1.2440   -3.0186 C   0  0  0  0  0  0  0  0  0  0  0  0
    3.2697   -2.0909   -2.1427 O   0  0  0  0  0  0  0  0  0  0  0  0
    4.6845   -1.1645   -3.7779 C   0  0  0  0  0  0  0  0  0  0  0  0
    5.4123   -0.4862   -3.3041 H   0  0  0  0  0  0  0  0  0  0  0  0
    5.1949   -2.1387   -3.8443 H   0  0  0  0  0  0  0  0  0  0  0  0
    4.5953   -0.8128   -4.8182 H   0  0  0  0  0  0  0  0  0  0  0  0
    2.4540   -0.3103   -3.4040 N   0  0  0  0  0  0  0  0  0  0  0  0
    1.1494   -0.2128   -2.8039 C   0  0  2  0  0  0  0  0  0  0  0  0
    1.3350    0.0367   -1.3130 C   0  0  0  0  0  0  0  0  0  0  0  0
    2.3625   -0.2586   -0.7063 O   0  0  0  0  0  0  0  0  0  0  0  0
    0.3331   -1.4728   -3.0467 C   0  0  0  0  0  0  0  0  0  0  0  0
    2.6924    0.3404   -4.1502 H   0  0  0  0  0  0  0  0  0  0  0  0
    0.6550    0.6514   -3.2607 H   0  0  0  0  0  0  0  0  0  0  0  0
    0.8129   -2.3494   -2.5963 H   0  0  0  0  0  0  0  0  0  0  0  0
   -0.6690   -1.3857   -2.6142 H   0  0  0  0  0  0  0  0  0  0  0  0
    0.2259   -1.6670   -4.1194 H   0  0  0  0  0  0  0  0  0  0  0  0
    0.2019    0.5893   -0.7269 N   0  0  0  0  0  0  0  0  0  0  0  0
    0.1242    0.9059    0.6756 C   0  0  2  0  0  0  0  0  0  0  0  0
    1.2845    0.1921    1.3621 C   0  0  0  0  0  0  0  0  0  0  0  0
    2.4628    0.4305    1.1054 O   0  0  0  0  0  0  0  0  0  0  0  0
   -1.2090    0.4693    1.2963 C   0  0  0  0  0  0  0  0  0  0  0  0
   -2.4464    1.2231    0.7678 C   0  0  0  0  0  0  0  0  0  0  0  0
   -3.7182    0.5987    1.3486 C   0  0  0  0  0  0  0  0  0  0  0  0
   -2.5223    1.2198   -0.7596 C   0  0  0  0  0  0  0  0  0  0  0  0
   -0.5975    0.8179   -1.3140 H   0  0  0  0  0  0  0  0  0  0  0  0
    0.2719    1.9866    0.7678 H   0  0  0  0  0  0  0  0  0  0  0  0
   -1.1539    0.6044    2.3857 H   0  0  0  0  0  0  0  0  0  0  0  0
   -1.3496   -0.6079    1.1359 H   0  0  0  0  0  0  0  0  0  0  0  0
   -2.4053    2.2652    1.1077 H   0  0  0  0  0  0  0  0  0  0  0  0
   -3.8134   -0.4481    1.0411 H   0  0  0  0  0  0  0  0  0  0  0  0
   -4.6085    1.1306    0.9969 H   0  0  0  0  0  0  0  0  0  0  0  0
   -3.7136    0.6314    2.4435 H   0  0  0  0  0  0  0  0  0  0  0  0
   -2.5656    0.1985   -1.1528 H   0  0  0  0  0  0  0  0  0  0  0  0
   -3.4151    1.7524   -1.1049 H   0  0  0  0  0  0  0  0  0  0  0  0
   -1.6568    1.7207   -1.2031 H   0  0  0  0  0  0  0  0  0  0  0  0
    0.8466   -0.7029    2.3284 N   0  0  0  0  0  0  0  0  0  0  0  0
    1.7431   -1.4899    3.1442 C   0  0  2  0  0  0  0  0  0  0  0  0
    2.9297   -0.6123    3.5199 C   0  0  0  0  0  0  0  0  0  0  0  0
    3.2624    0.3788    2.8733 O   0  0  0  0  0  0  0  0  0  0  0  0
    2.2027   -2.7412    2.4123 C   0  0  0  0  0  0  0  0  0  0  0  0
   -0.1504   -0.8134    2.4880 H   0  0  0  0  0  0  0  0  0  0  0  0
    1.1895   -1.7634    4.0490 H   0  0  0  0  0  0  0  0  0  0  0  0
    2.7593   -2.4871    1.5028 H   0  0  0  0  0  0  0  0  0  0  0  0
    2.8591   -3.3507    3.0421 H   0  0  0  0  0  0  0  0  0  0  0  0
    1.3461   -3.3565    2.1166 H   0  0  0  0  0  0  0  0  0  0  0  0
    3.5995   -1.0907    4.6374 N   0  0  0  0  0  0  0  0  0  0  0  0
    4.7672   -0.4399    5.1844 C   0  0  0  0  0  0  0  0  0  0  0  0
    3.2423   -1.9088    5.1219 H   0  0  0  0  0  0  0  0  0  0  0  0
    5.6736   -0.8827    4.7458 H   0  0  0  0  0  0  0  0  0  0  0  0
    4.7327    0.6339    4.9483 H   0  0  0  0  0  0  0  0  0  0  0  0
    4.7845   -0.5750    6.2759 H   0  0  0  0  0  0  0  0  0  0  0  0
  1  3  1  0  0  0  0
  1  7  1  0  0  0  0
  1  2  2  0  0  0  0
 37 38  1  0  0  0  0
 38 46  1  0  0  0  0
 38 39  2  0  0  0  0
  8  9  1  0  0  0  0
  9 17  1  0  0  0  0
  9 10  2  0  0  0  0
 18 19  1  0  0  0  0
 19 36  1  0  0  0  0
 19 20  2  0  0  0  0
 37 40  1  0  0  0  0
  8 11  1  0  0  0  0
 22 23  1  0  0  0  0
 22 24  1  0  0  0  0
 46 47  1  0  0  0  0
 18 21  1  0  0  0  0
 21 22  1  0  0  0  0
 36 37  1  0  0  0  0
  7  8  1  0  0  0  0
 17 18  1  0  0  0  0
  3  4  1  0  0  0  0
  3  5  1  0  0  0  0
  3  6  1  0  0  0  0
 40 43  1  0  0  0  0
 40 44  1  0  0  0  0
 40 45  1  0  0  0  0
 11 14  1  0  0  0  0
 11 15  1  0  0  0  0
 11 16  1  0  0  0  0
 23 30  1  0  0  0  0
 23 31  1  0  0  0  0
 23 32  1  0  0  0  0
 24 33  1  0  0  0  0
 24 34  1  0  0  0  0
 24 35  1  0  0  0  0
 47 49  1  0  0  0  0
 47 50  1  0  0  0  0
 47 51  1  0  0  0  0
 21 27  1  0  0  0  0
 21 28  1  0  0  0  0
 37 42  1  0  0  0  0
  8 13  1  0  0  0  0
 18 26  1  0  0  0  0
 22 29  1  0  0  0  0
 46 48  1  0  0  0  0
  7 12  1  0  0  0  0
 36 41  1  0  0  0  0
 17 25  1  0  0  0  0
M  END
$$$$

  -OEChem-05262214473D

 51 50  0     1  0  0  0  0  0999 V2000
    3.4018   -1.2440   -3.0186 C   0  0  0  0  0  0  0  0  0  0  0  0
    3.2697   -2.0909   -2.1427 O   0  0  0  0  0  0  0  0  0  0  0  0
    4.6845   -1.1645   -3.7779 C   0  0  0  0  0  0  0  0  0  0  0  0
    5.4123   -0.4862   -3.3041 H   0  0  0  0  0  0  0  0  0  0  0  0
    5.1949   -2.1387   -3.8443 H   0  0  0  0  0  0  0  0  0  0  0  0
    4.5953   -0.8128   -4.8182 H   0  0  0  0  0  0  0  0  0  0  0  0
    2.4540   -0.3103   -3.4040 N   0  0  0  0  0  0  0  0  0  0  0  0
    1.1494   -0.2128   -2.8039 C   0  0  2  0  0  0  0  0  0  0  0  0
    1.3350    0.0367   -1.3130 C   0  0  0  0  0  0  0  0  0  0  0  0
    2.3625   -0.2586   -0.7063 O   0  0  0  0  0  0  0  0  0  0  0  0
    0.3331   -1.4728   -3.0467 C   0  0  0  0  0  0  0  0  0  0  0  0
    2.6924    0.3404   -4.1502 H   0  0  0  0  0  0  0  0  0  0  0  0
    0.6550    0.6514   -3.2607 H   0  0  0  0  0  0  0  0  0  0  0  0
    0.8129   -2.3494   -2.5963 H   0  0  0  0  0  0  0  0  0  0  0  0
   -0.6690   -1.3857   -2.6142 H   0  0  0  0  0  0  0  0  0  0  0  0
    0.2259   -1.6670   -4.1194 H   0  0  0  0  0  0  0  0  0  0  0  0
    0.2019    0.5893   -0.7269 N   0  0  0  0  0  0  0  0  0  0  0  0
    0.1242    0.9059    0.6756 C   0  0  2  0  0  0  0  0  0  0  0  0
    1.2845    0.1921    1.3621 C   0  0  0  0  0  0  0  0  0  0  0  0
    2.4433    0.5994    1.3141 O   0  0  0  0  0  0  0  0  0  0  0  0
   -1.2090    0.4693    1.2963 C   0  0  0  0  0  0  0  0  0  0  0  0
   -2.4464    1.2231    0.7678 C   0  0  0  0  0  0  0  0  0  0  0  0
   -3.7182    0.5987    1.3486 C   0  0  0  0  0  0  0  0  0  0  0  0
   -2.5223    1.2198   -0.7596 C   0  0  0  0  0  0  0  0  0  0  0  0
   -0.5975    0.8179   -1.3140 H   0  0  0  0  0  0  0  0  0  0  0  0
    0.2719    1.9866    0.7678 H   0  0  0  0  0  0  0  0  0  0  0  0
   -1.1539    0.6044    2.3857 H   0  0  0  0  0  0  0  0  0  0  0  0
   -1.3496   -0.6079    1.1359 H   0  0  0  0  0  0  0  0  0  0  0  0
   -2.4053    2.2652    1.1077 H   0  0  0  0  0  0  0  0  0  0  0  0
   -3.8134   -0.4481    1.0411 H   0  0  0  0  0  0  0  0  0  0  0  0
   -4.6085    1.1306    0.9969 H   0  0  0  0  0  0  0  0  0  0  0  0
   -3.7136    0.6314    2.4435 H   0  0  0  0  0  0  0  0  0  0  0  0
   -2.5656    0.1985   -1.1528 H   0  0  0  0  0  0  0  0  0  0  0  0
   -3.4151    1.7524   -1.1049 H   0  0  0  0  0  0  0  0  0  0  0  0
   -1.6568    1.7207   -1.2031 H   0  0  0  0  0  0  0  0  0  0  0  0
    0.8622   -0.9219    2.0742 N   0  0  0  0  0  0  0  0  0  0  0  0
    1.7578   -1.7609    2.8376 C   0  0  2  0  0  0  0  0  0  0  0  0
    2.7734   -0.8595    3.5272 C   0  0  0  0  0  0  0  0  0  0  0  0
    3.0446    0.2719    3.1303 O   0  0  0  0  0  0  0  0  0  0  0  0
    2.4518   -2.7816    1.9492 C   0  0  0  0  0  0  0  0  0  0  0  0
   -0.1237   -1.1661    2.0762 H   0  0  0  0  0  0  0  0  0  0  0  0
    1.1482   -2.2695    3.5925 H   0  0  0  0  0  0  0  0  0  0  0  0
    3.0673   -2.2906    1.1866 H   0  0  0  0  0  0  0  0  0  0  0  0
    3.1082   -3.4349    2.5335 H   0  0  0  0  0  0  0  0  0  0  0  0
    1.7190   -3.4096    1.4312 H   0  0  0  0  0  0  0  0  0  0  0  0
    3.3728   -1.4832    4.6124 N   0  0  0  0  0  0  0  0  0  0  0  0
    4.3801   -0.8396    5.4230 C   0  0  0  0  0  0  0  0  0  0  0  0
    3.0728   -2.4157    4.8811 H   0  0  0  0  0  0  0  0  0  0  0  0
    5.3784   -1.0866    5.0328 H   0  0  0  0  0  0  0  0  0  0  0  0
    4.2339    0.2502    5.3925 H   0  0  0  0  0  0  0  0  0  0  0  0
    4.2951   -1.1920    6.4616 H   0  0  0  0  0  0  0  0  0  0  0  0
  1  3  1  0  0  0  0
  1  7  1  0  0  0  0
  1  2  2  0  0  0  0
 37 38  1  0  0  0  0
 38 46  1  0  0  0  0
 38 39  2  0  0  0  0
  8  9  1  0  0  0  0
  9 17  1  0  0  0  0
  9 10  2  0  0  0  0
 18 19  1  0  0  0  0
 19 36  1  0  0  0  0
 19 20  2  0  0  0  0
 37 40  1  0  0  0  0
  8 11  1  0  0  0  0
 22 23  1  0  0  0  0
 22 24  1  0  0  0  0
 46 47  1  0  0  0  0
 18 21  1  0  0  0  0
 21 22  1  0  0  0  0
 36 37  1  0  0  0  0
  7  8  1  0  0  0  0
 17 18  1  0  0  0  0
  3  4  1  0  0  0  0
  3  5  1  0  0  0  0
  3  6  1  0  0  0  0
 40 43  1  0  0  0  0
 40 44  1  0  0  0  0
 40 45  1  0  0  0  0
 11 14  1  0  0  0  0
 11 15  1  0  0  0  0
 11 16  1  0  0  0  0
 23 30  1  0  0  0  0
 23 31  1  0  0  0  0
 23 32  1  0  0  0  0
 24 33  1  0  0  0  0
 24 34  1  0  0  0  0
 24 35  1  0  0  0  0
 47 49  1  0  0  0  0
 47 50  1  0  0  0  0
 47 51  1  0  0  0  0
 21 27  1  0  0  0  0
 21 28  1  0  0  0  0
 37 42  1  0  0  0  0
  8 13  1  0  0  0  0
 18 26  1  0  0  0  0
 22 29  1  0  0  0  0
 46 48  1  0  0  0  0
  7 12  1  0  0  0  0
 36 41  1  0  0  0  0
 17 25  1  0  0  0  0
M  END
$$$$

  -OEChem-05262214473D

 51 50  0     1  0  0  0  0  0999 V2000
    3.4018   -1.2440   -3.0186 C   0  0  0  0  0  0  0  0  0  0  0  0
    3.2697   -2.0909   -2.1427 O   0  0  0  0  0  0  0  0  0  0  0  0
    4.6845   -1.1645   -3.7779 C   0  0  0  0  0  0  0  0  0  0  0  0
    5.4123   -0.4862   -3.3041 H   0  0  0  0  0  0  0  0  0  0  0  0
    5.1949   -2.1387   -3.8443 H   0  0  0  0  0  0  0  0  0  0  0  0
    4.5953   -0.8128   -4.8182 H   0  0  0  0  0  0  0  0  0  0  0  0
    2.4540   -0.3103   -3.4040 N   0  0  0  0  0  0  0  0  0  0  0  0
    1.1494   -0.2128   -2.8039 C   0  0  2  0  0  0  0  0  0  0  0  0
    1.3350    0.0367   -1.3130 C   0  0  0  0  0  0  0  0  0  0  0  0
    2.3625   -0.2586   -0.7063 O   0  0  0  0  0  0  0  0  0  0  0  0
    0.3331   -1.4728   -3.0467 C   0  0  0  0  0  0  0  0  0  0  0  0
    2.6924    0.3404   -4.1502 H   0  0  0  0  0  0  0  0  0  0  0  0
    0.6550    0.6514   -3.2607 H   0  0  0  0  0  0  0  0  0  0  0  0
    0.8129   -2.3494   -2.5963 H   0  0  0  0  0  0  0  0  0  0  0  0
   -0.6690   -1.3857   -2.6142 H   0  0  0  0  0  0  0  0  0  0  0  0
    0.2259   -1.6670   -4.1194 H   0  0  0  0  0  0  0  0  0  0  0  0
    0.2019    0.5893   -0.7269 N   0  0  0  0  0  0  0  0  0  0  0  0
    0.1242    0.9059    0.6756 C   0  0  2  0  0  0  0  0  0  0  0  0
    1.2845    0.1921    1.3621 C   0  0  0  0  0  0  0  0  0  0  0  0
    2.3796    0.7193    1.5465 O   0  0  0  0  0  0  0  0  0  0  0  0
   -1.2090    0.4693    1.2963 C   0  0  0  0  0  0  0  0  0  0  0  0
   -2.4464    1.2231    0.7678 C   0  0  0  0  0  0  0  0  0  0  0  0
   -3.7182    0.5987    1.3486 C   0  0  0  0  0  0  0  0  0  0  0  0
   -2.5223    1.2198   -0.7596 C   0  0  0  0  0  0  0  0  0  0  0  0
   -0.5975    0.8179   -1.3140 H   0  0  0  0  0  0  0  0  0  0  0  0
    0.2719    1.9866    0.7678 H   0  0  0  0  0  0  0  0  0  0  0  0
   -1.1539    0.6044    2.3857 H   0  0  0  0  0  0  0  0  0  0  0  0
   -1.3496   -0.6079    1.1359 H   0  0  0  0  0  0  0  0  0  0  0  0
   -2.4053    2.2652    1.1077 H   0  0  0  0  0  0  0  0  0  0  0  0
   -3.8134   -0.4481    1.0411 H   0  0  0  0  0  0  0  0  0  0  0  0
   -4.6085    1.1306    0.9969 H   0  0  0  0  0  0  0  0  0  0  0  0
   -3.7136    0.6314    2.4435 H   0  0  0  0  0  0  0  0  0  0  0  0
   -2.5656    0.1985   -1.1528 H   0  0  0  0  0  0  0  0  0  0  0  0
   -3.4151    1.7524   -1.1049 H   0  0  0  0  0  0  0  0  0  0  0  0
   -1.6568    1.7207   -1.2031 H   0  0  0  0  0  0  0  0  0  0  0  0
    0.9336   -1.0817    1.7875 N   0  0  0  0  0  0  0  0  0  0  0  0
    1.8407   -1.9606    2.4899 C   0  0  2  0  0  0  0  0  0  0  0  0
    2.6503   -1.1179    3.4665 C   0  0  0  0  0  0  0  0  0  0  0  0
    2.8155    0.0927    3.3311 O   0  0  0  0  0  0  0  0  0  0  0  0
    2.7532   -2.7005    1.5242 C   0  0  0  0  0  0  0  0  0  0  0  0
   -0.0069   -1.4226    1.6122 H   0  0  0  0  0  0  0  0  0  0  0  0
    1.2227   -2.6733    3.0468 H   0  0  0  0  0  0  0  0  0  0  0  0
    3.3802   -2.0027    0.9572 H   0  0  0  0  0  0  0  0  0  0  0  0
    3.4203   -3.3871    2.0558 H   0  0  0  0  0  0  0  0  0  0  0  0
    2.1684   -3.2825    0.8038 H   0  0  0  0  0  0  0  0  0  0  0  0
    3.2025   -1.8839    4.4836 N   0  0  0  0  0  0  0  0  0  0  0  0
    4.0239   -1.3177    5.5280 C   0  0  0  0  0  0  0  0  0  0  0  0
    2.9974   -2.8777    4.5283 H   0  0  0  0  0  0  0  0  0  0  0  0
    5.0824   -1.3743    5.2340 H   0  0  0  0  0  0  0  0  0  0  0  0
    3.7430   -0.2659    5.6856 H   0  0  0  0  0  0  0  0  0  0  0  0
    3.8717   -1.8815    6.4602 H   0  0  0  0  0  0  0  0  0  0  0  0
  1  3  1  0  0  0  0
  1  7  1  0  0  0  0
  1  2  2  0  0  0  0
 37 38  1  0  0  0  0
 38 46  1  0  0  0  0
 38 39  2  0  0  0  0
  8  9  1  0  0  0  0
  9 17  1  0  0  0  0
  9 10  2  0  0  0  0
 18 19  1  0  0  0  0
 19 36  1  0  0  0  0
 19 20  2  0  0  0  0
 37 40  1  0  0  0  0
  8 11  1  0  0  0  0
 22 23  1  0  0  0  0
 22 24  1  0  0  0  0
 46 47  1  0  0  0  0
 18 21  1  0  0  0  0
 21 22  1  0  0  0  0
 36 37  1  0  0  0  0
  7  8  1  0  0  0  0
 17 18  1  0  0  0  0
  3  4  1  0  0  0  0
  3  5  1  0  0  0  0
  3  6  1  0  0  0  0
 40 43  1  0  0  0  0
 40 44  1  0  0  0  0
 40 45  1  0  0  0  0
 11 14  1  0  0  0  0
 11 15  1  0  0  0  0
 11 16  1  0  0  0  0
 23 30  1  0  0  0  0
 23 31  1  0  0  0  0
 23 32  1  0  0  0  0
 24 33  1  0  0  0  0
 24 34  1  0  0  0  0
 24 35  1  0  0  0  0
 47 49  1  0  0  0  0
 47 50  1  0  0  0  0
 47 51  1  0  0  0  0
 21 27  1  0  0  0  0
 21 28  1  0  0  0  0
 37 42  1  0  0  0  0
  8 13  1  0  0  0  0
 18 26  1  0  0  0  0
 22 29  1  0  0  0  0
 46 48  1  0  0  0  0
  7 12  1  0  0  0  0
 36 41  1  0  0  0  0
 17 25  1  0  0  0  0
M  END
$$$$

  -OEChem-05262214473D

 51 50  0     1  0  0  0  0  0999 V2000
    3.4018   -1.2440   -3.0186 C   0  0  0  0  0  0  0  0  0  0  0  0
    3.2697   -2.0909   -2.1427 O   0  0  0  0  0  0  0  0  0  0  0  0
    4.6845   -1.1645   -3.7779 C   0  0  0  0  0  0  0  0  0  0  0  0
    5.4123   -0.4862   -3.3041 H   0  0  0  0  0  0  0  0  0  0  0  0
    5.1949   -2.1387   -3.8443 H   0  0  0  0  0  0  0  0  0  0  0  0
    4.5953   -0.8128   -4.8182 H   0  0  0  0  0  0  0  0  0  0  0  0
    2.4540   -0.3103   -3.4040 N   0  0  0  0  0  0  0  0  0  0  0  0
    1.1494   -0.2128   -2.8039 C   0  0  2  0  0  0  0  0  0  0  0  0
    1.3350    0.0367   -1.3130 C   0  0  0  0  0  0  0  0  0  0  0  0
    2.3625   -0.2586   -0.7063 O   0  0  0  0  0  0  0  0  0  0  0  0
    0.3331   -1.4728   -3.0467 C   0  0  0  0  0  0  0  0  0  0  0  0
    2.6924    0.3404   -4.1502 H   0  0  0  0  0  0  0  0  0  0  0  0
    0.6550    0.6514   -3.2607 H   0  0  0  0  0  0  0  0  0  0  0  0
    0.8129   -2.3494   -2.5963 H   0  0  0  0  0  0  0  0  0  0  0  0
   -0.6690   -1.3857   -2.6142 H   0  0  0  0  0  0  0  0  0  0  0  0
    0.2259   -1.6670   -4.1194 H   0  0  0  0  0  0  0  0  0  0  0  0
    0.2019    0.5893   -0.7269 N   0  0  0  0  0  0  0  0  0  0  0  0
    0.1242    0.9059    0.6756 C   0  0  2  0  0  0  0  0  0  0  0  0
    1.2845    0.1921    1.3621 C   0  0  0  0  0  0  0  0  0  0  0  0
    2.2758    0.7819    1.7869 O   0  0  0  0  0  0  0  0  0  0  0  0
   -1.2090    0.4693    1.2963 C   0  0  0  0  0  0  0  0  0  0  0  0
   -2.4464    1.2231    0.7678 C   0  0  0  0  0  0  0  0  0  0  0  0
   -3.7182    0.5987    1.3486 C   0  0  0  0  0  0  0  0  0  0  0  0
   -2.5223    1.2198   -0.7596 C   0  0  0  0  0  0  0  0  0  0  0  0
   -0.5975    0.8179   -1.3140 H   0  0  0  0  0  0  0  0  0  0  0  0
    0.2719    1.9866    0.7678 H   0  0  0  0  0  0  0  0  0  0  0  0
   -1.1539    0.6044    2.3857 H   0  0  0  0  0  0  0  0  0  0  0  0
   -1.3496   -0.6079    1.1359 H   0  0  0  0  0  0  0  0  0  0  0  0
   -2.4053    2.2652    1.1077 H   0  0  0  0  0  0  0  0  0  0  0  0
   -3.8134   -0.4481    1.0411 H   0  0  0  0  0  0  0  0  0  0  0  0
   -4.6085    1.1306    0.9969 H   0  0  0  0  0  0  0  0  0  0  0  0
   -3.7136    0.6314    2.4435 H   0  0  0  0  0  0  0  0  0  0  0  0
   -2.5656    0.1985   -1.1528 H   0  0  0  0  0  0  0  0  0  0  0  0
   -3.4151    1.7524   -1.1049 H   0  0  0  0  0  0  0  0  0  0  0  0
   -1.6568    1.7207   -1.2031 H   0  0  0  0  0  0  0  0  0  0  0  0
    1.0559   -1.1712    1.4878 N   0  0  0  0  0  0  0  0  0  0  0  0
    1.9861   -2.0754    2.1248 C   0  0  2  0  0  0  0  0  0  0  0  0
    2.5688   -1.3699    3.3422 C   0  0  0  0  0  0  0  0  0  0  0  0
    2.5908   -0.1467    3.4620 O   0  0  0  0  0  0  0  0  0  0  0  0
    3.0863   -2.5033    1.1661 C   0  0  0  0  0  0  0  0  0  0  0  0
    0.1919   -1.5654    1.1276 H   0  0  0  0  0  0  0  0  0  0  0  0
    1.4077   -2.9473    2.4493 H   0  0  0  0  0  0  0  0  0  0  0  0
    3.6766   -1.6430    0.8301 H   0  0  0  0  0  0  0  0  0  0  0  0
    3.7740   -3.2105    1.6416 H   0  0  0  0  0  0  0  0  0  0  0  0
    2.6636   -2.9839    0.2772 H   0  0  0  0  0  0  0  0  0  0  0  0
    3.1003   -2.2654    4.2596 N   0  0  0  0  0  0  0  0  0  0  0  0
    3.7228   -1.8417    5.4921 C   0  0  0  0  0  0  0  0  0  0  0  0
    3.0211   -3.2633    4.0874 H   0  0  0  0  0  0  0  0  0  0  0  0
    4.8055   -1.7263    5.3359 H   0  0  0  0  0  0  0  0  0  0  0  0
    3.2934   -0.8793    5.8076 H   0  0  0  0  0  0  0  0  0  0  0  0
    3.5433   -2.5965    6.2718 H   0  0  0  0  0  0  0  0  0  0  0  0
  1  3  1  0  0  0  0
  1  7  1  0  0  0  0
  1  2  2  0  0  0  0
 37 38  1  0  0  0  0
 38 46  1  0  0  0  0
 38 39  2  0  0  0  0
  8  9  1  0  0  0  0
  9 17  1  0  0  0  0
  9 10  2  0  0  0  0
 18 19  1  0  0  0  0
 19 36  1  0  0  0  0
 19 20  2  0  0  0  0
 37 40  1  0  0  0  0
  8 11  1  0  0  0  0
 22 23  1  0  0  0  0
 22 24  1  0  0  0  0
 46 47  1  0  0  0  0
 18 21  1  0  0  0  0
 21 22  1  0  0  0  0
 36 37  1  0  0  0  0
  7  8  1  0  0  0  0
 17 18  1  0  0  0  0
  3  4  1  0  0  0  0
  3  5  1  0  0  0  0
  3  6  1  0  0  0  0
 40 43  1  0  0  0  0
 40 44  1  0  0  0  0
 40 45  1  0  0  0  0
 11 14  1  0  0  0  0
 11 15  1  0  0  0  0
 11 16  1  0  0  0  0
 23 30  1  0  0  0  0
 23 31  1  0  0  0  0
 23 32  1  0  0  0  0
 24 33  1  0  0  0  0
 24 34  1  0  0  0  0
 24 35  1  0  0  0  0
 47 49  1  0  0  0  0
 47 50  1  0  0  0  0
 47 51  1  0  0  0  0
 21 27  1  0  0  0  0
 21 28  1  0  0  0  0
 37 42  1  0  0  0  0
  8 13  1  0  0  0  0
 18 26  1  0  0  0  0
 22 29  1  0  0  0  0
 46 48  1  0  0  0  0
  7 12  1  0  0  0  0
 36 41  1  0  0  0  0
 17 25  1  0  0  0  0
M  END
$$$$

  -OEChem-05262214473D

 51 50  0     1  0  0  0  0  0999 V2000
    3.4018   -1.2440   -3.0186 C   0  0  0  0  0  0  0  0  0  0  0  0
    3.2697   -2.0909   -2.1427 O   0  0  0  0  0  0  0  0  0  0  0  0
    4.6845   -1.1645   -3.7779 C   0  0  0  0  0  0  0  0  0  0  0  0
    5.4123   -0.4862   -3.3041 H   0  0  0  0  0  0  0  0  0  0  0  0
    5.1949   -2.1387   -3.8443 H   0  0  0  0  0  0  0  0  0  0  0  0
    4.5953   -0.8128   -4.8182 H   0  0  0  0  0  0  0  0  0  0  0  0
    2.4540   -0.3103   -3.4040 N   0  0  0  0  0  0  0  0  0  0  0  0
    1.1494   -0.2128   -2.8039 C   0  0  2  0  0  0  0  0  0  0  0  0
    1.3350    0.0367   -1.3130 C   0  0  0  0  0  0  0  0  0  0  0  0
    2.3625   -0.2586   -0.7063 O   0  0  0  0  0  0  0  0  0  0  0  0
    0.3331   -1.4728   -3.0467 C   0  0  0  0  0  0  0  0  0  0  0  0
    2.6924    0.3404   -4.1502 H   0  0  0  0  0  0  0  0  0  0  0  0
    0.6550    0.6514   -3.2607 H   0  0  0  0  0  0  0  0  0  0  0  0
    0.8129   -2.3494   -2.5963 H   0  0  0  0  0  0  0  0  0  0  0  0
   -0.6690   -1.3857   -2.6142 H   0  0  0  0  0  0  0  0  0  0  0  0
    0.2259   -1.6670   -4.1194 H   0  0  0  0  0  0  0  0  0  0  0  0
    0.2019    0.5893   -0.7269 N   0  0  0  0  0  0  0  0  0  0  0  0
    0.1242    0.9059    0.6756 C   0  0  2  0  0  0  0  0  0  0  0  0
    1.2845    0.1921    1.3621 C   0  0  0  0  0  0  0  0  0  0  0  0
    2.1393    0.7830    2.0189 O   0  0  0  0  0  0  0  0  0  0  0  0
   -1.2090    0.4693    1.2963 C   0  0  0  0  0  0  0  0  0  0  0  0
   -2.4464    1.2231    0.7678 C   0  0  0  0  0  0  0  0  0  0  0  0
   -3.7182    0.5987    1.3486 C   0  0  0  0  0  0  0  0  0  0  0  0
   -2.5223    1.2198   -0.7596 C   0  0  0  0  0  0  0  0  0  0  0  0
   -0.5975    0.8179   -1.3140 H   0  0  0  0  0  0  0  0  0  0  0  0
    0.2719    1.9866    0.7678 H   0  0  0  0  0  0  0  0  0  0  0  0
   -1.1539    0.6044    2.3857 H   0  0  0  0  0  0  0  0  0  0  0  0
   -1.3496   -0.6079    1.1359 H   0  0  0  0  0  0  0  0  0  0  0  0
   -2.4053    2.2652    1.1077 H   0  0  0  0  0  0  0  0  0  0  0  0
   -3.8134   -0.4481    1.0411 H   0  0  0  0  0  0  0  0  0  0  0  0
   -4.6085    1.1306    0.9969 H   0  0  0  0  0  0  0  0  0  0  0  0
   -3.7136    0.6314    2.4435 H   0  0  0  0  0  0  0  0  0  0  0  0
   -2.5656    0.1985   -1.1528 H   0  0  0  0  0  0  0  0  0  0  0  0
   -3.4151    1.7524   -1.1049 H   0  0  0  0  0  0  0  0  0  0  0  0
   -1.6568    1.7207   -1.2031 H   0  0  0  0  0  0  0  0  0  0  0  0
    1.2207   -1.1844    1.1954 N   0  0  0  0  0  0  0  0  0  0  0  0
    2.1841   -2.0975    1.7671 C   0  0  2  0  0  0  0  0  0  0  0  0
    2.5345   -1.5983    3.1627 C   0  0  0  0  0  0  0  0  0  0  0  0
    2.3858   -0.4298    3.5141 O   0  0  0  0  0  0  0  0  0  0  0  0
    3.4285   -2.2036    0.8994 C   0  0  0  0  0  0  0  0  0  0  0  0
    0.4593   -1.5848    0.6556 H   0  0  0  0  0  0  0  0  0  0  0  0
    1.6906   -3.0727    1.8406 H   0  0  0  0  0  0  0  0  0  0  0  0
    3.9365   -1.2360    0.8141 H   0  0  0  0  0  0  0  0  0  0  0  0
    4.1452   -2.9172    1.3191 H   0  0  0  0  0  0  0  0  0  0  0  0
    3.1710   -2.5341   -0.1126 H   0  0  0  0  0  0  0  0  0  0  0  0
    3.0732   -2.6018    3.9558 N   0  0  0  0  0  0  0  0  0  0  0  0
    3.4973   -2.3758    5.3178 C   0  0  0  0  0  0  0  0  0  0  0  0
    3.1422   -3.5462    3.5884 H   0  0  0  0  0  0  0  0  0  0  0  0
    4.5667   -2.1187    5.3316 H   0  0  0  0  0  0  0  0  0  0  0  0
    2.9158   -1.5482    5.7503 H   0  0  0  0  0  0  0  0  0  0  0  0
    3.3321   -3.2884    5.9094 H   0  0  0  0  0  0  0  0  0  0  0  0
  1  3  1  0  0  0  0
  1  7  1  0  0  0  0
  1  2  2  0  0  0  0
 37 38  1  0  0  0  0
 38 46  1  0  0  0  0
 38 39  2  0  0  0  0
  8  9  1  0  0  0  0
  9 17  1  0  0  0  0
  9 10  2  0  0  0  0
 18 19  1  0  0  0  0
 19 36  1  0  0  0  0
 19 20  2  0  0  0  0
 37 40  1  0  0  0  0
  8 11  1  0  0  0  0
 22 23  1  0  0  0  0
 22 24  1  0  0  0  0
 46 47  1  0  0  0  0
 18 21  1  0  0  0  0
 21 22  1  0  0  0  0
 36 37  1  0  0  0  0
  7  8  1  0  0  0  0
 17 18  1  0  0  0  0
  3  4  1  0  0  0  0
  3  5  1  0  0  0  0
  3  6  1  0  0  0  0
 40 43  1  0  0  0  0
 40 44  1  0  0  0  0
 40 45  1  0  0  0  0
 11 14  1  0  0  0  0
 11 15  1  0  0  0  0
 11 16  1  0  0  0  0
 23 30  1  0  0  0  0
 23 31  1  0  0  0  0
 23 32  1  0  0  0  0
 24 33  1  0  0  0  0
 24 34  1  0  0  0  0
 24 35  1  0  0  0  0
 47 49  1  0  0  0  0
 47 50  1  0  0  0  0
 47 51  1  0  0  0  0
 21 27  1  0  0  0  0
 21 28  1  0  0  0  0
 37 42  1  0  0  0  0
  8 13  1  0  0  0  0
 18 26  1  0  0  0  0
 22 29  1  0  0  0  0
 46 48  1  0  0  0  0
  7 12  1  0  0  0  0
 36 41  1  0  0  0  0
 17 25  1  0  0  0  0
M  END
$$$$

  -OEChem-05262214473D

 51 50  0     1  0  0  0  0  0999 V2000
    3.4018   -1.2440   -3.0186 C   0  0  0  0  0  0  0  0  0  0  0  0
    3.2697   -2.0909   -2.1427 O   0  0  0  0  0  0  0  0  0  0  0  0
    4.6845   -1.1645   -3.7779 C   0  0  0  0  0  0  0  0  0  0  0  0
    5.4123   -0.4862   -3.3041 H   0  0  0  0  0  0  0  0  0  0  0  0
    5.1949   -2.1387   -3.8443 H   0  0  0  0  0  0  0  0  0  0  0  0
    4.5953   -0.8128   -4.8182 H   0  0  0  0  0  0  0  0  0  0  0  0
    2.4540   -0.3103   -3.4040 N   0  0  0  0  0  0  0  0  0  0  0  0
    1.1494   -0.2128   -2.8039 C   0  0  2  0  0  0  0  0  0  0  0  0
    1.3350    0.0367   -1.3130 C   0  0  0  0  0  0  0  0  0  0  0  0
    2.3625   -0.2586   -0.7063 O   0  0  0  0  0  0  0  0  0  0  0  0
    0.3331   -1.4728   -3.0467 C   0  0  0  0  0  0  0  0  0  0  0  0
    2.6924    0.3404   -4.1502 H   0  0  0  0  0  0  0  0  0  0  0  0
    0.6550    0.6514   -3.2607 H   0  0  0  0  0  0  0  0  0  0  0  0
    0.8129   -2.3494   -2.5963 H   0  0  0  0  0  0  0  0  0  0  0  0
   -0.6690   -1.3857   -2.6142 H   0  0  0  0  0  0  0  0  0  0  0  0
    0.2259   -1.6670   -4.1194 H   0  0  0  0  0  0  0  0  0  0  0  0
    0.2019    0.5893   -0.7269 N   0  0  0  0  0  0  0  0  0  0  0  0
    0.1242    0.9059    0.6756 C   0  0  2  0  0  0  0  0  0  0  0  0
    1.2845    0.1921    1.3621 C   0  0  0  0  0  0  0  0  0  0  0  0
    1.9791    0.7225    2.2266 O   0  0  0  0  0  0  0  0  0  0  0  0
   -1.2090    0.4693    1.2963 C   0  0  0  0  0  0  0  0  0  0  0  0
   -2.4464    1.2231    0.7678 C   0  0  0  0  0  0  0  0  0  0  0  0
   -3.7182    0.5987    1.3486 C   0  0  0  0  0  0  0  0  0  0  0  0
   -2.5223    1.2198   -0.7596 C   0  0  0  0  0  0  0  0  0  0  0  0
   -0.5975    0.8179   -1.3140 H   0  0  0  0  0  0  0  0  0  0  0  0
    0.2719    1.9866    0.7678 H   0  0  0  0  0  0  0  0  0  0  0  0
   -1.1539    0.6044    2.3857 H   0  0  0  0  0  0  0  0  0  0  0  0
   -1.3496   -0.6079    1.1359 H   0  0  0  0  0  0  0  0  0  0  0  0
   -2.4053    2.2652    1.1077 H   0  0  0  0  0  0  0  0  0  0  0  0
   -3.8134   -0.4481    1.0411 H   0  0  0  0  0  0  0  0  0  0  0  0
   -4.6085    1.1306    0.9969 H   0  0  0  0  0  0  0  0  0  0  0  0
   -3.7136    0.6314    2.4435 H   0  0  0  0  0  0  0  0  0  0  0  0
   -2.5656    0.1985   -1.1528 H   0  0  0  0  0  0  0  0  0  0  0  0
   -3.4151    1.7524   -1.1049 H   0  0  0  0  0  0  0  0  0  0  0  0
   -1.6568    1.7207   -1.2031 H   0  0  0  0  0  0  0  0  0  0  0  0
    1.4169   -1.1204    0.9304 N   0  0  0  0  0  0  0  0  0  0  0  0
    2.4213   -2.0253    1.4412 C   0  0  2  0  0  0  0  0  0  0  0  0
    2.5498   -1.7876    2.9401 C   0  0  0  0  0  0  0  0  0  0  0  0
    2.2144   -0.7374    3.4839 O   0  0  0  0  0  0  0  0  0  0  0  0
    3.7565   -1.8217    0.7422 C   0  0  0  0  0  0  0  0  0  0  0  0
    0.7769   -1.4795    0.2281 H   0  0  0  0  0  0  0  0  0  0  0  0
    2.0523   -3.0411    1.2623 H   0  0  0  0  0  0  0  0  0  0  0  0
    4.1420   -0.8095    0.9102 H   0  0  0  0  0  0  0  0  0  0  0  0
    4.5087   -2.5272    1.1103 H   0  0  0  0  0  0  0  0  0  0  0  0
    3.6559   -1.9638   -0.3392 H   0  0  0  0  0  0  0  0  0  0  0  0
    3.1229   -2.8700    3.5929 N   0  0  0  0  0  0  0  0  0  0  0  0
    3.3628   -2.8837    5.0171 C   0  0  0  0  0  0  0  0  0  0  0  0
    3.3526   -3.7071    3.0655 H   0  0  0  0  0  0  0  0  0  0  0  0
    4.3823   -2.5246    5.2212 H   0  0  0  0  0  0  0  0  0  0  0  0
    2.6359   -2.2271    5.5175 H   0  0  0  0  0  0  0  0  0  0  0  0
    3.2526   -3.9099    5.3975 H   0  0  0  0  0  0  0  0  0  0  0  0
  1  3  1  0  0  0  0
  1  7  1  0  0  0  0
  1  2  2  0  0  0  0
 37 38  1  0  0  0  0
 38 46  1  0  0  0  0
 38 39  2  0  0  0  0
  8  9  1  0  0  0  0
  9 17  1  0  0  0  0
  9 10  2  0  0  0  0
 18 19  1  0  0  0  0
 19 36  1  0  0  0  0
 19 20  2  0  0  0  0
 37 40  1  0  0  0  0
  8 11  1  0  0  0  0
 22 23  1  0  0  0  0
 22 24  1  0  0  0  0
 46 47  1  0  0  0  0
 18 21  1  0  0  0  0
 21 22  1  0  0  0  0
 36 37  1  0  0  0  0
  7  8  1  0  0  0  0
 17 18  1  0  0  0  0
  3  4  1  0  0  0  0
  3  5  1  0  0  0  0
  3  6  1  0  0  0  0
 40 43  1  0  0  0  0
 40 44  1  0  0  0  0
 40 45  1  0  0  0  0
 11 14  1  0  0  0  0
 11 15  1  0  0  0  0
 11 16  1  0  0  0  0
 23 30  1  0  0  0  0
 23 31  1  0  0  0  0
 23 32  1  0  0  0  0
 24 33  1  0  0  0  0
 24 34  1  0  0  0  0
 24 35  1  0  0  0  0
 47 49  1  0  0  0  0
 47 50  1  0  0  0  0
 47 51  1  0  0  0  0
 21 27  1  0  0  0  0
 21 28  1  0  0  0  0
 37 42  1  0  0  0  0
  8 13  1  0  0  0  0
 18 26  1  0  0  0  0
 22 29  1  0  0  0  0
 46 48  1  0  0  0  0
  7 12  1  0  0  0  0
 36 41  1  0  0  0  0
 17 25  1  0  0  0  0
M  END
$$$$

  -OEChem-05262214473D

 51 50  0     1  0  0  0  0  0999 V2000
    3.4018   -1.2440   -3.0186 C   0  0  0  0  0  0  0  0  0  0  0  0
    3.2697   -2.0909   -2.1427 O   0  0  0  0  0  0  0  0  0  0  0  0
    4.6845   -1.1645   -3.7779 C   0  0  0  0  0  0  0  0  0  0  0  0
    5.4123   -0.4862   -3.3041 H   0  0  0  0  0  0  0  0  0  0  0  0
    5.1949   -2.1387   -3.8443 H   0  0  0  0  0  0  0  0  0  0  0  0
    4.5953   -0.8128   -4.8182 H   0  0  0  0  0  0  0  0  0  0  0  0
    2.4540   -0.3103   -3.4040 N   0  0  0  0  0  0  0  0  0  0  0  0
    1.1494   -0.2128   -2.8039 C   0  0  2  0  0  0  0  0  0  0  0  0
    1.3350    0.0367   -1.3130 C   0  0  0  0  0  0  0  0  0  0  0  0
    2.3625   -0.2586   -0.7063 O   0  0  0  0  0  0  0  0  0  0  0  0
    0.3331   -1.4728   -3.0467 C   0  0  0  0  0  0  0  0  0  0  0  0
    2.6924    0.3404   -4.1502 H   0  0  0  0  0  0  0  0  0  0  0  0
    0.6550    0.6514   -3.2607 H   0  0  0  0  0  0  0  0  0  0  0  0
    0.8129   -2.3494   -2.5963 H   0  0  0  0  0  0  0  0  0  0  0  0
   -0.6690   -1.3857   -2.6142 H   0  0  0  0  0  0  0  0  0  0  0  0
    0.2259   -1.6670   -4.1194 H   0  0  0  0  0  0  0  0  0  0  0  0
    0.2019    0.5893   -0.7269 N   0  0  0  0  0  0  0  0  0  0  0  0
    0.1242    0.9059    0.6756 C   0  0  2  0  0  0  0  0  0  0  0  0
    1.2845    0.1921    1.3621 C   0  0  0  0  0  0  0  0  0  0  0  0
    1.8063    0.6044    2.3959 O   0  0  0  0  0  0  0  0  0  0  0  0
   -1.2090    0.4693    1.2963 C   0  0  0  0  0  0  0  0  0  0  0  0
   -2.4464    1.2231    0.7678 C   0  0  0  0  0  0  0  0  0  0  0  0
   -3.7182    0.5987    1.3486 C   0  0  0  0  0  0  0  0  0  0  0  0
   -2.5223    1.2198   -0.7596 C   0  0  0  0  0  0  0  0  0  0  0  0
   -0.5975    0.8179   -1.3140 H   0  0  0  0  0  0  0  0  0  0  0  0
    0.2719    1.9866    0.7678 H   0  0  0  0  0  0  0  0  0  0  0  0
   -1.1539    0.6044    2.3857 H   0  0  0  0  0  0  0  0  0  0  0  0
   -1.3496   -0.6079    1.1359 H   0  0  0  0  0  0  0  0  0  0  0  0
   -2.4053    2.2652    1.1077 H   0  0  0  0  0  0  0  0  0  0  0  0
   -3.8134   -0.4481    1.0411 H   0  0  0  0  0  0  0  0  0  0  0  0
   -4.6085    1.1306    0.9969 H   0  0  0  0  0  0  0  0  0  0  0  0
   -3.7136    0.6314    2.4435 H   0  0  0  0  0  0  0  0  0  0  0  0
   -2.5656    0.1985   -1.1528 H   0  0  0  0  0  0  0  0  0  0  0  0
   -3.4151    1.7524   -1.1049 H   0  0  0  0  0  0  0  0  0  0  0  0
   -1.6568    1.7207   -1.2031 H   0  0  0  0  0  0  0  0  0  0  0  0
    1.6310   -0.9836    0.7107 N   0  0  0  0  0  0  0  0  0  0  0  0
    2.6815   -1.8638    1.1694 C   0  0  2  0  0  0  0  0  0  0  0  0
    2.6135   -1.9249    2.6897 C   0  0  0  0  0  0  0  0  0  0  0  0
    2.0884   -1.0486    3.3734 O   0  0  0  0  0  0  0  0  0  0  0  0
    4.0478   -1.3837    0.7053 C   0  0  0  0  0  0  0  0  0  0  0  0
    1.1233   -1.2566   -0.1255 H   0  0  0  0  0  0  0  0  0  0  0  0
    2.4680   -2.8545    0.7536 H   0  0  0  0  0  0  0  0  0  0  0  0
    4.2793   -0.3924    1.1119 H   0  0  0  0  0  0  0  0  0  0  0  0
    4.8396   -2.0670    1.0294 H   0  0  0  0  0  0  0  0  0  0  0  0
    4.0852   -1.3119   -0.3871 H   0  0  0  0  0  0  0  0  0  0  0  0
    3.2461   -3.0518    3.1955 N   0  0  0  0  0  0  0  0  0  0  0  0
    3.3285   -3.3307    4.6103 C   0  0  0  0  0  0  0  0  0  0  0  0
    3.6380   -3.7351    2.5542 H   0  0  0  0  0  0  0  0  0  0  0  0
    4.2648   -2.9164    5.0123 H   0  0  0  0  0  0  0  0  0  0  0  0
    2.4728   -2.8695    5.1252 H   0  0  0  0  0  0  0  0  0  0  0  0
    3.3102   -4.4187    4.7710 H   0  0  0  0  0  0  0  0  0  0  0  0
  1  3  1  0  0  0  0
  1  7  1  0  0  0  0
  1  2  2  0  0  0  0
 37 38  1  0  0  0  0
 38 46  1  0  0  0  0
 38 39  2  0  0  0  0
  8  9  1  0  0  0  0
  9 17  1  0  0  0  0
  9 10  2  0  0  0  0
 18 19  1  0  0  0  0
 19 36  1  0  0  0  0
 19 20  2  0  0  0  0
 37 40  1  0  0  0  0
  8 11  1  0  0  0  0
 22 23  1  0  0  0  0
 22 24  1  0  0  0  0
 46 47  1  0  0  0  0
 18 21  1  0  0  0  0
 21 22  1  0  0  0  0
 36 37  1  0  0  0  0
  7  8  1  0  0  0  0
 17 18  1  0  0  0  0
  3  4  1  0  0  0  0
  3  5  1  0  0  0  0
  3  6  1  0  0  0  0
 40 43  1  0  0  0  0
 40 44  1  0  0  0  0
 40 45  1  0  0  0  0
 11 14  1  0  0  0  0
 11 15  1  0  0  0  0
 11 16  1  0  0  0  0
 23 30  1  0  0  0  0
 23 31  1  0  0  0  0
 23 32  1  0  0  0  0
 24 33  1  0  0  0  0
 24 34  1  0  0  0  0
 24 35  1  0  0  0  0
 47 49  1  0  0  0  0
 47 50  1  0  0  0  0
 47 51  1  0  0  0  0
 21 27  1  0  0  0  0
 21 28  1  0  0  0  0
 37 42  1  0  0  0  0
  8 13  1  0  0  0  0
 18 26  1  0  0  0  0
 22 29  1  0  0  0  0
 46 48  1  0  0  0  0
  7 12  1  0  0  0  0
 36 41  1  0  0  0  0
 17 25  1  0  0  0  0
M  END
$$$$

  -OEChem-05262214473D

 51 50  0     1  0  0  0  0  0999 V2000
    3.4018   -1.2440   -3.0186 C   0  0  0  0  0  0  0  0  0  0  0  0
    3.2697   -2.0909   -2.1427 O   0  0  0  0  0  0  0  0  0  0  0  0
    4.6845   -1.1645   -3.7779 C   0  0  0  0  0  0  0  0  0  0  0  0
    5.4123   -0.4862   -3.3041 H   0  0  0  0  0  0  0  0  0  0  0  0
    5.1949   -2.1387   -3.8443 H   0  0  0  0  0  0  0  0  0  0  0  0
    4.5953   -0.8128   -4.8182 H   0  0  0  0  0  0  0  0  0  0  0  0
    2.4540   -0.3103   -3.4040 N   0  0  0  0  0  0  0  0  0  0  0  0
    1.1494   -0.2128   -2.8039 C   0  0  2  0  0  0  0  0  0  0  0  0
    1.3350    0.0367   -1.3130 C   0  0  0  0  0  0  0  0  0  0  0  0
    2.3625   -0.2586   -0.7063 O   0  0  0  0  0  0  0  0  0  0  0  0
    0.3331   -1.4728   -3.0467 C   0  0  0  0  0  0  0  0  0  0  0  0
    2.6924    0.3404   -4.1502 H   0  0  0  0  0  0  0  0  0  0  0  0
    0.6550    0.6514   -3.2607 H   0  0  0  0  0  0  0  0  0  0  0  0
    0.8129   -2.3494   -2.5963 H   0  0  0  0  0  0  0  0  0  0  0  0
   -0.6690   -1.3857   -2.6142 H   0  0  0  0  0  0  0  0  0  0  0  0
    0.2259   -1.6670   -4.1194 H   0  0  0  0  0  0  0  0  0  0  0  0
    0.2019    0.5893   -0.7269 N   0  0  0  0  0  0  0  0  0  0  0  0
    0.1242    0.9059    0.6756 C   0  0  2  0  0  0  0  0  0  0  0  0
    1.2845    0.1921    1.3621 C   0  0  0  0  0  0  0  0  0  0  0  0
    1.6326    0.4370    2.5153 O   0  0  0  0  0  0  0  0  0  0  0  0
   -1.2090    0.4693    1.2963 C   0  0  0  0  0  0  0  0  0  0  0  0
   -2.4464    1.2231    0.7678 C   0  0  0  0  0  0  0  0  0  0  0  0
   -3.7182    0.5987    1.3486 C   0  0  0  0  0  0  0  0  0  0  0  0
   -2.5223    1.2198   -0.7596 C   0  0  0  0  0  0  0  0  0  0  0  0
   -0.5975    0.8179   -1.3140 H   0  0  0  0  0  0  0  0  0  0  0  0
    0.2719    1.9866    0.7678 H   0  0  0  0  0  0  0  0  0  0  0  0
   -1.1539    0.6044    2.3857 H   0  0  0  0  0  0  0  0  0  0  0  0
   -1.3496   -0.6079    1.1359 H   0  0  0  0  0  0  0  0  0  0  0  0
   -2.4053    2.2652    1.1077 H   0  0  0  0  0  0  0  0  0  0  0  0
   -3.8134   -0.4481    1.0411 H   0  0  0  0  0  0  0  0  0  0  0  0
   -4.6085    1.1306    0.9969 H   0  0  0  0  0  0  0  0  0  0  0  0
   -3.7136    0.6314    2.4435 H   0  0  0  0  0  0  0  0  0  0  0  0
   -2.5656    0.1985   -1.1528 H   0  0  0  0  0  0  0  0  0  0  0  0
   -3.4151    1.7524   -1.1049 H   0  0  0  0  0  0  0  0  0  0  0  0
   -1.6568    1.7207   -1.2031 H   0  0  0  0  0  0  0  0  0  0  0  0
    1.8485   -0.7832    0.5514 N   0  0  0  0  0  0  0  0  0  0  0  0
    2.9469   -1.6240    0.9702 C   0  0  2  0  0  0  0  0  0  0  0  0
    2.7213   -2.0007    2.4285 C   0  0  0  0  0  0  0  0  0  0  0  0
    2.0163   -1.3420    3.1901 O   0  0  0  0  0  0  0  0  0  0  0  0
    4.2826   -0.9194    0.7911 C   0  0  0  0  0  0  0  0  0  0  0  0
    1.4747   -0.9313   -0.3813 H   0  0  0  0  0  0  0  0  0  0  0  0
    2.9094   -2.5258    0.3494 H   0  0  0  0  0  0  0  0  0  0  0  0
    4.3388   -0.0133    1.4054 H   0  0  0  0  0  0  0  0  0  0  0  0
    5.1155   -1.5680    1.0819 H   0  0  0  0  0  0  0  0  0  0  0  0
    4.4299   -0.6227   -0.2530 H   0  0  0  0  0  0  0  0  0  0  0  0
    3.4345   -3.1349    2.7908 N   0  0  0  0  0  0  0  0  0  0  0  0
    3.3967   -3.6864    4.1252 C   0  0  0  0  0  0  0  0  0  0  0  0
    3.9787   -3.6282    2.0893 H   0  0  0  0  0  0  0  0  0  0  0  0
    4.2223   -3.2675    4.7192 H   0  0  0  0  0  0  0  0  0  0  0  0
    2.4376   -3.4319    4.5999 H   0  0  0  0  0  0  0  0  0  0  0  0
    3.5010   -4.7802    4.0728 H   0  0  0  0  0  0  0  0  0  0  0  0
  1  3  1  0  0  0  0
  1  7  1  0  0  0  0
  1  2  2  0  0  0  0
 37 38  1  0  0  0  0
 38 46  1  0  0  0  0
 38 39  2  0  0  0  0
  8  9  1  0  0  0  0
  9 17  1  0  0  0  0
  9 10  2  0  0  0  0
 18 19  1  0  0  0  0
 19 36  1  0  0  0  0
 19 20  2  0  0  0  0
 37 40  1  0  0  0  0
  8 11  1  0  0  0  0
 22 23  1  0  0  0  0
 22 24  1  0  0  0  0
 46 47  1  0  0  0  0
 18 21  1  0  0  0  0
 21 22  1  0  0  0  0
 36 37  1  0  0  0  0
  7  8  1  0  0  0  0
 17 18  1  0  0  0  0
  3  4  1  0  0  0  0
  3  5  1  0  0  0  0
  3  6  1  0  0  0  0
 40 43  1  0  0  0  0
 40 44  1  0  0  0  0
 40 45  1  0  0  0  0
 11 14  1  0  0  0  0
 11 15  1  0  0  0  0
 11 16  1  0  0  0  0
 23 30  1  0  0  0  0
 23 31  1  0  0  0  0
 23 32  1  0  0  0  0
 24 33  1  0  0  0  0
 24 34  1  0  0  0  0
 24 35  1  0  0  0  0
 47 49  1  0  0  0  0
 47 50  1  0  0  0  0
 47 51  1  0  0  0  0
 21 27  1  0  0  0  0
 21 28  1  0  0  0  0
 37 42  1  0  0  0  0
  8 13  1  0  0  0  0
 18 26  1  0  0  0  0
 22 29  1  0  0  0  0
 46 48  1  0  0  0  0
  7 12  1  0  0  0  0
 36 41  1  0  0  0  0
 17 25  1  0  0  0  0
M  END
$$$$

  -OEChem-05262214473D

 51 50  0     1  0  0  0  0  0999 V2000
    3.4018   -1.2440   -3.0186 C   0  0  0  0  0  0  0  0  0  0  0  0
    3.2697   -2.0909   -2.1427 O   0  0  0  0  0  0  0  0  0  0  0  0
    4.6845   -1.1645   -3.7779 C   0  0  0  0  0  0  0  0  0  0  0  0
    5.4123   -0.4862   -3.3041 H   0  0  0  0  0  0  0  0  0  0  0  0
    5.1949   -2.1387   -3.8443 H   0  0  0  0  0  0  0  0  0  0  0  0
    4.5953   -0.8128   -4.8182 H   0  0  0  0  0  0  0  0  0  0  0  0
    2.4540   -0.3103   -3.4040 N   0  0  0  0  0  0  0  0  0  0  0  0
    1.1494   -0.2128   -2.8039 C   0  0  2  0  0  0  0  0  0  0  0  0
    1.3350    0.0367   -1.3130 C   0  0  0  0  0  0  0  0  0  0  0  0
    2.3625   -0.2586   -0.7063 O   0  0  0  0  0  0  0  0  0  0  0  0
    0.3331   -1.4728   -3.0467 C   0  0  0  0  0  0  0  0  0  0  0  0
    2.6924    0.3404   -4.1502 H   0  0  0  0  0  0  0  0  0  0  0  0
    0.6550    0.6514   -3.2607 H   0  0  0  0  0  0  0  0  0  0  0  0
    0.8129   -2.3494   -2.5963 H   0  0  0  0  0  0  0  0  0  0  0  0
   -0.6690   -1.3857   -2.6142 H   0  0  0  0  0  0  0  0  0  0  0  0
    0.2259   -1.6670   -4.1194 H   0  0  0  0  0  0  0  0  0  0  0  0
    0.2019    0.5893   -0.7269 N   0  0  0  0  0  0  0  0  0  0  0  0
    0.1242    0.9059    0.6756 C   0  0  2  0  0  0  0  0  0  0  0  0
    1.2845    0.1921    1.3621 C   0  0  0  0  0  0  0  0  0  0  0  0
    1.4699    0.2315    2.5767 O   0  0  0  0  0  0  0  0  0  0  0  0
   -1.2090    0.4693    1.2963 C   0  0  0  0  0  0  0  0  0  0  0  0
   -2.4464    1.2231    0.7678 C   0  0  0  0  0  0  0  0  0  0  0  0
   -3.7182    0.5987    1.3486 C   0  0  0  0  0  0  0  0  0  0  0  0
   -2.5223    1.2198   -0.7596 C   0  0  0  0  0  0  0  0  0  0  0  0
   -0.5975    0.8179   -1.3140 H   0  0  0  0  0  0  0  0  0  0  0  0
    0.2719    1.9866    0.7678 H   0  0  0  0  0  0  0  0  0  0  0  0
   -1.1539    0.6044    2.3857 H   0  0  0  0  0  0  0  0  0  0  0  0
   -1.3496   -0.6079    1.1359 H   0  0  0  0  0  0  0  0  0  0  0  0
   -2.4053    2.2652    1.1077 H   0  0  0  0  0  0  0  0  0  0  0  0
   -3.8134   -0.4481    1.0411 H   0  0  0  0  0  0  0  0  0  0  0  0
   -4.6085    1.1306    0.9969 H   0  0  0  0  0  0  0  0  0  0  0  0
   -3.7136    0.6314    2.4435 H   0  0  0  0  0  0  0  0  0  0  0  0
   -2.5656    0.1985   -1.1528 H   0  0  0  0  0  0  0  0  0  0  0  0
   -3.4151    1.7524   -1.1049 H   0  0  0  0  0  0  0  0  0  0  0  0
   -1.6568    1.7207   -1.2031 H   0  0  0  0  0  0  0  0  0  0  0  0
    2.0546   -0.5330    0.4633 N   0  0  0  0  0  0  0  0  0  0  0  0
    3.1995   -1.3223    0.8571 C   0  0  2  0  0  0  0  0  0  0  0  0
    2.8660   -2.0100    2.1743 C   0  0  0  0  0  0  0  0  0  0  0  0
    2.0030   -1.5978    2.9466 O   0  0  0  0  0  0  0  0  0  0  0  0
    4.4450   -0.4605    0.9939 C   0  0  0  0  0  0  0  0  0  0  0  0
    1.8073   -0.5259   -0.5217 H   0  0  0  0  0  0  0  0  0  0  0  0
    3.3464   -2.0773    0.0771 H   0  0  0  0  0  0  0  0  0  0  0  0
    4.3166    0.3020    1.7708 H   0  0  0  0  0  0  0  0  0  0  0  0
    5.3175   -1.0643    1.2643 H   0  0  0  0  0  0  0  0  0  0  0  0
    4.6662    0.0567    0.0540 H   0  0  0  0  0  0  0  0  0  0  0  0
    3.6751   -3.1135    2.4064 N   0  0  0  0  0  0  0  0  0  0  0  0
    3.5627   -3.9265    3.5948 C   0  0  0  0  0  0  0  0  0  0  0  0
    4.3517   -3.3938    1.7026 H   0  0  0  0  0  0  0  0  0  0  0  0
    4.2576   -3.5538    4.3618 H   0  0  0  0  0  0  0  0  0  0  0  0
    2.5327   -3.8757    3.9776 H   0  0  0  0  0  0  0  0  0  0  0  0
    3.8119   -4.9696    3.3502 H   0  0  0  0  0  0  0  0  0  0  0  0
  1  3  1  0  0  0  0
  1  7  1  0  0  0  0
  1  2  2  0  0  0  0
 37 38  1  0  0  0  0
 38 46  1  0  0  0  0
 38 39  2  0  0  0  0
  8  9  1  0  0  0  0
  9 17  1  0  0  0  0
  9 10  2  0  0  0  0
 18 19  1  0  0  0  0
 19 36  1  0  0  0  0
 19 20  2  0  0  0  0
 37 40  1  0  0  0  0
  8 11  1  0  0  0  0
 22 23  1  0  0  0  0
 22 24  1  0  0  0  0
 46 47  1  0  0  0  0
 18 21  1  0  0  0  0
 21 22  1  0  0  0  0
 36 37  1  0  0  0  0
  7  8  1  0  0  0  0
 17 18  1  0  0  0  0
  3  4  1  0  0  0  0
  3  5  1  0  0  0  0
  3  6  1  0  0  0  0
 40 43  1  0  0  0  0
 40 44  1  0  0  0  0
 40 45  1  0  0  0  0
 11 14  1  0  0  0  0
 11 15  1  0  0  0  0
 11 16  1  0  0  0  0
 23 30  1  0  0  0  0
 23 31  1  0  0  0  0
 23 32  1  0  0  0  0
 24 33  1  0  0  0  0
 24 34  1  0  0  0  0
 24 35  1  0  0  0  0
 47 49  1  0  0  0  0
 47 50  1  0  0  0  0
 47 51  1  0  0  0  0
 21 27  1  0  0  0  0
 21 28  1  0  0  0  0
 37 42  1  0  0  0  0
  8 13  1  0  0  0  0
 18 26  1  0  0  0  0
 22 29  1  0  0  0  0
 46 48  1  0  0  0  0
  7 12  1  0  0  0  0
 36 41  1  0  0  0  0
 17 25  1  0  0  0  0
M  END
$$$$

  -OEChem-05262214473D

 51 50  0     1  0  0  0  0  0999 V2000
    3.4018   -1.2440   -3.0186 C   0  0  0  0  0  0  0  0  0  0  0  0
    3.2697   -2.0909   -2.1427 O   0  0  0  0  0  0  0  0  0  0  0  0
    4.6845   -1.1645   -3.7779 C   0  0  0  0  0  0  0  0  0  0  0  0
    5.4123   -0.4862   -3.3041 H   0  0  0  0  0  0  0  0  0  0  0  0
    5.1949   -2.1387   -3.8443 H   0  0  0  0  0  0  0  0  0  0  0  0
    4.5953   -0.8128   -4.8182 H   0  0  0  0  0  0  0  0  0  0  0  0
    2.4540   -0.3103   -3.4040 N   0  0  0  0  0  0  0  0  0  0  0  0
    1.1494   -0.2128   -2.8039 C   0  0  2  0  0  0  0  0  0  0  0  0
    1.3350    0.0367   -1.3130 C   0  0  0  0  0  0  0  0  0  0  0  0
    2.3625   -0.2586   -0.7063 O   0  0  0  0  0  0  0  0  0  0  0  0
    0.3331   -1.4728   -3.0467 C   0  0  0  0  0  0  0  0  0  0  0  0
    2.6924    0.3404   -4.1502 H   0  0  0  0  0  0  0  0  0  0  0  0
    0.6550    0.6514   -3.2607 H   0  0  0  0  0  0  0  0  0  0  0  0
    0.8129   -2.3494   -2.5963 H   0  0  0  0  0  0  0  0  0  0  0  0
   -0.6690   -1.3857   -2.6142 H   0  0  0  0  0  0  0  0  0  0  0  0
    0.2259   -1.6670   -4.1194 H   0  0  0  0  0  0  0  0  0  0  0  0
    0.2019    0.5893   -0.7269 N   0  0  0  0  0  0  0  0  0  0  0  0
    0.1242    0.9059    0.6756 C   0  0  2  0  0  0  0  0  0  0  0  0
    1.2845    0.1921    1.3621 C   0  0  0  0  0  0  0  0  0  0  0  0
    1.3293    0.0020    2.5758 O   0  0  0  0  0  0  0  0  0  0  0  0
   -1.2090    0.4693    1.2963 C   0  0  0  0  0  0  0  0  0  0  0  0
   -2.4464    1.2231    0.7678 C   0  0  0  0  0  0  0  0  0  0  0  0
   -3.7182    0.5987    1.3486 C   0  0  0  0  0  0  0  0  0  0  0  0
   -2.5223    1.2198   -0.7596 C   0  0  0  0  0  0  0  0  0  0  0  0
   -0.5975    0.8179   -1.3140 H   0  0  0  0  0  0  0  0  0  0  0  0
    0.2719    1.9866    0.7678 H   0  0  0  0  0  0  0  0  0  0  0  0
   -1.1539    0.6044    2.3857 H   0  0  0  0  0  0  0  0  0  0  0  0
   -1.3496   -0.6079    1.1359 H   0  0  0  0  0  0  0  0  0  0  0  0
   -2.4053    2.2652    1.1077 H   0  0  0  0  0  0  0  0  0  0  0  0
   -3.8134   -0.4481    1.0411 H   0  0  0  0  0  0  0  0  0  0  0  0
   -4.6085    1.1306    0.9969 H   0  0  0  0  0  0  0  0  0  0  0  0
   -3.7136    0.6314    2.4435 H   0  0  0  0  0  0  0  0  0  0  0  0
   -2.5656    0.1985   -1.1528 H   0  0  0  0  0  0  0  0  0  0  0  0
   -3.4151    1.7524   -1.1049 H   0  0  0  0  0  0  0  0  0  0  0  0
   -1.6568    1.7207   -1.2031 H   0  0  0  0  0  0  0  0  0  0  0  0
    2.2351   -0.2500    0.4525 N   0  0  0  0  0  0  0  0  0  0  0  0
    3.4220   -0.9791    0.8378 C   0  0  2  0  0  0  0  0  0  0  0  0
    3.0376   -1.9521    1.9445 C   0  0  0  0  0  0  0  0  0  0  0  0
    2.0494   -1.7985    2.6594 O   0  0  0  0  0  0  0  0  0  0  0  0
    4.5238   -0.0382    1.2997 C   0  0  0  0  0  0  0  0  0  0  0  0
    2.0983   -0.0679   -0.5373 H   0  0  0  0  0  0  0  0  0  0  0  0
    3.7493   -1.5396   -0.0447 H   0  0  0  0  0  0  0  0  0  0  0  0
    4.2142    0.5321    2.1831 H   0  0  0  0  0  0  0  0  0  0  0  0
    5.4318   -0.5901    1.5641 H   0  0  0  0  0  0  0  0  0  0  0  0
    4.7782    0.6801    0.5129 H   0  0  0  0  0  0  0  0  0  0  0  0
    3.9516   -2.9892    2.0684 N   0  0  0  0  0  0  0  0  0  0  0  0
    3.8153   -4.0348    3.0554 C   0  0  0  0  0  0  0  0  0  0  0  0
    4.7316   -3.0478    1.4204 H   0  0  0  0  0  0  0  0  0  0  0  0
    4.3684   -3.7559    3.9644 H   0  0  0  0  0  0  0  0  0  0  0  0
    2.7517   -4.1709    3.3007 H   0  0  0  0  0  0  0  0  0  0  0  0
    4.2219   -4.9742    2.6527 H   0  0  0  0  0  0  0  0  0  0  0  0
  1  3  1  0  0  0  0
  1  7  1  0  0  0  0
  1  2  2  0  0  0  0
 37 38  1  0  0  0  0
 38 46  1  0  0  0  0
 38 39  2  0  0  0  0
  8  9  1  0  0  0  0
  9 17  1  0  0  0  0
  9 10  2  0  0  0  0
 18 19  1  0  0  0  0
 19 36  1  0  0  0  0
 19 20  2  0  0  0  0
 37 40  1  0  0  0  0
  8 11  1  0  0  0  0
 22 23  1  0  0  0  0
 22 24  1  0  0  0  0
 46 47  1  0  0  0  0
 18 21  1  0  0  0  0
 21 22  1  0  0  0  0
 36 37  1  0  0  0  0
  7  8  1  0  0  0  0
 17 18  1  0  0  0  0
  3  4  1  0  0  0  0
  3  5  1  0  0  0  0
  3  6  1  0  0  0  0
 40 43  1  0  0  0  0
 40 44  1  0  0  0  0
 40 45  1  0  0  0  0
 11 14  1  0  0  0  0
 11 15  1  0  0  0  0
 11 16  1  0  0  0  0
 23 30  1  0  0  0  0
 23 31  1  0  0  0  0
 23 32  1  0  0  0  0
 24 33  1  0  0  0  0
 24 34  1  0  0  0  0
 24 35  1  0  0  0  0
 47 49  1  0  0  0  0
 47 50  1  0  0  0  0
 47 51  1  0  0  0  0
 21 27  1  0  0  0  0
 21 28  1  0  0  0  0
 37 42  1  0  0  0  0
  8 13  1  0  0  0  0
 18 26  1  0  0  0  0
 22 29  1  0  0  0  0
 46 48  1  0  0  0  0
  7 12  1  0  0  0  0
 36 41  1  0  0  0  0
 17 25  1  0  0  0  0
M  END
$$$$

  -OEChem-05262214473D

 51 50  0     1  0  0  0  0  0999 V2000
    3.4018   -1.2440   -3.0186 C   0  0  0  0  0  0  0  0  0  0  0  0
    3.2697   -2.0909   -2.1427 O   0  0  0  0  0  0  0  0  0  0  0  0
    4.6845   -1.1645   -3.7779 C   0  0  0  0  0  0  0  0  0  0  0  0
    5.4123   -0.4862   -3.3041 H   0  0  0  0  0  0  0  0  0  0  0  0
    5.1949   -2.1387   -3.8443 H   0  0  0  0  0  0  0  0  0  0  0  0
    4.5953   -0.8128   -4.8182 H   0  0  0  0  0  0  0  0  0  0  0  0
    2.4540   -0.3103   -3.4040 N   0  0  0  0  0  0  0  0  0  0  0  0
    1.1494   -0.2128   -2.8039 C   0  0  2  0  0  0  0  0  0  0  0  0
    1.3350    0.0367   -1.3130 C   0  0  0  0  0  0  0  0  0  0  0  0
    2.3625   -0.2586   -0.7063 O   0  0  0  0  0  0  0  0  0  0  0  0
    0.3331   -1.4728   -3.0467 C   0  0  0  0  0  0  0  0  0  0  0  0
    2.6924    0.3404   -4.1502 H   0  0  0  0  0  0  0  0  0  0  0  0
    0.6550    0.6514   -3.2607 H   0  0  0  0  0  0  0  0  0  0  0  0
    0.8129   -2.3494   -2.5963 H   0  0  0  0  0  0  0  0  0  0  0  0
   -0.6690   -1.3857   -2.6142 H   0  0  0  0  0  0  0  0  0  0  0  0
    0.2259   -1.6670   -4.1194 H   0  0  0  0  0  0  0  0  0  0  0  0
    0.2019    0.5893   -0.7269 N   0  0  0  0  0  0  0  0  0  0  0  0
    0.1242    0.9059    0.6756 C   0  0  2  0  0  0  0  0  0  0  0  0
    1.2845    0.1921    1.3621 C   0  0  0  0  0  0  0  0  0  0  0  0
    1.2203   -0.2359    2.5127 O   0  0  0  0  0  0  0  0  0  0  0  0
   -1.2090    0.4693    1.2963 C   0  0  0  0  0  0  0  0  0  0  0  0
   -2.4464    1.2231    0.7678 C   0  0  0  0  0  0  0  0  0  0  0  0
   -3.7182    0.5987    1.3486 C   0  0  0  0  0  0  0  0  0  0  0  0
   -2.5223    1.2198   -0.7596 C   0  0  0  0  0  0  0  0  0  0  0  0
   -0.5975    0.8179   -1.3140 H   0  0  0  0  0  0  0  0  0  0  0  0
    0.2719    1.9866    0.7678 H   0  0  0  0  0  0  0  0  0  0  0  0
   -1.1539    0.6044    2.3857 H   0  0  0  0  0  0  0  0  0  0  0  0
   -1.3496   -0.6079    1.1359 H   0  0  0  0  0  0  0  0  0  0  0  0
   -2.4053    2.2652    1.1077 H   0  0  0  0  0  0  0  0  0  0  0  0
   -3.8134   -0.4481    1.0411 H   0  0  0  0  0  0  0  0  0  0  0  0
   -4.6085    1.1306    0.9969 H   0  0  0  0  0  0  0  0  0  0  0  0
   -3.7136    0.6314    2.4435 H   0  0  0  0  0  0  0  0  0  0  0  0
   -2.5656    0.1985   -1.1528 H   0  0  0  0  0  0  0  0  0  0  0  0
   -3.4151    1.7524   -1.1049 H   0  0  0  0  0  0  0  0  0  0  0  0
   -1.6568    1.7207   -1.2031 H   0  0  0  0  0  0  0  0  0  0  0  0
    2.3779    0.0466    0.5196 N   0  0  0  0  0  0  0  0  0  0  0  0
    3.5993   -0.6179    0.9137 C   0  0  2  0  0  0  0  0  0  0  0  0
    3.2244   -1.8310    1.7547 C   0  0  0  0  0  0  0  0  0  0  0  0
    2.1525   -1.9304    2.3482 O   0  0  0  0  0  0  0  0  0  0  0  0
    4.5137    0.3187    1.6878 C   0  0  0  0  0  0  0  0  0  0  0  0
    2.3279    0.4115   -0.4270 H   0  0  0  0  0  0  0  0  0  0  0  0
    4.0905   -0.9493   -0.0077 H   0  0  0  0  0  0  0  0  0  0  0  0
    4.0385    0.6612    2.6143 H   0  0  0  0  0  0  0  0  0  0  0  0
    5.4508   -0.1777    1.9609 H   0  0  0  0  0  0  0  0  0  0  0  0
    4.7582    1.2049    1.0924 H   0  0  0  0  0  0  0  0  0  0  0  0
    4.2451   -2.7703    1.7999 N   0  0  0  0  0  0  0  0  0  0  0  0
    4.1372   -4.0037    2.5436 C   0  0  0  0  0  0  0  0  0  0  0  0
    5.0923   -2.6138    1.2619 H   0  0  0  0  0  0  0  0  0  0  0  0
    4.5470   -3.8600    3.5543 H   0  0  0  0  0  0  0  0  0  0  0  0
    3.0795   -4.2972    2.6152 H   0  0  0  0  0  0  0  0  0  0  0  0
    4.7028   -4.7935    2.0276 H   0  0  0  0  0  0  0  0  0  0  0  0
  1  3  1  0  0  0  0
  1  7  1  0  0  0  0
  1  2  2  0  0  0  0
 37 38  1  0  0  0  0
 38 46  1  0  0  0  0
 38 39  2  0  0  0  0
  8  9  1  0  0  0  0
  9 17  1  0  0  0  0
  9 10  2  0  0  0  0
 18 19  1  0  0  0  0
 19 36  1  0  0  0  0
 19 20  2  0  0  0  0
 37 40  1  0  0  0  0
  8 11  1  0  0  0  0
 22 23  1  0  0  0  0
 22 24  1  0  0  0  0
 46 47  1  0  0  0  0
 18 21  1  0  0  0  0
 21 22  1  0  0  0  0
 36 37  1  0  0  0  0
  7  8  1  0  0  0  0
 17 18  1  0  0  0  0
  3  4  1  0  0  0  0
  3  5  1  0  0  0  0
  3  6  1  0  0  0  0
 40 43  1  0  0  0  0
 40 44  1  0  0  0  0
 40 45  1  0  0  0  0
 11 14  1  0  0  0  0
 11 15  1  0  0  0  0
 11 16  1  0  0  0  0
 23 30  1  0  0  0  0
 23 31  1  0  0  0  0
 23 32  1  0  0  0  0
 24 33  1  0  0  0  0
 24 34  1  0  0  0  0
 24 35  1  0  0  0  0
 47 49  1  0  0  0  0
 47 50  1  0  0  0  0
 47 51  1  0  0  0  0
 21 27  1  0  0  0  0
 21 28  1  0  0  0  0
 37 42  1  0  0  0  0
  8 13  1  0  0  0  0
 18 26  1  0  0  0  0
 22 29  1  0  0  0  0
 46 48  1  0  0  0  0
  7 12  1  0  0  0  0
 36 41  1  0  0  0  0
 17 25  1  0  0  0  0
M  END
$$$$

  -OEChem-05262214473D

 51 50  0     1  0  0  0  0  0999 V2000
    3.4018   -1.2440   -3.0186 C   0  0  0  0  0  0  0  0  0  0  0  0
    3.2697   -2.0909   -2.1427 O   0  0  0  0  0  0  0  0  0  0  0  0
    4.6845   -1.1645   -3.7779 C   0  0  0  0  0  0  0  0  0  0  0  0
    5.4123   -0.4862   -3.3041 H   0  0  0  0  0  0  0  0  0  0  0  0
    5.1949   -2.1387   -3.8443 H   0  0  0  0  0  0  0  0  0  0  0  0
    4.5953   -0.8128   -4.8182 H   0  0  0  0  0  0  0  0  0  0  0  0
    2.4540   -0.3103   -3.4040 N   0  0  0  0  0  0  0  0  0  0  0  0
    1.1494   -0.2128   -2.8039 C   0  0  2  0  0  0  0  0  0  0  0  0
    1.3350    0.0367   -1.3130 C   0  0  0  0  0  0  0  0  0  0  0  0
    2.3625   -0.2586   -0.7063 O   0  0  0  0  0  0  0  0  0  0  0  0
    0.3331   -1.4728   -3.0467 C   0  0  0  0  0  0  0  0  0  0  0  0
    2.6924    0.3404   -4.1502 H   0  0  0  0  0  0  0  0  0  0  0  0
    0.6550    0.6514   -3.2607 H   0  0  0  0  0  0  0  0  0  0  0  0
    0.8129   -2.3494   -2.5963 H   0  0  0  0  0  0  0  0  0  0  0  0
   -0.6690   -1.3857   -2.6142 H   0  0  0  0  0  0  0  0  0  0  0  0
    0.2259   -1.6670   -4.1194 H   0  0  0  0  0  0  0  0  0  0  0  0
    0.2019    0.5893   -0.7269 N   0  0  0  0  0  0  0  0  0  0  0  0
    0.1242    0.9059    0.6756 C   0  0  2  0  0  0  0  0  0  0  0  0
    1.2845    0.1921    1.3621 C   0  0  0  0  0  0  0  0  0  0  0  0
    1.1503   -0.4660    2.3917 O   0  0  0  0  0  0  0  0  0  0  0  0
   -1.2090    0.4693    1.2963 C   0  0  0  0  0  0  0  0  0  0  0  0
   -2.4464    1.2231    0.7678 C   0  0  0  0  0  0  0  0  0  0  0  0
   -3.7182    0.5987    1.3486 C   0  0  0  0  0  0  0  0  0  0  0  0
   -2.5223    1.2198   -0.7596 C   0  0  0  0  0  0  0  0  0  0  0  0
   -0.5975    0.8179   -1.3140 H   0  0  0  0  0  0  0  0  0  0  0  0
    0.2719    1.9866    0.7678 H   0  0  0  0  0  0  0  0  0  0  0  0
   -1.1539    0.6044    2.3857 H   0  0  0  0  0  0  0  0  0  0  0  0
   -1.3496   -0.6079    1.1359 H   0  0  0  0  0  0  0  0  0  0  0  0
   -2.4053    2.2652    1.1077 H   0  0  0  0  0  0  0  0  0  0  0  0
   -3.8134   -0.4481    1.0411 H   0  0  0  0  0  0  0  0  0  0  0  0
   -4.6085    1.1306    0.9969 H   0  0  0  0  0  0  0  0  0  0  0  0
   -3.7136    0.6314    2.4435 H   0  0  0  0  0  0  0  0  0  0  0  0
   -2.5656    0.1985   -1.1528 H   0  0  0  0  0  0  0  0  0  0  0  0
   -3.4151    1.7524   -1.1049 H   0  0  0  0  0  0  0  0  0  0  0  0
   -1.6568    1.7207   -1.2031 H   0  0  0  0  0  0  0  0  0  0  0  0
    2.4731    0.3364    0.6600 N   0  0  0  0  0  0  0  0  0  0  0  0
    3.7193   -0.2633    1.0795 C   0  0  2  0  0  0  0  0  0  0  0  0
    3.4137   -1.6548    1.6179 C   0  0  0  0  0  0  0  0  0  0  0  0
    2.3050   -1.9846    2.0340 O   0  0  0  0  0  0  0  0  0  0  0  0
    4.4154    0.5858    2.1317 C   0  0  0  0  0  0  0  0  0  0  0  0
    2.4805    0.8796   -0.1982 H   0  0  0  0  0  0  0  0  0  0  0  0
    4.3469   -0.3466    0.1856 H   0  0  0  0  0  0  0  0  0  0  0  0
    3.8016    0.6806    3.0349 H   0  0  0  0  0  0  0  0  0  0  0  0
    5.3729    0.1447    2.4277 H   0  0  0  0  0  0  0  0  0  0  0  0
    4.6076    1.5955    1.7530 H   0  0  0  0  0  0  0  0  0  0  0  0
    4.5356   -2.4719    1.6191 N   0  0  0  0  0  0  0  0  0  0  0  0
    4.5065   -3.8354    2.0944 C   0  0  0  0  0  0  0  0  0  0  0  0
    5.4095   -2.1213    1.2380 H   0  0  0  0  0  0  0  0  0  0  0  0
    4.7813   -3.8591    3.1593 H   0  0  0  0  0  0  0  0  0  0  0  0
    3.4939   -4.2461    1.9680 H   0  0  0  0  0  0  0  0  0  0  0  0
    5.2220   -4.4399    1.5177 H   0  0  0  0  0  0  0  0  0  0  0  0
  1  3  1  0  0  0  0
  1  7  1  0  0  0  0
  1  2  2  0  0  0  0
 37 38  1  0  0  0  0
 38 46  1  0  0  0  0
 38 39  2  0  0  0  0
  8  9  1  0  0  0  0
  9 17  1  0  0  0  0
  9 10  2  0  0  0  0
 18 19  1  0  0  0  0
 19 36  1  0  0  0  0
 19 20  2  0  0  0  0
 37 40  1  0  0  0  0
  8 11  1  0  0  0  0
 22 23  1  0  0  0  0
 22 24  1  0  0  0  0
 46 47  1  0  0  0  0
 18 21  1  0  0  0  0
 21 22  1  0  0  0  0
 36 37  1  0  0  0  0
  7  8  1  0  0  0  0
 17 18  1  0  0  0  0
  3  4  1  0  0  0  0
  3  5  1  0  0  0  0
  3  6  1  0  0  0  0
 40 43  1  0  0  0  0
 40 44  1  0  0  0  0
 40 45  1  0  0  0  0
 11 14  1  0  0  0  0
 11 15  1  0  0  0  0
 11 16  1  0  0  0  0
 23 30  1  0  0  0  0
 23 31  1  0  0  0  0
 23 32  1  0  0  0  0
 24 33  1  0  0  0  0
 24 34  1  0  0  0  0
 24 35  1  0  0  0  0
 47 49  1  0  0  0  0
 47 50  1  0  0  0  0
 47 51  1  0  0  0  0
 21 27  1  0  0  0  0
 21 28  1  0  0  0  0
 37 42  1  0  0  0  0
  8 13  1  0  0  0  0
 18 26  1  0  0  0  0
 22 29  1  0  0  0  0
 46 48  1  0  0  0  0
  7 12  1  0  0  0  0
 36 41  1  0  0  0  0
 17 25  1  0  0  0  0
M  END
$$$$

  -OEChem-05262214473D

 51 50  0     1  0  0  0  0  0999 V2000
    3.4018   -1.2440   -3.0186 C   0  0  0  0  0  0  0  0  0  0  0  0
    3.2697   -2.0909   -2.1427 O   0  0  0  0  0  0  0  0  0  0  0  0
    4.6845   -1.1645   -3.7779 C   0  0  0  0  0  0  0  0  0  0  0  0
    5.4123   -0.4862   -3.3041 H   0  0  0  0  0  0  0  0  0  0  0  0
    5.1949   -2.1387   -3.8443 H   0  0  0  0  0  0  0  0  0  0  0  0
    4.5953   -0.8128   -4.8182 H   0  0  0  0  0  0  0  0  0  0  0  0
    2.4540   -0.3103   -3.4040 N   0  0  0  0  0  0  0  0  0  0  0  0
    1.1494   -0.2128   -2.8039 C   0  0  2  0  0  0  0  0  0  0  0  0
    1.3350    0.0367   -1.3130 C   0  0  0  0  0  0  0  0  0  0  0  0
    2.3625   -0.2586   -0.7063 O   0  0  0  0  0  0  0  0  0  0  0  0
    0.3331   -1.4728   -3.0467 C   0  0  0  0  0  0  0  0  0  0  0  0
    2.6924    0.3404   -4.1502 H   0  0  0  0  0  0  0  0  0  0  0  0
    0.6550    0.6514   -3.2607 H   0  0  0  0  0  0  0  0  0  0  0  0
    0.8129   -2.3494   -2.5963 H   0  0  0  0  0  0  0  0  0  0  0  0
   -0.6690   -1.3857   -2.6142 H   0  0  0  0  0  0  0  0  0  0  0  0
    0.2259   -1.6670   -4.1194 H   0  0  0  0  0  0  0  0  0  0  0  0
    0.2019    0.5893   -0.7269 N   0  0  0  0  0  0  0  0  0  0  0  0
    0.1242    0.9059    0.6756 C   0  0  2  0  0  0  0  0  0  0  0  0
    1.2845    0.1921    1.3621 C   0  0  0  0  0  0  0  0  0  0  0  0
    1.1242   -0.6726    2.2211 O   0  0  0  0  0  0  0  0  0  0  0  0
   -1.2090    0.4693    1.2963 C   0  0  0  0  0  0  0  0  0  0  0  0
   -2.4464    1.2231    0.7678 C   0  0  0  0  0  0  0  0  0  0  0  0
   -3.7182    0.5987    1.3486 C   0  0  0  0  0  0  0  0  0  0  0  0
   -2.5223    1.2198   -0.7596 C   0  0  0  0  0  0  0  0  0  0  0  0
   -0.5975    0.8179   -1.3140 H   0  0  0  0  0  0  0  0  0  0  0  0
    0.2719    1.9866    0.7678 H   0  0  0  0  0  0  0  0  0  0  0  0
   -1.1539    0.6044    2.3857 H   0  0  0  0  0  0  0  0  0  0  0  0
   -1.3496   -0.6079    1.1359 H   0  0  0  0  0  0  0  0  0  0  0  0
   -2.4053    2.2652    1.1077 H   0  0  0  0  0  0  0  0  0  0  0  0
   -3.8134   -0.4481    1.0411 H   0  0  0  0  0  0  0  0  0  0  0  0
   -4.6085    1.1306    0.9969 H   0  0  0  0  0  0  0  0  0  0  0  0
   -3.7136    0.6314    2.4435 H   0  0  0  0  0  0  0  0  0  0  0  0
   -2.5656    0.1985   -1.1528 H   0  0  0  0  0  0  0  0  0  0  0  0
   -3.4151    1.7524   -1.1049 H   0  0  0  0  0  0  0  0  0  0  0  0
   -1.6568    1.7207   -1.2031 H   0  0  0  0  0  0  0  0  0  0  0  0
    2.5143    0.5999    0.8643 N   0  0  0  0  0  0  0  0  0  0  0  0
    3.7738    0.0605    1.3241 C   0  0  2  0  0  0  0  0  0  0  0  0
    3.5927   -1.4357    1.5433 C   0  0  0  0  0  0  0  0  0  0  0  0
    2.4968   -1.9572    1.7384 O   0  0  0  0  0  0  0  0  0  0  0  0
    4.2356    0.7450    2.6012 C   0  0  0  0  0  0  0  0  0  0  0  0
    2.5456    1.3044    0.1334 H   0  0  0  0  0  0  0  0  0  0  0  0
    4.5010    0.2273    0.5220 H   0  0  0  0  0  0  0  0  0  0  0  0
    3.5196    0.5890    3.4163 H   0  0  0  0  0  0  0  0  0  0  0  0
    5.2037    0.3551    2.9326 H   0  0  0  0  0  0  0  0  0  0  0  0
    4.3366    1.8251    2.4498 H   0  0  0  0  0  0  0  0  0  0  0  0
    4.8034   -2.1142    1.5385 N   0  0  0  0  0  0  0  0  0  0  0  0
    4.8980   -3.5414    1.7383 C   0  0  0  0  0  0  0  0  0  0  0  0
    5.6613   -1.6040    1.3502 H   0  0  0  0  0  0  0  0  0  0  0  0
    5.0554   -3.7530    2.8063 H   0  0  0  0  0  0  0  0  0  0  0  0
    3.9667   -4.0211    1.4030 H   0  0  0  0  0  0  0  0  0  0  0  0
    5.7442   -3.9375    1.1576 H   0  0  0  0  0  0  0  0  0  0  0  0
  1  3  1  0  0  0  0
  1  7  1  0  0  0  0
  1  2  2  0  0  0  0
 37 38  1  0  0  0  0
 38 46  1  0  0  0  0
 38 39  2  0  0  0  0
  8  9  1  0  0  0  0
  9 17  1  0  0  0  0
  9 10  2  0  0  0  0
 18 19  1  0  0  0  0
 19 36  1  0  0  0  0
 19 20  2  0  0  0  0
 37 40  1  0  0  0  0
  8 11  1  0  0  0  0
 22 23  1  0  0  0  0
 22 24  1  0  0  0  0
 46 47  1  0  0  0  0
 18 21  1  0  0  0  0
 21 22  1  0  0  0  0
 36 37  1  0  0  0  0
  7  8  1  0  0  0  0
 17 18  1  0  0  0  0
  3  4  1  0  0  0  0
  3  5  1  0  0  0  0
  3  6  1  0  0  0  0
 40 43  1  0  0  0  0
 40 44  1  0  0  0  0
 40 45  1  0  0  0  0
 11 14  1  0  0  0  0
 11 15  1  0  0  0  0
 11 16  1  0  0  0  0
 23 30  1  0  0  0  0
 23 31  1  0  0  0  0
 23 32  1  0  0  0  0
 24 33  1  0  0  0  0
 24 34  1  0  0  0  0
 24 35  1  0  0  0  0
 47 49  1  0  0  0  0
 47 50  1  0  0  0  0
 47 51  1  0  0  0  0
 21 27  1  0  0  0  0
 21 28  1  0  0  0  0
 37 42  1  0  0  0  0
  8 13  1  0  0  0  0
 18 26  1  0  0  0  0
 22 29  1  0  0  0  0
 46 48  1  0  0  0  0
  7 12  1  0  0  0  0
 36 41  1  0  0  0  0
 17 25  1  0  0  0  0
M  END
$$$$

  -OEChem-05262214473D

 51 50  0     1  0  0  0  0  0999 V2000
    3.4018   -1.2440   -3.0186 C   0  0  0  0  0  0  0  0  0  0  0  0
    3.2697   -2.0909   -2.1427 O   0  0  0  0  0  0  0  0  0  0  0  0
    4.6845   -1.1645   -3.7779 C   0  0  0  0  0  0  0  0  0  0  0  0
    5.4123   -0.4862   -3.3041 H   0  0  0  0  0  0  0  0  0  0  0  0
    5.1949   -2.1387   -3.8443 H   0  0  0  0  0  0  0  0  0  0  0  0
    4.5953   -0.8128   -4.8182 H   0  0  0  0  0  0  0  0  0  0  0  0
    2.4540   -0.3103   -3.4040 N   0  0  0  0  0  0  0  0  0  0  0  0
    1.1494   -0.2128   -2.8039 C   0  0  2  0  0  0  0  0  0  0  0  0
    1.3350    0.0367   -1.3130 C   0  0  0  0  0  0  0  0  0  0  0  0
    2.3625   -0.2586   -0.7063 O   0  0  0  0  0  0  0  0  0  0  0  0
    0.3331   -1.4728   -3.0467 C   0  0  0  0  0  0  0  0  0  0  0  0
    2.6924    0.3404   -4.1502 H   0  0  0  0  0  0  0  0  0  0  0  0
    0.6550    0.6514   -3.2607 H   0  0  0  0  0  0  0  0  0  0  0  0
    0.8129   -2.3494   -2.5963 H   0  0  0  0  0  0  0  0  0  0  0  0
   -0.6690   -1.3857   -2.6142 H   0  0  0  0  0  0  0  0  0  0  0  0
    0.2259   -1.6670   -4.1194 H   0  0  0  0  0  0  0  0  0  0  0  0
    0.2019    0.5893   -0.7269 N   0  0  0  0  0  0  0  0  0  0  0  0
    0.1242    0.9059    0.6756 C   0  0  2  0  0  0  0  0  0  0  0  0
    1.2845    0.1921    1.3621 C   0  0  0  0  0  0  0  0  0  0  0  0
    1.1437   -0.8416    2.0124 O   0  0  0  0  0  0  0  0  0  0  0  0
   -1.2090    0.4693    1.2963 C   0  0  0  0  0  0  0  0  0  0  0  0
   -2.4464    1.2231    0.7678 C   0  0  0  0  0  0  0  0  0  0  0  0
   -3.7182    0.5987    1.3486 C   0  0  0  0  0  0  0  0  0  0  0  0
   -2.5223    1.2198   -0.7596 C   0  0  0  0  0  0  0  0  0  0  0  0
   -0.5975    0.8179   -1.3140 H   0  0  0  0  0  0  0  0  0  0  0  0
    0.2719    1.9866    0.7678 H   0  0  0  0  0  0  0  0  0  0  0  0
   -1.1539    0.6044    2.3857 H   0  0  0  0  0  0  0  0  0  0  0  0
   -1.3496   -0.6079    1.1359 H   0  0  0  0  0  0  0  0  0  0  0  0
   -2.4053    2.2652    1.1077 H   0  0  0  0  0  0  0  0  0  0  0  0
   -3.8134   -0.4481    1.0411 H   0  0  0  0  0  0  0  0  0  0  0  0
   -4.6085    1.1306    0.9969 H   0  0  0  0  0  0  0  0  0  0  0  0
   -3.7136    0.6314    2.4435 H   0  0  0  0  0  0  0  0  0  0  0  0
   -2.5656    0.1985   -1.1528 H   0  0  0  0  0  0  0  0  0  0  0  0
   -3.4151    1.7524   -1.1049 H   0  0  0  0  0  0  0  0  0  0  0  0
   -1.6568    1.7207   -1.2031 H   0  0  0  0  0  0  0  0  0  0  0  0
    2.4987    0.8189    1.1184 N   0  0  0  0  0  0  0  0  0  0  0  0
    3.7591    0.3315    1.6307 C   0  0  2  0  0  0  0  0  0  0  0  0
    3.7490   -1.1885    1.5361 C   0  0  0  0  0  0  0  0  0  0  0  0
    2.7146   -1.8503    1.4814 O   0  0  0  0  0  0  0  0  0  0  0  0
    3.9865    0.7854    3.0642 C   0  0  0  0  0  0  0  0  0  0  0  0
    2.5190    1.6571    0.5452 H   0  0  0  0  0  0  0  0  0  0  0  0
    4.5422    0.7334    0.9785 H   0  0  0  0  0  0  0  0  0  0  0  0
    3.2116    0.3925    3.7325 H   0  0  0  0  0  0  0  0  0  0  0  0
    4.9546    0.4393    3.4412 H   0  0  0  0  0  0  0  0  0  0  0  0
    3.9637    1.8782    3.1353 H   0  0  0  0  0  0  0  0  0  0  0  0
    5.0301   -1.7216    1.5634 N   0  0  0  0  0  0  0  0  0  0  0  0
    5.2851   -3.1418    1.4997 C   0  0  0  0  0  0  0  0  0  0  0  0
    5.8307   -1.0971    1.5910 H   0  0  0  0  0  0  0  0  0  0  0  0
    5.3505   -3.5492    2.5193 H   0  0  0  0  0  0  0  0  0  0  0  0
    4.4655   -3.6374    0.9588 H   0  0  0  0  0  0  0  0  0  0  0  0
    6.2336   -3.3206    0.9720 H   0  0  0  0  0  0  0  0  0  0  0  0
  1  3  1  0  0  0  0
  1  7  1  0  0  0  0
  1  2  2  0  0  0  0
 37 38  1  0  0  0  0
 38 46  1  0  0  0  0
 38 39  2  0  0  0  0
  8  9  1  0  0  0  0
  9 17  1  0  0  0  0
  9 10  2  0  0  0  0
 18 19  1  0  0  0  0
 19 36  1  0  0  0  0
 19 20  2  0  0  0  0
 37 40  1  0  0  0  0
  8 11  1  0  0  0  0
 22 23  1  0  0  0  0
 22 24  1  0  0  0  0
 46 47  1  0  0  0  0
 18 21  1  0  0  0  0
 21 22  1  0  0  0  0
 36 37  1  0  0  0  0
  7  8  1  0  0  0  0
 17 18  1  0  0  0  0
  3  4  1  0  0  0  0
  3  5  1  0  0  0  0
  3  6  1  0  0  0  0
 40 43  1  0  0  0  0
 40 44  1  0  0  0  0
 40 45  1  0  0  0  0
 11 14  1  0  0  0  0
 11 15  1  0  0  0  0
 11 16  1  0  0  0  0
 23 30  1  0  0  0  0
 23 31  1  0  0  0  0
 23 32  1  0  0  0  0
 24 33  1  0  0  0  0
 24 34  1  0  0  0  0
 24 35  1  0  0  0  0
 47 49  1  0  0  0  0
 47 50  1  0  0  0  0
 47 51  1  0  0  0  0
 21 27  1  0  0  0  0
 21 28  1  0  0  0  0
 37 42  1  0  0  0  0
  8 13  1  0  0  0  0
 18 26  1  0  0  0  0
 22 29  1  0  0  0  0
 46 48  1  0  0  0  0
  7 12  1  0  0  0  0
 36 41  1  0  0  0  0
 17 25  1  0  0  0  0
M  END
$$$$

  -OEChem-05262214473D

 51 50  0     1  0  0  0  0  0999 V2000
    3.4018   -1.2440   -3.0186 C   0  0  0  0  0  0  0  0  0  0  0  0
    3.2697   -2.0909   -2.1427 O   0  0  0  0  0  0  0  0  0  0  0  0
    4.6845   -1.1645   -3.7779 C   0  0  0  0  0  0  0  0  0  0  0  0
    5.4123   -0.4862   -3.3041 H   0  0  0  0  0  0  0  0  0  0  0  0
    5.1949   -2.1387   -3.8443 H   0  0  0  0  0  0  0  0  0  0  0  0
    4.5953   -0.8128   -4.8182 H   0  0  0  0  0  0  0  0  0  0  0  0
    2.4540   -0.3103   -3.4040 N   0  0  0  0  0  0  0  0  0  0  0  0
    1.1494   -0.2128   -2.8039 C   0  0  2  0  0  0  0  0  0  0  0  0
    1.3350    0.0367   -1.3130 C   0  0  0  0  0  0  0  0  0  0  0  0
    2.3625   -0.2586   -0.7063 O   0  0  0  0  0  0  0  0  0  0  0  0
    0.3331   -1.4728   -3.0467 C   0  0  0  0  0  0  0  0  0  0  0  0
    2.6924    0.3404   -4.1502 H   0  0  0  0  0  0  0  0  0  0  0  0
    0.6550    0.6514   -3.2607 H   0  0  0  0  0  0  0  0  0  0  0  0
    0.8129   -2.3494   -2.5963 H   0  0  0  0  0  0  0  0  0  0  0  0
   -0.6690   -1.3857   -2.6142 H   0  0  0  0  0  0  0  0  0  0  0  0
    0.2259   -1.6670   -4.1194 H   0  0  0  0  0  0  0  0  0  0  0  0
    0.2019    0.5893   -0.7269 N   0  0  0  0  0  0  0  0  0  0  0  0
    0.1242    0.9059    0.6756 C   0  0  2  0  0  0  0  0  0  0  0  0
    1.2845    0.1921    1.3621 C   0  0  0  0  0  0  0  0  0  0  0  0
    1.2074   -0.9614    1.7800 O   0  0  0  0  0  0  0  0  0  0  0  0
   -1.2090    0.4693    1.2963 C   0  0  0  0  0  0  0  0  0  0  0  0
   -2.4464    1.2231    0.7678 C   0  0  0  0  0  0  0  0  0  0  0  0
   -3.7182    0.5987    1.3486 C   0  0  0  0  0  0  0  0  0  0  0  0
   -2.5223    1.2198   -0.7596 C   0  0  0  0  0  0  0  0  0  0  0  0
   -0.5975    0.8179   -1.3140 H   0  0  0  0  0  0  0  0  0  0  0  0
    0.2719    1.9866    0.7678 H   0  0  0  0  0  0  0  0  0  0  0  0
   -1.1539    0.6044    2.3857 H   0  0  0  0  0  0  0  0  0  0  0  0
   -1.3496   -0.6079    1.1359 H   0  0  0  0  0  0  0  0  0  0  0  0
   -2.4053    2.2652    1.1077 H   0  0  0  0  0  0  0  0  0  0  0  0
   -3.8134   -0.4481    1.0411 H   0  0  0  0  0  0  0  0  0  0  0  0
   -4.6085    1.1306    0.9969 H   0  0  0  0  0  0  0  0  0  0  0  0
   -3.7136    0.6314    2.4435 H   0  0  0  0  0  0  0  0  0  0  0  0
   -2.5656    0.1985   -1.1528 H   0  0  0  0  0  0  0  0  0  0  0  0
   -3.4151    1.7524   -1.1049 H   0  0  0  0  0  0  0  0  0  0  0  0
   -1.6568    1.7207   -1.2031 H   0  0  0  0  0  0  0  0  0  0  0  0
    2.4273    0.9786    1.4052 N   0  0  0  0  0  0  0  0  0  0  0  0
    3.6762    0.5312    1.9784 C   0  0  2  0  0  0  0  0  0  0  0  0
    3.8721   -0.9301    1.5967 C   0  0  0  0  0  0  0  0  0  0  0  0
    2.9436   -1.6711    1.2806 O   0  0  0  0  0  0  0  0  0  0  0  0
    3.6851    0.7043    3.4893 C   0  0  0  0  0  0  0  0  0  0  0  0
    2.4022    1.9136    1.0092 H   0  0  0  0  0  0  0  0  0  0  0  0
    4.4678    1.1372    1.5242 H   0  0  0  0  0  0  0  0  0  0  0  0
    2.8987    0.1046    3.9620 H   0  0  0  0  0  0  0  0  0  0  0  0
    4.6425    0.3915    3.9188 H   0  0  0  0  0  0  0  0  0  0  0  0
    3.5144    1.7511    3.7626 H   0  0  0  0  0  0  0  0  0  0  0  0
    5.2004   -1.3209    1.6923 N   0  0  0  0  0  0  0  0  0  0  0  0
    5.6413   -2.6637    1.3947 C   0  0  0  0  0  0  0  0  0  0  0  0
    5.9062   -0.6351    1.9438 H   0  0  0  0  0  0  0  0  0  0  0  0
    5.6466   -3.2615    2.3181 H   0  0  0  0  0  0  0  0  0  0  0  0
    4.9564   -3.1213    0.6657 H   0  0  0  0  0  0  0  0  0  0  0  0
    6.6569   -2.6311    0.9734 H   0  0  0  0  0  0  0  0  0  0  0  0
  1  3  1  0  0  0  0
  1  7  1  0  0  0  0
  1  2  2  0  0  0  0
 37 38  1  0  0  0  0
 38 46  1  0  0  0  0
 38 39  2  0  0  0  0
  8  9  1  0  0  0  0
  9 17  1  0  0  0  0
  9 10  2  0  0  0  0
 18 19  1  0  0  0  0
 19 36  1  0  0  0  0
 19 20  2  0  0  0  0
 37 40  1  0  0  0  0
  8 11  1  0  0  0  0
 22 23  1  0  0  0  0
 22 24  1  0  0  0  0
 46 47  1  0  0  0  0
 18 21  1  0  0  0  0
 21 22  1  0  0  0  0
 36 37  1  0  0  0  0
  7  8  1  0  0  0  0
 17 18  1  0  0  0  0
  3  4  1  0  0  0  0
  3  5  1  0  0  0  0
  3  6  1  0  0  0  0
 40 43  1  0  0  0  0
 40 44  1  0  0  0  0
 40 45  1  0  0  0  0
 11 14  1  0  0  0  0
 11 15  1  0  0  0  0
 11 16  1  0  0  0  0
 23 30  1  0  0  0  0
 23 31  1  0  0  0  0
 23 32  1  0  0  0  0
 24 33  1  0  0  0  0
 24 34  1  0  0  0  0
 24 35  1  0  0  0  0
 47 49  1  0  0  0  0
 47 50  1  0  0  0  0
 47 51  1  0  0  0  0
 21 27  1  0  0  0  0
 21 28  1  0  0  0  0
 37 42  1  0  0  0  0
  8 13  1  0  0  0  0
 18 26  1  0  0  0  0
 22 29  1  0  0  0  0
 46 48  1  0  0  0  0
  7 12  1  0  0  0  0
 36 41  1  0  0  0  0
 17 25  1  0  0  0  0
M  END
$$$$

  -OEChem-05262214473D

 51 50  0     1  0  0  0  0  0999 V2000
    3.4018   -1.2440   -3.0186 C   0  0  0  0  0  0  0  0  0  0  0  0
    3.2697   -2.0909   -2.1427 O   0  0  0  0  0  0  0  0  0  0  0  0
    4.6845   -1.1645   -3.7779 C   0  0  0  0  0  0  0  0  0  0  0  0
    5.4123   -0.4862   -3.3041 H   0  0  0  0  0  0  0  0  0  0  0  0
    5.1949   -2.1387   -3.8443 H   0  0  0  0  0  0  0  0  0  0  0  0
    4.5953   -0.8128   -4.8182 H   0  0  0  0  0  0  0  0  0  0  0  0
    2.4540   -0.3103   -3.4040 N   0  0  0  0  0  0  0  0  0  0  0  0
    1.1494   -0.2128   -2.8039 C   0  0  2  0  0  0  0  0  0  0  0  0
    1.3350    0.0367   -1.3130 C   0  0  0  0  0  0  0  0  0  0  0  0
    2.3625   -0.2586   -0.7063 O   0  0  0  0  0  0  0  0  0  0  0  0
    0.3331   -1.4728   -3.0467 C   0  0  0  0  0  0  0  0  0  0  0  0
    2.6924    0.3404   -4.1502 H   0  0  0  0  0  0  0  0  0  0  0  0
    0.6550    0.6514   -3.2607 H   0  0  0  0  0  0  0  0  0  0  0  0
    0.8129   -2.3494   -2.5963 H   0  0  0  0  0  0  0  0  0  0  0  0
   -0.6690   -1.3857   -2.6142 H   0  0  0  0  0  0  0  0  0  0  0  0
    0.2259   -1.6670   -4.1194 H   0  0  0  0  0  0  0  0  0  0  0  0
    0.2019    0.5893   -0.7269 N   0  0  0  0  0  0  0  0  0  0  0  0
    0.1242    0.9059    0.6756 C   0  0  2  0  0  0  0  0  0  0  0  0
    1.2845    0.1921    1.3621 C   0  0  0  0  0  0  0  0  0  0  0  0
    1.3112   -1.0241    1.5396 O   0  0  0  0  0  0  0  0  0  0  0  0
   -1.2090    0.4693    1.2963 C   0  0  0  0  0  0  0  0  0  0  0  0
   -2.4464    1.2231    0.7678 C   0  0  0  0  0  0  0  0  0  0  0  0
   -3.7182    0.5987    1.3486 C   0  0  0  0  0  0  0  0  0  0  0  0
   -2.5223    1.2198   -0.7596 C   0  0  0  0  0  0  0  0  0  0  0  0
   -0.5975    0.8179   -1.3140 H   0  0  0  0  0  0  0  0  0  0  0  0
    0.2719    1.9866    0.7678 H   0  0  0  0  0  0  0  0  0  0  0  0
   -1.1539    0.6044    2.3857 H   0  0  0  0  0  0  0  0  0  0  0  0
   -1.3496   -0.6079    1.1359 H   0  0  0  0  0  0  0  0  0  0  0  0
   -2.4053    2.2652    1.1077 H   0  0  0  0  0  0  0  0  0  0  0  0
   -3.8134   -0.4481    1.0411 H   0  0  0  0  0  0  0  0  0  0  0  0
   -4.6085    1.1306    0.9969 H   0  0  0  0  0  0  0  0  0  0  0  0
   -3.7136    0.6314    2.4435 H   0  0  0  0  0  0  0  0  0  0  0  0
   -2.5656    0.1985   -1.1528 H   0  0  0  0  0  0  0  0  0  0  0  0
   -3.4151    1.7524   -1.1049 H   0  0  0  0  0  0  0  0  0  0  0  0
   -1.6568    1.7207   -1.2031 H   0  0  0  0  0  0  0  0  0  0  0  0
    2.3050    1.0682    1.7049 N   0  0  0  0  0  0  0  0  0  0  0  0
    3.5308    0.6460    2.3435 C   0  0  2  0  0  0  0  0  0  0  0  0
    3.9536   -0.6781    1.7210 C   0  0  0  0  0  0  0  0  0  0  0  0
    3.1683   -1.4317    1.1497 O   0  0  0  0  0  0  0  0  0  0  0  0
    3.3519    0.5071    3.8473 C   0  0  0  0  0  0  0  0  0  0  0  0
    2.2034    2.0564    1.4938 H   0  0  0  0  0  0  0  0  0  0  0  0
    4.2828    1.4111    2.1217 H   0  0  0  0  0  0  0  0  0  0  0  0
    2.6022   -0.2551    4.0891 H   0  0  0  0  0  0  0  0  0  0  0  0
    4.2888    0.2149    4.3330 H   0  0  0  0  0  0  0  0  0  0  0  0
    3.0191    1.4525    4.2892 H   0  0  0  0  0  0  0  0  0  0  0  0
    5.3026   -0.9394    1.9162 N   0  0  0  0  0  0  0  0  0  0  0  0
    5.9424   -2.1397    1.4306 C   0  0  0  0  0  0  0  0  0  0  0  0
    5.8825   -0.2495    2.3847 H   0  0  0  0  0  0  0  0  0  0  0  0
    5.9235   -2.9095    2.2162 H   0  0  0  0  0  0  0  0  0  0  0  0
    5.4060   -2.5079    0.5436 H   0  0  0  0  0  0  0  0  0  0  0  0
    6.9854   -1.9160    1.1617 H   0  0  0  0  0  0  0  0  0  0  0  0
  1  3  1  0  0  0  0
  1  7  1  0  0  0  0
  1  2  2  0  0  0  0
 37 38  1  0  0  0  0
 38 46  1  0  0  0  0
 38 39  2  0  0  0  0
  8  9  1  0  0  0  0
  9 17  1  0  0  0  0
  9 10  2  0  0  0  0
 18 19  1  0  0  0  0
 19 36  1  0  0  0  0
 19 20  2  0  0  0  0
 37 40  1  0  0  0  0
  8 11  1  0  0  0  0
 22 23  1  0  0  0  0
 22 24  1  0  0  0  0
 46 47  1  0  0  0  0
 18 21  1  0  0  0  0
 21 22  1  0  0  0  0
 36 37  1  0  0  0  0
  7  8  1  0  0  0  0
 17 18  1  0  0  0  0
  3  4  1  0  0  0  0
  3  5  1  0  0  0  0
  3  6  1  0  0  0  0
 40 43  1  0  0  0  0
 40 44  1  0  0  0  0
 40 45  1  0  0  0  0
 11 14  1  0  0  0  0
 11 15  1  0  0  0  0
 11 16  1  0  0  0  0
 23 30  1  0  0  0  0
 23 31  1  0  0  0  0
 23 32  1  0  0  0  0
 24 33  1  0  0  0  0
 24 34  1  0  0  0  0
 24 35  1  0  0  0  0
 47 49  1  0  0  0  0
 47 50  1  0  0  0  0
 47 51  1  0  0  0  0
 21 27  1  0  0  0  0
 21 28  1  0  0  0  0
 37 42  1  0  0  0  0
  8 13  1  0  0  0  0
 18 26  1  0  0  0  0
 22 29  1  0  0  0  0
 46 48  1  0  0  0  0
  7 12  1  0  0  0  0
 36 41  1  0  0  0  0
 17 25  1  0  0  0  0
M  END
$$$$

  -OEChem-05262214473D

 51 50  0     1  0  0  0  0  0999 V2000
    3.4018   -1.2440   -3.0186 C   0  0  0  0  0  0  0  0  0  0  0  0
    3.2697   -2.0909   -2.1427 O   0  0  0  0  0  0  0  0  0  0  0  0
    4.6845   -1.1645   -3.7779 C   0  0  0  0  0  0  0  0  0  0  0  0
    5.4123   -0.4862   -3.3041 H   0  0  0  0  0  0  0  0  0  0  0  0
    5.1949   -2.1387   -3.8443 H   0  0  0  0  0  0  0  0  0  0  0  0
    4.5953   -0.8128   -4.8182 H   0  0  0  0  0  0  0  0  0  0  0  0
    2.4540   -0.3103   -3.4040 N   0  0  0  0  0  0  0  0  0  0  0  0
    1.1494   -0.2128   -2.8039 C   0  0  2  0  0  0  0  0  0  0  0  0
    1.3350    0.0367   -1.3130 C   0  0  0  0  0  0  0  0  0  0  0  0
    2.3625   -0.2586   -0.7063 O   0  0  0  0  0  0  0  0  0  0  0  0
    0.3331   -1.4728   -3.0467 C   0  0  0  0  0  0  0  0  0  0  0  0
    2.6924    0.3404   -4.1502 H   0  0  0  0  0  0  0  0  0  0  0  0
    0.6550    0.6514   -3.2607 H   0  0  0  0  0  0  0  0  0  0  0  0
    0.8129   -2.3494   -2.5963 H   0  0  0  0  0  0  0  0  0  0  0  0
   -0.6690   -1.3857   -2.6142 H   0  0  0  0  0  0  0  0  0  0  0  0
    0.2259   -1.6670   -4.1194 H   0  0  0  0  0  0  0  0  0  0  0  0
    0.2019    0.5893   -0.7269 N   0  0  0  0  0  0  0  0  0  0  0  0
    0.1242    0.9059    0.6756 C   0  0  2  0  0  0  0  0  0  0  0  0
    1.2845    0.1921    1.3621 C   0  0  0  0  0  0  0  0  0  0  0  0
    1.4477   -1.0251    1.3076 O   0  0  0  0  0  0  0  0  0  0  0  0
   -1.2090    0.4693    1.2963 C   0  0  0  0  0  0  0  0  0  0  0  0
   -2.4464    1.2231    0.7678 C   0  0  0  0  0  0  0  0  0  0  0  0
   -3.7182    0.5987    1.3486 C   0  0  0  0  0  0  0  0  0  0  0  0
   -2.5223    1.2198   -0.7596 C   0  0  0  0  0  0  0  0  0  0  0  0
   -0.5975    0.8179   -1.3140 H   0  0  0  0  0  0  0  0  0  0  0  0
    0.2719    1.9866    0.7678 H   0  0  0  0  0  0  0  0  0  0  0  0
   -1.1539    0.6044    2.3857 H   0  0  0  0  0  0  0  0  0  0  0  0
   -1.3496   -0.6079    1.1359 H   0  0  0  0  0  0  0  0  0  0  0  0
   -2.4053    2.2652    1.1077 H   0  0  0  0  0  0  0  0  0  0  0  0
   -3.8134   -0.4481    1.0411 H   0  0  0  0  0  0  0  0  0  0  0  0
   -4.6085    1.1306    0.9969 H   0  0  0  0  0  0  0  0  0  0  0  0
   -3.7136    0.6314    2.4435 H   0  0  0  0  0  0  0  0  0  0  0  0
   -2.5656    0.1985   -1.1528 H   0  0  0  0  0  0  0  0  0  0  0  0
   -3.4151    1.7524   -1.1049 H   0  0  0  0  0  0  0  0  0  0  0  0
   -1.6568    1.7207   -1.2031 H   0  0  0  0  0  0  0  0  0  0  0  0
    2.1401    1.0814    1.9973 N   0  0  0  0  0  0  0  0  0  0  0  0
    3.3328    0.6681    2.7012 C   0  0  2  0  0  0  0  0  0  0  0  0
    3.9879   -0.4496    1.9006 C   0  0  0  0  0  0  0  0  0  0  0  0
    3.3734   -1.1486    1.0976 O   0  0  0  0  0  0  0  0  0  0  0  0
    3.0097    0.2074    4.1141 C   0  0  0  0  0  0  0  0  0  0  0  0
    1.9360    2.0758    1.9658 H   0  0  0  0  0  0  0  0  0  0  0  0
    3.9998    1.5366    2.7304 H   0  0  0  0  0  0  0  0  0  0  0  0
    2.3424   -0.6621    4.1051 H   0  0  0  0  0  0  0  0  0  0  0  0
    3.9176   -0.0784    4.6555 H   0  0  0  0  0  0  0  0  0  0  0  0
    2.5117    1.0027    4.6791 H   0  0  0  0  0  0  0  0  0  0  0  0
    5.3297   -0.6031    2.2200 N   0  0  0  0  0  0  0  0  0  0  0  0
    6.1679   -1.6056    1.6049 C   0  0  0  0  0  0  0  0  0  0  0  0
    5.7614    0.0334    2.8836 H   0  0  0  0  0  0  0  0  0  0  0  0
    6.1623   -2.5171    2.2205 H   0  0  0  0  0  0  0  0  0  0  0  0
    5.7836   -1.8389    0.6010 H   0  0  0  0  0  0  0  0  0  0  0  0
    7.1965   -1.2242    1.5242 H   0  0  0  0  0  0  0  0  0  0  0  0
  1  3  1  0  0  0  0
  1  7  1  0  0  0  0
  1  2  2  0  0  0  0
 37 38  1  0  0  0  0
 38 46  1  0  0  0  0
 38 39  2  0  0  0  0
  8  9  1  0  0  0  0
  9 17  1  0  0  0  0
  9 10  2  0  0  0  0
 18 19  1  0  0  0  0
 19 36  1  0  0  0  0
 19 20  2  0  0  0  0
 37 40  1  0  0  0  0
  8 11  1  0  0  0  0
 22 23  1  0  0  0  0
 22 24  1  0  0  0  0
 46 47  1  0  0  0  0
 18 21  1  0  0  0  0
 21 22  1  0  0  0  0
 36 37  1  0  0  0  0
  7  8  1  0  0  0  0
 17 18  1  0  0  0  0
  3  4  1  0  0  0  0
  3  5  1  0  0  0  0
  3  6  1  0  0  0  0
 40 43  1  0  0  0  0
 40 44  1  0  0  0  0
 40 45  1  0  0  0  0
 11 14  1  0  0  0  0
 11 15  1  0  0  0  0
 11 16  1  0  0  0  0
 23 30  1  0  0  0  0
 23 31  1  0  0  0  0
 23 32  1  0  0  0  0
 24 33  1  0  0  0  0
 24 34  1  0  0  0  0
 24 35  1  0  0  0  0
 47 49  1  0  0  0  0
 47 50  1  0  0  0  0
 47 51  1  0  0  0  0
 21 27  1  0  0  0  0
 21 28  1  0  0  0  0
 37 42  1  0  0  0  0
  8 13  1  0  0  0  0
 18 26  1  0  0  0  0
 22 29  1  0  0  0  0
 46 48  1  0  0  0  0
  7 12  1  0  0  0  0
 36 41  1  0  0  0  0
 17 25  1  0  0  0  0
M  END
$$$$

  -OEChem-05262214473D

 51 50  0     1  0  0  0  0  0999 V2000
    3.4018   -1.2440   -3.0186 C   0  0  0  0  0  0  0  0  0  0  0  0
    3.2697   -2.0909   -2.1427 O   0  0  0  0  0  0  0  0  0  0  0  0
    4.6845   -1.1645   -3.7779 C   0  0  0  0  0  0  0  0  0  0  0  0
    5.4123   -0.4862   -3.3041 H   0  0  0  0  0  0  0  0  0  0  0  0
    5.1949   -2.1387   -3.8443 H   0  0  0  0  0  0  0  0  0  0  0  0
    4.5953   -0.8128   -4.8182 H   0  0  0  0  0  0  0  0  0  0  0  0
    2.4540   -0.3103   -3.4040 N   0  0  0  0  0  0  0  0  0  0  0  0
    1.1494   -0.2128   -2.8039 C   0  0  2  0  0  0  0  0  0  0  0  0
    1.3350    0.0367   -1.3130 C   0  0  0  0  0  0  0  0  0  0  0  0
    2.3625   -0.2586   -0.7063 O   0  0  0  0  0  0  0  0  0  0  0  0
    0.3331   -1.4728   -3.0467 C   0  0  0  0  0  0  0  0  0  0  0  0
    2.6924    0.3404   -4.1502 H   0  0  0  0  0  0  0  0  0  0  0  0
    0.6550    0.6514   -3.2607 H   0  0  0  0  0  0  0  0  0  0  0  0
    0.8129   -2.3494   -2.5963 H   0  0  0  0  0  0  0  0  0  0  0  0
   -0.6690   -1.3857   -2.6142 H   0  0  0  0  0  0  0  0  0  0  0  0
    0.2259   -1.6670   -4.1194 H   0  0  0  0  0  0  0  0  0  0  0  0
    0.2019    0.5893   -0.7269 N   0  0  0  0  0  0  0  0  0  0  0  0
    0.1242    0.9059    0.6756 C   0  0  2  0  0  0  0  0  0  0  0  0
    1.2845    0.1921    1.3621 C   0  0  0  0  0  0  0  0  0  0  0  0
    1.6079   -0.9646    1.0999 O   0  0  0  0  0  0  0  0  0  0  0  0
   -1.2090    0.4693    1.2963 C   0  0  0  0  0  0  0  0  0  0  0  0
   -2.4464    1.2231    0.7678 C   0  0  0  0  0  0  0  0  0  0  0  0
   -3.7182    0.5987    1.3486 C   0  0  0  0  0  0  0  0  0  0  0  0
   -2.5223    1.2198   -0.7596 C   0  0  0  0  0  0  0  0  0  0  0  0
   -0.5975    0.8179   -1.3140 H   0  0  0  0  0  0  0  0  0  0  0  0
    0.2719    1.9866    0.7678 H   0  0  0  0  0  0  0  0  0  0  0  0
   -1.1539    0.6044    2.3857 H   0  0  0  0  0  0  0  0  0  0  0  0
   -1.3496   -0.6079    1.1359 H   0  0  0  0  0  0  0  0  0  0  0  0
   -2.4053    2.2652    1.1077 H   0  0  0  0  0  0  0  0  0  0  0  0
   -3.8134   -0.4481    1.0411 H   0  0  0  0  0  0  0  0  0  0  0  0
   -4.6085    1.1306    0.9969 H   0  0  0  0  0  0  0  0  0  0  0  0
   -3.7136    0.6314    2.4435 H   0  0  0  0  0  0  0  0  0  0  0  0
   -2.5656    0.1985   -1.1528 H   0  0  0  0  0  0  0  0  0  0  0  0
   -3.4151    1.7524   -1.1049 H   0  0  0  0  0  0  0  0  0  0  0  0
   -1.6568    1.7207   -1.2031 H   0  0  0  0  0  0  0  0  0  0  0  0
    1.9440    1.0174    2.2623 N   0  0  0  0  0  0  0  0  0  0  0  0
    3.0956    0.5959    3.0271 C   0  0  2  0  0  0  0  0  0  0  0  0
    3.9727   -0.2604    2.1232 C   0  0  0  0  0  0  0  0  0  0  0  0
    3.5447   -0.8410    1.1278 O   0  0  0  0  0  0  0  0  0  0  0  0
    2.6818   -0.1745    4.2712 C   0  0  0  0  0  0  0  0  0  0  0  0
    1.6183    1.9705    2.3933 H   0  0  0  0  0  0  0  0  0  0  0  0
    3.6381    1.5049    3.3087 H   0  0  0  0  0  0  0  0  0  0  0  0
    2.1368   -1.0887    4.0090 H   0  0  0  0  0  0  0  0  0  0  0  0
    3.5541   -0.4684    4.8643 H   0  0  0  0  0  0  0  0  0  0  0  0
    2.0269    0.4324    4.9056 H   0  0  0  0  0  0  0  0  0  0  0  0
    5.2800   -0.3349    2.5830 N   0  0  0  0  0  0  0  0  0  0  0  0
    6.3024   -1.0977    1.9057 C   0  0  0  0  0  0  0  0  0  0  0  0
    5.5509    0.1943    3.4066 H   0  0  0  0  0  0  0  0  0  0  0  0
    6.3467   -2.1112    2.3309 H   0  0  0  0  0  0  0  0  0  0  0  0
    6.0635   -1.1601    0.8337 H   0  0  0  0  0  0  0  0  0  0  0  0
    7.2760   -0.6026    2.0361 H   0  0  0  0  0  0  0  0  0  0  0  0
  1  3  1  0  0  0  0
  1  7  1  0  0  0  0
  1  2  2  0  0  0  0
 37 38  1  0  0  0  0
 38 46  1  0  0  0  0
 38 39  2  0  0  0  0
  8  9  1  0  0  0  0
  9 17  1  0  0  0  0
  9 10  2  0  0  0  0
 18 19  1  0  0  0  0
 19 36  1  0  0  0  0
 19 20  2  0  0  0  0
 37 40  1  0  0  0  0
  8 11  1  0  0  0  0
 22 23  1  0  0  0  0
 22 24  1  0  0  0  0
 46 47  1  0  0  0  0
 18 21  1  0  0  0  0
 21 22  1  0  0  0  0
 36 37  1  0  0  0  0
  7  8  1  0  0  0  0
 17 18  1  0  0  0  0
  3  4  1  0  0  0  0
  3  5  1  0  0  0  0
  3  6  1  0  0  0  0
 40 43  1  0  0  0  0
 40 44  1  0  0  0  0
 40 45  1  0  0  0  0
 11 14  1  0  0  0  0
 11 15  1  0  0  0  0
 11 16  1  0  0  0  0
 23 30  1  0  0  0  0
 23 31  1  0  0  0  0
 23 32  1  0  0  0  0
 24 33  1  0  0  0  0
 24 34  1  0  0  0  0
 24 35  1  0  0  0  0
 47 49  1  0  0  0  0
 47 50  1  0  0  0  0
 47 51  1  0  0  0  0
 21 27  1  0  0  0  0
 21 28  1  0  0  0  0
 37 42  1  0  0  0  0
  8 13  1  0  0  0  0
 18 26  1  0  0  0  0
 22 29  1  0  0  0  0
 46 48  1  0  0  0  0
  7 12  1  0  0  0  0
 36 41  1  0  0  0  0
 17 25  1  0  0  0  0
M  END
$$$$

  -OEChem-05262214473D

 51 50  0     1  0  0  0  0  0999 V2000
    3.4018   -1.2440   -3.0186 C   0  0  0  0  0  0  0  0  0  0  0  0
    3.2697   -2.0909   -2.1427 O   0  0  0  0  0  0  0  0  0  0  0  0
    4.6845   -1.1645   -3.7779 C   0  0  0  0  0  0  0  0  0  0  0  0
    5.4123   -0.4862   -3.3041 H   0  0  0  0  0  0  0  0  0  0  0  0
    5.1949   -2.1387   -3.8443 H   0  0  0  0  0  0  0  0  0  0  0  0
    4.5953   -0.8128   -4.8182 H   0  0  0  0  0  0  0  0  0  0  0  0
    2.4540   -0.3103   -3.4040 N   0  0  0  0  0  0  0  0  0  0  0  0
    1.1494   -0.2128   -2.8039 C   0  0  2  0  0  0  0  0  0  0  0  0
    1.3350    0.0367   -1.3130 C   0  0  0  0  0  0  0  0  0  0  0  0
    2.3625   -0.2586   -0.7063 O   0  0  0  0  0  0  0  0  0  0  0  0
    0.3331   -1.4728   -3.0467 C   0  0  0  0  0  0  0  0  0  0  0  0
    2.6924    0.3404   -4.1502 H   0  0  0  0  0  0  0  0  0  0  0  0
    0.6550    0.6514   -3.2607 H   0  0  0  0  0  0  0  0  0  0  0  0
    0.8129   -2.3494   -2.5963 H   0  0  0  0  0  0  0  0  0  0  0  0
   -0.6690   -1.3857   -2.6142 H   0  0  0  0  0  0  0  0  0  0  0  0
    0.2259   -1.6670   -4.1194 H   0  0  0  0  0  0  0  0  0  0  0  0
    0.2019    0.5893   -0.7269 N   0  0  0  0  0  0  0  0  0  0  0  0
    0.1242    0.9059    0.6756 C   0  0  2  0  0  0  0  0  0  0  0  0
    1.2845    0.1921    1.3621 C   0  0  0  0  0  0  0  0  0  0  0  0
    1.7807   -0.8466    0.9306 O   0  0  0  0  0  0  0  0  0  0  0  0
   -1.2090    0.4693    1.2963 C   0  0  0  0  0  0  0  0  0  0  0  0
   -2.4464    1.2231    0.7678 C   0  0  0  0  0  0  0  0  0  0  0  0
   -3.7182    0.5987    1.3486 C   0  0  0  0  0  0  0  0  0  0  0  0
   -2.5223    1.2198   -0.7596 C   0  0  0  0  0  0  0  0  0  0  0  0
   -0.5975    0.8179   -1.3140 H   0  0  0  0  0  0  0  0  0  0  0  0
    0.2719    1.9866    0.7678 H   0  0  0  0  0  0  0  0  0  0  0  0
   -1.1539    0.6044    2.3857 H   0  0  0  0  0  0  0  0  0  0  0  0
   -1.3496   -0.6079    1.1359 H   0  0  0  0  0  0  0  0  0  0  0  0
   -2.4053    2.2652    1.1077 H   0  0  0  0  0  0  0  0  0  0  0  0
   -3.8134   -0.4481    1.0411 H   0  0  0  0  0  0  0  0  0  0  0  0
   -4.6085    1.1306    0.9969 H   0  0  0  0  0  0  0  0  0  0  0  0
   -3.7136    0.6314    2.4435 H   0  0  0  0  0  0  0  0  0  0  0  0
   -2.5656    0.1985   -1.1528 H   0  0  0  0  0  0  0  0  0  0  0  0
   -3.4151    1.7524   -1.1049 H   0  0  0  0  0  0  0  0  0  0  0  0
   -1.6568    1.7207   -1.2031 H   0  0  0  0  0  0  0  0  0  0  0  0
    1.7298    0.8806    2.4820 N   0  0  0  0  0  0  0  0  0  0  0  0
    2.8354    0.4344    3.2989 C   0  0  2  0  0  0  0  0  0  0  0  0
    3.9089   -0.1231    2.3736 C   0  0  0  0  0  0  0  0  0  0  0  0
    3.6708   -0.5298    1.2383 O   0  0  0  0  0  0  0  0  0  0  0  0
    2.3905   -0.6125    4.3082 C   0  0  0  0  0  0  0  0  0  0  0  0
    1.2720    1.7476    2.7469 H   0  0  0  0  0  0  0  0  0  0  0  0
    3.2225    1.3184    3.8174 H   0  0  0  0  0  0  0  0  0  0  0  0
    1.9996   -1.5057    3.8073 H   0  0  0  0  0  0  0  0  0  0  0  0
    3.2231   -0.9286    4.9452 H   0  0  0  0  0  0  0  0  0  0  0  0
    1.5975   -0.2195    4.9535 H   0  0  0  0  0  0  0  0  0  0  0  0
    5.1568   -0.1530    2.9803 N   0  0  0  0  0  0  0  0  0  0  0  0
    6.3367   -0.6507    2.3125 C   0  0  0  0  0  0  0  0  0  0  0  0
    5.2656    0.2223    3.9179 H   0  0  0  0  0  0  0  0  0  0  0  0
    6.4641   -1.7194    2.5398 H   0  0  0  0  0  0  0  0  0  0  0  0
    6.2266   -0.5177    1.2261 H   0  0  0  0  0  0  0  0  0  0  0  0
    7.2184   -0.0938    2.6625 H   0  0  0  0  0  0  0  0  0  0  0  0
  1  3  1  0  0  0  0
  1  7  1  0  0  0  0
  1  2  2  0  0  0  0
 37 38  1  0  0  0  0
 38 46  1  0  0  0  0
 38 39  2  0  0  0  0
  8  9  1  0  0  0  0
  9 17  1  0  0  0  0
  9 10  2  0  0  0  0
 18 19  1  0  0  0  0
 19 36  1  0  0  0  0
 19 20  2  0  0  0  0
 37 40  1  0  0  0  0
  8 11  1  0  0  0  0
 22 23  1  0  0  0  0
 22 24  1  0  0  0  0
 46 47  1  0  0  0  0
 18 21  1  0  0  0  0
 21 22  1  0  0  0  0
 36 37  1  0  0  0  0
  7  8  1  0  0  0  0
 17 18  1  0  0  0  0
  3  4  1  0  0  0  0
  3  5  1  0  0  0  0
  3  6  1  0  0  0  0
 40 43  1  0  0  0  0
 40 44  1  0  0  0  0
 40 45  1  0  0  0  0
 11 14  1  0  0  0  0
 11 15  1  0  0  0  0
 11 16  1  0  0  0  0
 23 30  1  0  0  0  0
 23 31  1  0  0  0  0
 23 32  1  0  0  0  0
 24 33  1  0  0  0  0
 24 34  1  0  0  0  0
 24 35  1  0  0  0  0
 47 49  1  0  0  0  0
 47 50  1  0  0  0  0
 47 51  1  0  0  0  0
 21 27  1  0  0  0  0
 21 28  1  0  0  0  0
 37 42  1  0  0  0  0
  8 13  1  0  0  0  0
 18 26  1  0  0  0  0
 22 29  1  0  0  0  0
 46 48  1  0  0  0  0
  7 12  1  0  0  0  0
 36 41  1  0  0  0  0
 17 25  1  0  0  0  0
M  END
$$$$

  -OEChem-05262214473D

 51 50  0     1  0  0  0  0  0999 V2000
    3.4018   -1.2440   -3.0186 C   0  0  0  0  0  0  0  0  0  0  0  0
    3.2697   -2.0909   -2.1427 O   0  0  0  0  0  0  0  0  0  0  0  0
    4.6845   -1.1645   -3.7779 C   0  0  0  0  0  0  0  0  0  0  0  0
    5.4123   -0.4862   -3.3041 H   0  0  0  0  0  0  0  0  0  0  0  0
    5.1949   -2.1387   -3.8443 H   0  0  0  0  0  0  0  0  0  0  0  0
    4.5953   -0.8128   -4.8182 H   0  0  0  0  0  0  0  0  0  0  0  0
    2.4540   -0.3103   -3.4040 N   0  0  0  0  0  0  0  0  0  0  0  0
    1.1494   -0.2128   -2.8039 C   0  0  2  0  0  0  0  0  0  0  0  0
    1.3350    0.0367   -1.3130 C   0  0  0  0  0  0  0  0  0  0  0  0
    2.3625   -0.2586   -0.7063 O   0  0  0  0  0  0  0  0  0  0  0  0
    0.3331   -1.4728   -3.0467 C   0  0  0  0  0  0  0  0  0  0  0  0
    2.6924    0.3404   -4.1502 H   0  0  0  0  0  0  0  0  0  0  0  0
    0.6550    0.6514   -3.2607 H   0  0  0  0  0  0  0  0  0  0  0  0
    0.8129   -2.3494   -2.5963 H   0  0  0  0  0  0  0  0  0  0  0  0
   -0.6690   -1.3857   -2.6142 H   0  0  0  0  0  0  0  0  0  0  0  0
    0.2259   -1.6670   -4.1194 H   0  0  0  0  0  0  0  0  0  0  0  0
    0.2019    0.5893   -0.7269 N   0  0  0  0  0  0  0  0  0  0  0  0
    0.1242    0.9059    0.6756 C   0  0  2  0  0  0  0  0  0  0  0  0
    1.2845    0.1921    1.3621 C   0  0  0  0  0  0  0  0  0  0  0  0
    1.9544   -0.6791    0.8112 O   0  0  0  0  0  0  0  0  0  0  0  0
   -1.2090    0.4693    1.2963 C   0  0  0  0  0  0  0  0  0  0  0  0
   -2.4464    1.2231    0.7678 C   0  0  0  0  0  0  0  0  0  0  0  0
   -3.7182    0.5987    1.3486 C   0  0  0  0  0  0  0  0  0  0  0  0
   -2.5223    1.2198   -0.7596 C   0  0  0  0  0  0  0  0  0  0  0  0
   -0.5975    0.8179   -1.3140 H   0  0  0  0  0  0  0  0  0  0  0  0
    0.2719    1.9866    0.7678 H   0  0  0  0  0  0  0  0  0  0  0  0
   -1.1539    0.6044    2.3857 H   0  0  0  0  0  0  0  0  0  0  0  0
   -1.3496   -0.6079    1.1359 H   0  0  0  0  0  0  0  0  0  0  0  0
   -2.4053    2.2652    1.1077 H   0  0  0  0  0  0  0  0  0  0  0  0
   -3.8134   -0.4481    1.0411 H   0  0  0  0  0  0  0  0  0  0  0  0
   -4.6085    1.1306    0.9969 H   0  0  0  0  0  0  0  0  0  0  0  0
   -3.7136    0.6314    2.4435 H   0  0  0  0  0  0  0  0  0  0  0  0
   -2.5656    0.1985   -1.1528 H   0  0  0  0  0  0  0  0  0  0  0  0
   -3.4151    1.7524   -1.1049 H   0  0  0  0  0  0  0  0  0  0  0  0
   -1.6568    1.7207   -1.2031 H   0  0  0  0  0  0  0  0  0  0  0  0
    1.5123    0.6802    2.6413 N   0  0  0  0  0  0  0  0  0  0  0  0
    2.5700    0.1946    3.4981 C   0  0  2  0  0  0  0  0  0  0  0  0
    3.8011   -0.0472    2.6348 C   0  0  0  0  0  0  0  0  0  0  0  0
    3.7429   -0.2364    1.4215 O   0  0  0  0  0  0  0  0  0  0  0  0
    2.1557   -1.0768    4.2223 C   0  0  0  0  0  0  0  0  0  0  0  0
    0.9205    1.4224    3.0027 H   0  0  0  0  0  0  0  0  0  0  0  0
    2.7811    0.9897    4.2216 H   0  0  0  0  0  0  0  0  0  0  0  0
    1.9401   -1.8848    3.5137 H   0  0  0  0  0  0  0  0  0  0  0  0
    2.9473   -1.4275    4.8927 H   0  0  0  0  0  0  0  0  0  0  0  0
    1.2528   -0.9087    4.8194 H   0  0  0  0  0  0  0  0  0  0  0  0
    4.9684   -0.0700    3.3850 N   0  0  0  0  0  0  0  0  0  0  0  0
    6.2685   -0.2950    2.7976 C   0  0  0  0  0  0  0  0  0  0  0  0
    4.9249    0.1154    4.3828 H   0  0  0  0  0  0  0  0  0  0  0  0
    6.5067   -1.3683    2.8329 H   0  0  0  0  0  0  0  0  0  0  0  0
    6.2617    0.0447    1.7513 H   0  0  0  0  0  0  0  0  0  0  0  0
    7.0276    0.2677    3.3608 H   0  0  0  0  0  0  0  0  0  0  0  0
  1  3  1  0  0  0  0
  1  7  1  0  0  0  0
  1  2  2  0  0  0  0
 37 38  1  0  0  0  0
 38 46  1  0  0  0  0
 38 39  2  0  0  0  0
  8  9  1  0  0  0  0
  9 17  1  0  0  0  0
  9 10  2  0  0  0  0
 18 19  1  0  0  0  0
 19 36  1  0  0  0  0
 19 20  2  0  0  0  0
 37 40  1  0  0  0  0
  8 11  1  0  0  0  0
 22 23  1  0  0  0  0
 22 24  1  0  0  0  0
 46 47  1  0  0  0  0
 18 21  1  0  0  0  0
 21 22  1  0  0  0  0
 36 37  1  0  0  0  0
  7  8  1  0  0  0  0
 17 18  1  0  0  0  0
  3  4  1  0  0  0  0
  3  5  1  0  0  0  0
  3  6  1  0  0  0  0
 40 43  1  0  0  0  0
 40 44  1  0  0  0  0
 40 45  1  0  0  0  0
 11 14  1  0  0  0  0
 11 15  1  0  0  0  0
 11 16  1  0  0  0  0
 23 30  1  0  0  0  0
 23 31  1  0  0  0  0
 23 32  1  0  0  0  0
 24 33  1  0  0  0  0
 24 34  1  0  0  0  0
 24 35  1  0  0  0  0
 47 49  1  0  0  0  0
 47 50  1  0  0  0  0
 47 51  1  0  0  0  0
 21 27  1  0  0  0  0
 21 28  1  0  0  0  0
 37 42  1  0  0  0  0
  8 13  1  0  0  0  0
 18 26  1  0  0  0  0
 22 29  1  0  0  0  0
 46 48  1  0  0  0  0
  7 12  1  0  0  0  0
 36 41  1  0  0  0  0
 17 25  1  0  0  0  0
M  END
$$$$

  -OEChem-05262214473D

 51 50  0     1  0  0  0  0  0999 V2000
    3.4018   -1.2440   -3.0186 C   0  0  0  0  0  0  0  0  0  0  0  0
    3.2697   -2.0909   -2.1427 O   0  0  0  0  0  0  0  0  0  0  0  0
    4.6845   -1.1645   -3.7779 C   0  0  0  0  0  0  0  0  0  0  0  0
    5.4123   -0.4862   -3.3041 H   0  0  0  0  0  0  0  0  0  0  0  0
    5.1949   -2.1387   -3.8443 H   0  0  0  0  0  0  0  0  0  0  0  0
    4.5953   -0.8128   -4.8182 H   0  0  0  0  0  0  0  0  0  0  0  0
    2.4540   -0.3103   -3.4040 N   0  0  0  0  0  0  0  0  0  0  0  0
    1.1494   -0.2128   -2.8039 C   0  0  2  0  0  0  0  0  0  0  0  0
    1.3350    0.0367   -1.3130 C   0  0  0  0  0  0  0  0  0  0  0  0
    2.3625   -0.2586   -0.7063 O   0  0  0  0  0  0  0  0  0  0  0  0
    0.3331   -1.4728   -3.0467 C   0  0  0  0  0  0  0  0  0  0  0  0
    2.6924    0.3404   -4.1502 H   0  0  0  0  0  0  0  0  0  0  0  0
    0.6550    0.6514   -3.2607 H   0  0  0  0  0  0  0  0  0  0  0  0
    0.8129   -2.3494   -2.5963 H   0  0  0  0  0  0  0  0  0  0  0  0
   -0.6690   -1.3857   -2.6142 H   0  0  0  0  0  0  0  0  0  0  0  0
    0.2259   -1.6670   -4.1194 H   0  0  0  0  0  0  0  0  0  0  0  0
    0.2019    0.5893   -0.7269 N   0  0  0  0  0  0  0  0  0  0  0  0
    0.1242    0.9059    0.6756 C   0  0  2  0  0  0  0  0  0  0  0  0
    1.4631    0.5219    1.2975 C   0  0  0  0  0  0  0  0  0  0  0  0
    2.4018    0.0743    0.6419 O   0  0  0  0  0  0  0  0  0  0  0  0
   -1.0192    0.1611    1.3764 C   0  0  0  0  0  0  0  0  0  0  0  0
   -2.4341    0.5678    0.9164 C   0  0  0  0  0  0  0  0  0  0  0  0
   -3.4730   -0.3441    1.5751 C   0  0  0  0  0  0  0  0  0  0  0  0
   -2.5908    0.5130   -0.6038 C   0  0  0  0  0  0  0  0  0  0  0  0
   -0.5975    0.8179   -1.3140 H   0  0  0  0  0  0  0  0  0  0  0  0
   -0.0009    1.9907    0.7518 H   0  0  0  0  0  0  0  0  0  0  0  0
   -0.9401    0.3289    2.4597 H   0  0  0  0  0  0  0  0  0  0  0  0
   -0.8919   -0.9200    1.2318 H   0  0  0  0  0  0  0  0  0  0  0  0
   -2.6387    1.5936    1.2463 H   0  0  0  0  0  0  0  0  0  0  0  0
   -3.3176   -1.3875    1.2807 H   0  0  0  0  0  0  0  0  0  0  0  0
   -4.4868   -0.0610    1.2726 H   0  0  0  0  0  0  0  0  0  0  0  0
   -3.4164   -0.2880    2.6675 H   0  0  0  0  0  0  0  0  0  0  0  0
   -2.3963   -0.4945   -0.9869 H   0  0  0  0  0  0  0  0  0  0  0  0
   -3.6067    0.7963   -0.8997 H   0  0  0  0  0  0  0  0  0  0  0  0
   -1.9056    1.2061   -1.1008 H   0  0  0  0  0  0  0  0  0  0  0  0
    1.4995    0.7866    2.6595 N   0  0  0  0  0  0  0  0  0  0  0  0
    2.6605    0.5402    3.4841 C   0  0  2  0  0  0  0  0  0  0  0  0
    3.8967    0.9288    2.6840 C   0  0  0  0  0  0  0  0  0  0  0  0
    3.9111    0.9834    1.4560 O   0  0  0  0  0  0  0  0  0  0  0  0
    2.7306   -0.9150    3.9203 C   0  0  0  0  0  0  0  0  0  0  0  0
    0.6802    1.1825    3.1109 H   0  0  0  0  0  0  0  0  0  0  0  0
    2.5712    1.1930    4.3593 H   0  0  0  0  0  0  0  0  0  0  0  0
    2.8204   -1.5842    3.0569 H   0  0  0  0  0  0  0  0  0  0  0  0
    3.5950   -1.0938    4.5683 H   0  0  0  0  0  0  0  0  0  0  0  0
    1.8274   -1.2010    4.4700 H   0  0  0  0  0  0  0  0  0  0  0  0
    4.9938    1.1655    3.5005 N   0  0  0  0  0  0  0  0  0  0  0  0
    6.2882    1.5374    2.9787 C   0  0  0  0  0  0  0  0  0  0  0  0
    4.8859    1.1157    4.5092 H   0  0  0  0  0  0  0  0  0  0  0  0
    6.8963    0.6335    2.8266 H   0  0  0  0  0  0  0  0  0  0  0  0
    6.1603    2.0590    2.0187 H   0  0  0  0  0  0  0  0  0  0  0  0
    6.7938    2.2034    3.6934 H   0  0  0  0  0  0  0  0  0  0  0  0
  1  3  1  0  0  0  0
  1  7  1  0  0  0  0
  1  2  2  0  0  0  0
 37 38  1  0  0  0  0
 38 46  1  0  0  0  0
 38 39  2  0  0  0  0
  8  9  1  0  0  0  0
  9 17  1  0  0  0  0
  9 10  2  0  0  0  0
 18 19  1  0  0  0  0
 19 36  1  0  0  0  0
 19 20  2  0  0  0  0
 37 40  1  0  0  0  0
  8 11  1  0  0  0  0
 22 23  1  0  0  0  0
 22 24  1  0  0  0  0
 46 47  1  0  0  0  0
 18 21  1  0  0  0  0
 21 22  1  0  0  0  0
 36 37  1  0  0  0  0
  7  8  1  0  0  0  0
 17 18  1  0  0  0  0
  3  4  1  0  0  0  0
  3  5  1  0  0  0  0
  3  6  1  0  0  0  0
 40 43  1  0  0  0  0
 40 44  1  0  0  0  0
 40 45  1  0  0  0  0
 11 14  1  0  0  0  0
 11 15  1  0  0  0  0
 11 16  1  0  0  0  0
 23 30  1  0  0  0  0
 23 31  1  0  0  0  0
 23 32  1  0  0  0  0
 24 33  1  0  0  0  0
 24 34  1  0  0  0  0
 24 35  1  0  0  0  0
 47 49  1  0  0  0  0
 47 50  1  0  0  0  0
 47 51  1  0  0  0  0
 21 27  1  0  0  0  0
 21 28  1  0  0  0  0
 37 42  1  0  0  0  0
  8 13  1  0  0  0  0
 18 26  1  0  0  0  0
 22 29  1  0  0  0  0
 46 48  1  0  0  0  0
  7 12  1  0  0  0  0
 36 41  1  0  0  0  0
 17 25  1  0  0  0  0
M  END
$$$$

  -OEChem-05262214473D

 51 50  0     1  0  0  0  0  0999 V2000
    3.4018   -1.2440   -3.0186 C   0  0  0  0  0  0  0  0  0  0  0  0
    3.2697   -2.0909   -2.1427 O   0  0  0  0  0  0  0  0  0  0  0  0
    4.6845   -1.1645   -3.7779 C   0  0  0  0  0  0  0  0  0  0  0  0
    5.4123   -0.4862   -3.3041 H   0  0  0  0  0  0  0  0  0  0  0  0
    5.1949   -2.1387   -3.8443 H   0  0  0  0  0  0  0  0  0  0  0  0
    4.5953   -0.8128   -4.8182 H   0  0  0  0  0  0  0  0  0  0  0  0
    2.4540   -0.3103   -3.4040 N   0  0  0  0  0  0  0  0  0  0  0  0
    1.1494   -0.2128   -2.8039 C   0  0  2  0  0  0  0  0  0  0  0  0
    1.3350    0.0367   -1.3130 C   0  0  0  0  0  0  0  0  0  0  0  0
    2.3625   -0.2586   -0.7063 O   0  0  0  0  0  0  0  0  0  0  0  0
    0.3331   -1.4728   -3.0467 C   0  0  0  0  0  0  0  0  0  0  0  0
    2.6924    0.3404   -4.1502 H   0  0  0  0  0  0  0  0  0  0  0  0
    0.6550    0.6514   -3.2607 H   0  0  0  0  0  0  0  0  0  0  0  0
    0.8129   -2.3494   -2.5963 H   0  0  0  0  0  0  0  0  0  0  0  0
   -0.6690   -1.3857   -2.6142 H   0  0  0  0  0  0  0  0  0  0  0  0
    0.2259   -1.6670   -4.1194 H   0  0  0  0  0  0  0  0  0  0  0  0
    0.2019    0.5893   -0.7269 N   0  0  0  0  0  0  0  0  0  0  0  0
    0.1242    0.9059    0.6756 C   0  0  2  0  0  0  0  0  0  0  0  0
    1.4631    0.5219    1.2975 C   0  0  0  0  0  0  0  0  0  0  0  0
    2.4797    0.3318    0.6330 O   0  0  0  0  0  0  0  0  0  0  0  0
   -1.0192    0.1611    1.3764 C   0  0  0  0  0  0  0  0  0  0  0  0
   -2.4341    0.5678    0.9164 C   0  0  0  0  0  0  0  0  0  0  0  0
   -3.4730   -0.3441    1.5751 C   0  0  0  0  0  0  0  0  0  0  0  0
   -2.5908    0.5130   -0.6038 C   0  0  0  0  0  0  0  0  0  0  0  0
   -0.5975    0.8179   -1.3140 H   0  0  0  0  0  0  0  0  0  0  0  0
   -0.0009    1.9907    0.7518 H   0  0  0  0  0  0  0  0  0  0  0  0
   -0.9401    0.3289    2.4597 H   0  0  0  0  0  0  0  0  0  0  0  0
   -0.8919   -0.9200    1.2318 H   0  0  0  0  0  0  0  0  0  0  0  0
   -2.6387    1.5936    1.2463 H   0  0  0  0  0  0  0  0  0  0  0  0
   -3.3176   -1.3875    1.2807 H   0  0  0  0  0  0  0  0  0  0  0  0
   -4.4868   -0.0610    1.2726 H   0  0  0  0  0  0  0  0  0  0  0  0
   -3.4164   -0.2880    2.6675 H   0  0  0  0  0  0  0  0  0  0  0  0
   -2.3963   -0.4945   -0.9869 H   0  0  0  0  0  0  0  0  0  0  0  0
   -3.6067    0.7963   -0.8997 H   0  0  0  0  0  0  0  0  0  0  0  0
   -1.9056    1.2061   -1.1008 H   0  0  0  0  0  0  0  0  0  0  0  0
    1.3972    0.4676    2.6829 N   0  0  0  0  0  0  0  0  0  0  0  0
    2.5333    0.1526    3.5187 C   0  0  2  0  0  0  0  0  0  0  0  0
    3.7583    0.8345    2.9238 C   0  0  0  0  0  0  0  0  0  0  0  0
    3.8314    1.1720    1.7441 O   0  0  0  0  0  0  0  0  0  0  0  0
    2.7442   -1.3499    3.6225 C   0  0  0  0  0  0  0  0  0  0  0  0
    0.5156    0.6664    3.1466 H   0  0  0  0  0  0  0  0  0  0  0  0
    2.3245    0.5739    4.5082 H   0  0  0  0  0  0  0  0  0  0  0  0
    2.9547   -1.7898    2.6408 H   0  0  0  0  0  0  0  0  0  0  0  0
    3.5878   -1.5878    4.2789 H   0  0  0  0  0  0  0  0  0  0  0  0
    1.8513   -1.8421    4.0227 H   0  0  0  0  0  0  0  0  0  0  0  0
    4.7767    0.9828    3.8549 N   0  0  0  0  0  0  0  0  0  0  0  0
    6.0466    1.5901    3.5313 C   0  0  0  0  0  0  0  0  0  0  0  0
    4.6219    0.6913    4.8156 H   0  0  0  0  0  0  0  0  0  0  0  0
    6.7602    0.8097    3.2284 H   0  0  0  0  0  0  0  0  0  0  0  0
    5.9116    2.3039    2.7054 H   0  0  0  0  0  0  0  0  0  0  0  0
    6.4352    2.1195    4.4137 H   0  0  0  0  0  0  0  0  0  0  0  0
  1  3  1  0  0  0  0
  1  7  1  0  0  0  0
  1  2  2  0  0  0  0
 37 38  1  0  0  0  0
 38 46  1  0  0  0  0
 38 39  2  0  0  0  0
  8  9  1  0  0  0  0
  9 17  1  0  0  0  0
  9 10  2  0  0  0  0
 18 19  1  0  0  0  0
 19 36  1  0  0  0  0
 19 20  2  0  0  0  0
 37 40  1  0  0  0  0
  8 11  1  0  0  0  0
 22 23  1  0  0  0  0
 22 24  1  0  0  0  0
 46 47  1  0  0  0  0
 18 21  1  0  0  0  0
 21 22  1  0  0  0  0
 36 37  1  0  0  0  0
  7  8  1  0  0  0  0
 17 18  1  0  0  0  0
  3  4  1  0  0  0  0
  3  5  1  0  0  0  0
  3  6  1  0  0  0  0
 40 43  1  0  0  0  0
 40 44  1  0  0  0  0
 40 45  1  0  0  0  0
 11 14  1  0  0  0  0
 11 15  1  0  0  0  0
 11 16  1  0  0  0  0
 23 30  1  0  0  0  0
 23 31  1  0  0  0  0
 23 32  1  0  0  0  0
 24 33  1  0  0  0  0
 24 34  1  0  0  0  0
 24 35  1  0  0  0  0
 47 49  1  0  0  0  0
 47 50  1  0  0  0  0
 47 51  1  0  0  0  0
 21 27  1  0  0  0  0
 21 28  1  0  0  0  0
 37 42  1  0  0  0  0
  8 13  1  0  0  0  0
 18 26  1  0  0  0  0
 22 29  1  0  0  0  0
 46 48  1  0  0  0  0
  7 12  1  0  0  0  0
 36 41  1  0  0  0  0
 17 25  1  0  0  0  0
M  END
$$$$

  -OEChem-05262214473D

 51 50  0     1  0  0  0  0  0999 V2000
    3.4018   -1.2440   -3.0186 C   0  0  0  0  0  0  0  0  0  0  0  0
    3.2697   -2.0909   -2.1427 O   0  0  0  0  0  0  0  0  0  0  0  0
    4.6845   -1.1645   -3.7779 C   0  0  0  0  0  0  0  0  0  0  0  0
    5.4123   -0.4862   -3.3041 H   0  0  0  0  0  0  0  0  0  0  0  0
    5.1949   -2.1387   -3.8443 H   0  0  0  0  0  0  0  0  0  0  0  0
    4.5953   -0.8128   -4.8182 H   0  0  0  0  0  0  0  0  0  0  0  0
    2.4540   -0.3103   -3.4040 N   0  0  0  0  0  0  0  0  0  0  0  0
    1.1494   -0.2128   -2.8039 C   0  0  2  0  0  0  0  0  0  0  0  0
    1.3350    0.0367   -1.3130 C   0  0  0  0  0  0  0  0  0  0  0  0
    2.3625   -0.2586   -0.7063 O   0  0  0  0  0  0  0  0  0  0  0  0
    0.3331   -1.4728   -3.0467 C   0  0  0  0  0  0  0  0  0  0  0  0
    2.6924    0.3404   -4.1502 H   0  0  0  0  0  0  0  0  0  0  0  0
    0.6550    0.6514   -3.2607 H   0  0  0  0  0  0  0  0  0  0  0  0
    0.8129   -2.3494   -2.5963 H   0  0  0  0  0  0  0  0  0  0  0  0
   -0.6690   -1.3857   -2.6142 H   0  0  0  0  0  0  0  0  0  0  0  0
    0.2259   -1.6670   -4.1194 H   0  0  0  0  0  0  0  0  0  0  0  0
    0.2019    0.5893   -0.7269 N   0  0  0  0  0  0  0  0  0  0  0  0
    0.1242    0.9059    0.6756 C   0  0  2  0  0  0  0  0  0  0  0  0
    1.4631    0.5219    1.2975 C   0  0  0  0  0  0  0  0  0  0  0  0
    2.5285    0.5908    0.6880 O   0  0  0  0  0  0  0  0  0  0  0  0
   -1.0192    0.1611    1.3764 C   0  0  0  0  0  0  0  0  0  0  0  0
   -2.4341    0.5678    0.9164 C   0  0  0  0  0  0  0  0  0  0  0  0
   -3.4730   -0.3441    1.5751 C   0  0  0  0  0  0  0  0  0  0  0  0
   -2.5908    0.5130   -0.6038 C   0  0  0  0  0  0  0  0  0  0  0  0
   -0.5975    0.8179   -1.3140 H   0  0  0  0  0  0  0  0  0  0  0  0
   -0.0009    1.9907    0.7518 H   0  0  0  0  0  0  0  0  0  0  0  0
   -0.9401    0.3289    2.4597 H   0  0  0  0  0  0  0  0  0  0  0  0
   -0.8919   -0.9200    1.2318 H   0  0  0  0  0  0  0  0  0  0  0  0
   -2.6387    1.5936    1.2463 H   0  0  0  0  0  0  0  0  0  0  0  0
   -3.3176   -1.3875    1.2807 H   0  0  0  0  0  0  0  0  0  0  0  0
   -4.4868   -0.0610    1.2726 H   0  0  0  0  0  0  0  0  0  0  0  0
   -3.4164   -0.2880    2.6675 H   0  0  0  0  0  0  0  0  0  0  0  0
   -2.3963   -0.4945   -0.9869 H   0  0  0  0  0  0  0  0  0  0  0  0
   -3.6067    0.7963   -0.8997 H   0  0  0  0  0  0  0  0  0  0  0  0
   -1.9056    1.2061   -1.1008 H   0  0  0  0  0  0  0  0  0  0  0  0
    1.3304    0.1433    2.6263 N   0  0  0  0  0  0  0  0  0  0  0  0
    2.4490   -0.2431    3.4558 C   0  0  2  0  0  0  0  0  0  0  0  0
    3.6188    0.6743    3.1251 C   0  0  0  0  0  0  0  0  0  0  0  0
    3.7158    1.2803    2.0600 O   0  0  0  0  0  0  0  0  0  0  0  0
    2.8227   -1.7009    3.2368 C   0  0  0  0  0  0  0  0  0  0  0  0
    0.4088    0.1425    3.0531 H   0  0  0  0  0  0  0  0  0  0  0  0
    2.1418   -0.0840    4.4952 H   0  0  0  0  0  0  0  0  0  0  0  0
    3.1332   -1.8797    2.2009 H   0  0  0  0  0  0  0  0  0  0  0  0
    3.6518   -1.9999    3.8867 H   0  0  0  0  0  0  0  0  0  0  0  0
    1.9712   -2.3573    3.4465 H   0  0  0  0  0  0  0  0  0  0  0  0
    4.5632    0.7029    4.1417 N   0  0  0  0  0  0  0  0  0  0  0  0
    5.7716    1.4898    4.0613 C   0  0  0  0  0  0  0  0  0  0  0  0
    4.3917    0.1840    4.9978 H   0  0  0  0  0  0  0  0  0  0  0  0
    6.5839    0.8742    3.6476 H   0  0  0  0  0  0  0  0  0  0  0  0
    5.6008    2.3582    3.4080 H   0  0  0  0  0  0  0  0  0  0  0  0
    6.0506    1.8369    5.0671 H   0  0  0  0  0  0  0  0  0  0  0  0
  1  3  1  0  0  0  0
  1  7  1  0  0  0  0
  1  2  2  0  0  0  0
 37 38  1  0  0  0  0
 38 46  1  0  0  0  0
 38 39  2  0  0  0  0
  8  9  1  0  0  0  0
  9 17  1  0  0  0  0
  9 10  2  0  0  0  0
 18 19  1  0  0  0  0
 19 36  1  0  0  0  0
 19 20  2  0  0  0  0
 37 40  1  0  0  0  0
  8 11  1  0  0  0  0
 22 23  1  0  0  0  0
 22 24  1  0  0  0  0
 46 47  1  0  0  0  0
 18 21  1  0  0  0  0
 21 22  1  0  0  0  0
 36 37  1  0  0  0  0
  7  8  1  0  0  0  0
 17 18  1  0  0  0  0
  3  4  1  0  0  0  0
  3  5  1  0  0  0  0
  3  6  1  0  0  0  0
 40 43  1  0  0  0  0
 40 44  1  0  0  0  0
 40 45  1  0  0  0  0
 11 14  1  0  0  0  0
 11 15  1  0  0  0  0
 11 16  1  0  0  0  0
 23 30  1  0  0  0  0
 23 31  1  0  0  0  0
 23 32  1  0  0  0  0
 24 33  1  0  0  0  0
 24 34  1  0  0  0  0
 24 35  1  0  0  0  0
 47 49  1  0  0  0  0
 47 50  1  0  0  0  0
 47 51  1  0  0  0  0
 21 27  1  0  0  0  0
 21 28  1  0  0  0  0
 37 42  1  0  0  0  0
  8 13  1  0  0  0  0
 18 26  1  0  0  0  0
 22 29  1  0  0  0  0
 46 48  1  0  0  0  0
  7 12  1  0  0  0  0
 36 41  1  0  0  0  0
 17 25  1  0  0  0  0
M  END
$$$$

  -OEChem-05262214473D

 51 50  0     1  0  0  0  0  0999 V2000
    3.4018   -1.2440   -3.0186 C   0  0  0  0  0  0  0  0  0  0  0  0
    3.2697   -2.0909   -2.1427 O   0  0  0  0  0  0  0  0  0  0  0  0
    4.6845   -1.1645   -3.7779 C   0  0  0  0  0  0  0  0  0  0  0  0
    5.4123   -0.4862   -3.3041 H   0  0  0  0  0  0  0  0  0  0  0  0
    5.1949   -2.1387   -3.8443 H   0  0  0  0  0  0  0  0  0  0  0  0
    4.5953   -0.8128   -4.8182 H   0  0  0  0  0  0  0  0  0  0  0  0
    2.4540   -0.3103   -3.4040 N   0  0  0  0  0  0  0  0  0  0  0  0
    1.1494   -0.2128   -2.8039 C   0  0  2  0  0  0  0  0  0  0  0  0
    1.3350    0.0367   -1.3130 C   0  0  0  0  0  0  0  0  0  0  0  0
    2.3625   -0.2586   -0.7063 O   0  0  0  0  0  0  0  0  0  0  0  0
    0.3331   -1.4728   -3.0467 C   0  0  0  0  0  0  0  0  0  0  0  0
    2.6924    0.3404   -4.1502 H   0  0  0  0  0  0  0  0  0  0  0  0
    0.6550    0.6514   -3.2607 H   0  0  0  0  0  0  0  0  0  0  0  0
    0.8129   -2.3494   -2.5963 H   0  0  0  0  0  0  0  0  0  0  0  0
   -0.6690   -1.3857   -2.6142 H   0  0  0  0  0  0  0  0  0  0  0  0
    0.2259   -1.6670   -4.1194 H   0  0  0  0  0  0  0  0  0  0  0  0
    0.2019    0.5893   -0.7269 N   0  0  0  0  0  0  0  0  0  0  0  0
    0.1242    0.9059    0.6756 C   0  0  2  0  0  0  0  0  0  0  0  0
    1.4631    0.5219    1.2975 C   0  0  0  0  0  0  0  0  0  0  0  0
    2.5446    0.8336    0.8031 O   0  0  0  0  0  0  0  0  0  0  0  0
   -1.0192    0.1611    1.3764 C   0  0  0  0  0  0  0  0  0  0  0  0
   -2.4341    0.5678    0.9164 C   0  0  0  0  0  0  0  0  0  0  0  0
   -3.4730   -0.3441    1.5751 C   0  0  0  0  0  0  0  0  0  0  0  0
   -2.5908    0.5130   -0.6038 C   0  0  0  0  0  0  0  0  0  0  0  0
   -0.5975    0.8179   -1.3140 H   0  0  0  0  0  0  0  0  0  0  0  0
   -0.0009    1.9907    0.7518 H   0  0  0  0  0  0  0  0  0  0  0  0
   -0.9401    0.3289    2.4597 H   0  0  0  0  0  0  0  0  0  0  0  0
   -0.8919   -0.9200    1.2318 H   0  0  0  0  0  0  0  0  0  0  0  0
   -2.6387    1.5936    1.2463 H   0  0  0  0  0  0  0  0  0  0  0  0
   -3.3176   -1.3875    1.2807 H   0  0  0  0  0  0  0  0  0  0  0  0
   -4.4868   -0.0610    1.2726 H   0  0  0  0  0  0  0  0  0  0  0  0
   -3.4164   -0.2880    2.6675 H   0  0  0  0  0  0  0  0  0  0  0  0
   -2.3963   -0.4945   -0.9869 H   0  0  0  0  0  0  0  0  0  0  0  0
   -3.6067    0.7963   -0.8997 H   0  0  0  0  0  0  0  0  0  0  0  0
   -1.9056    1.2061   -1.1008 H   0  0  0  0  0  0  0  0  0  0  0  0
    1.3039   -0.1641    2.4936 N   0  0  0  0  0  0  0  0  0  0  0  0
    2.4135   -0.6200    3.2996 C   0  0  2  0  0  0  0  0  0  0  0  0
    3.4880    0.4591    3.2740 C   0  0  0  0  0  0  0  0  0  0  0  0
    3.5720    1.3009    2.3822 O   0  0  0  0  0  0  0  0  0  0  0  0
    2.9607   -1.9441    2.7897 C   0  0  0  0  0  0  0  0  0  0  0  0
    0.3669   -0.3537    2.8368 H   0  0  0  0  0  0  0  0  0  0  0  0
    2.0357   -0.7357    4.3213 H   0  0  0  0  0  0  0  0  0  0  0  0
    3.3438   -1.8478    1.7673 H   0  0  0  0  0  0  0  0  0  0  0  0
    3.7826   -2.3022    3.4183 H   0  0  0  0  0  0  0  0  0  0  0  0
    2.1789   -2.7113    2.7808 H   0  0  0  0  0  0  0  0  0  0  0  0
    4.3679    0.3449    4.3411 N   0  0  0  0  0  0  0  0  0  0  0  0
    5.4821    1.2436    4.5325 C   0  0  0  0  0  0  0  0  0  0  0  0
    4.2110   -0.3718    5.0436 H   0  0  0  0  0  0  0  0  0  0  0  0
    6.3796    0.8226    4.0557 H   0  0  0  0  0  0  0  0  0  0  0  0
    5.2490    2.2182    4.0788 H   0  0  0  0  0  0  0  0  0  0  0  0
    5.6664    1.3750    5.6090 H   0  0  0  0  0  0  0  0  0  0  0  0
  1  3  1  0  0  0  0
  1  7  1  0  0  0  0
  1  2  2  0  0  0  0
 37 38  1  0  0  0  0
 38 46  1  0  0  0  0
 38 39  2  0  0  0  0
  8  9  1  0  0  0  0
  9 17  1  0  0  0  0
  9 10  2  0  0  0  0
 18 19  1  0  0  0  0
 19 36  1  0  0  0  0
 19 20  2  0  0  0  0
 37 40  1  0  0  0  0
  8 11  1  0  0  0  0
 22 23  1  0  0  0  0
 22 24  1  0  0  0  0
 46 47  1  0  0  0  0
 18 21  1  0  0  0  0
 21 22  1  0  0  0  0
 36 37  1  0  0  0  0
  7  8  1  0  0  0  0
 17 18  1  0  0  0  0
  3  4  1  0  0  0  0
  3  5  1  0  0  0  0
  3  6  1  0  0  0  0
 40 43  1  0  0  0  0
 40 44  1  0  0  0  0
 40 45  1  0  0  0  0
 11 14  1  0  0  0  0
 11 15  1  0  0  0  0
 11 16  1  0  0  0  0
 23 30  1  0  0  0  0
 23 31  1  0  0  0  0
 23 32  1  0  0  0  0
 24 33  1  0  0  0  0
 24 34  1  0  0  0  0
 24 35  1  0  0  0  0
 47 49  1  0  0  0  0
 47 50  1  0  0  0  0
 47 51  1  0  0  0  0
 21 27  1  0  0  0  0
 21 28  1  0  0  0  0
 37 42  1  0  0  0  0
  8 13  1  0  0  0  0
 18 26  1  0  0  0  0
 22 29  1  0  0  0  0
 46 48  1  0  0  0  0
  7 12  1  0  0  0  0
 36 41  1  0  0  0  0
 17 25  1  0  0  0  0
M  END
$$$$

  -OEChem-05262214473D

 51 50  0     1  0  0  0  0  0999 V2000
    3.4018   -1.2440   -3.0186 C   0  0  0  0  0  0  0  0  0  0  0  0
    3.2697   -2.0909   -2.1427 O   0  0  0  0  0  0  0  0  0  0  0  0
    4.6845   -1.1645   -3.7779 C   0  0  0  0  0  0  0  0  0  0  0  0
    5.4123   -0.4862   -3.3041 H   0  0  0  0  0  0  0  0  0  0  0  0
    5.1949   -2.1387   -3.8443 H   0  0  0  0  0  0  0  0  0  0  0  0
    4.5953   -0.8128   -4.8182 H   0  0  0  0  0  0  0  0  0  0  0  0
    2.4540   -0.3103   -3.4040 N   0  0  0  0  0  0  0  0  0  0  0  0
    1.1494   -0.2128   -2.8039 C   0  0  2  0  0  0  0  0  0  0  0  0
    1.3350    0.0367   -1.3130 C   0  0  0  0  0  0  0  0  0  0  0  0
    2.3625   -0.2586   -0.7063 O   0  0  0  0  0  0  0  0  0  0  0  0
    0.3331   -1.4728   -3.0467 C   0  0  0  0  0  0  0  0  0  0  0  0
    2.6924    0.3404   -4.1502 H   0  0  0  0  0  0  0  0  0  0  0  0
    0.6550    0.6514   -3.2607 H   0  0  0  0  0  0  0  0  0  0  0  0
    0.8129   -2.3494   -2.5963 H   0  0  0  0  0  0  0  0  0  0  0  0
   -0.6690   -1.3857   -2.6142 H   0  0  0  0  0  0  0  0  0  0  0  0
    0.2259   -1.6670   -4.1194 H   0  0  0  0  0  0  0  0  0  0  0  0
    0.2019    0.5893   -0.7269 N   0  0  0  0  0  0  0  0  0  0  0  0
    0.1242    0.9059    0.6756 C   0  0  2  0  0  0  0  0  0  0  0  0
    1.4631    0.5219    1.2975 C   0  0  0  0  0  0  0  0  0  0  0  0
    2.5271    1.0436    0.9706 O   0  0  0  0  0  0  0  0  0  0  0  0
   -1.0192    0.1611    1.3764 C   0  0  0  0  0  0  0  0  0  0  0  0
   -2.4341    0.5678    0.9164 C   0  0  0  0  0  0  0  0  0  0  0  0
   -3.4730   -0.3441    1.5751 C   0  0  0  0  0  0  0  0  0  0  0  0
   -2.5908    0.5130   -0.6038 C   0  0  0  0  0  0  0  0  0  0  0  0
   -0.5975    0.8179   -1.3140 H   0  0  0  0  0  0  0  0  0  0  0  0
   -0.0009    1.9907    0.7518 H   0  0  0  0  0  0  0  0  0  0  0  0
   -0.9401    0.3289    2.4597 H   0  0  0  0  0  0  0  0  0  0  0  0
   -0.8919   -0.9200    1.2318 H   0  0  0  0  0  0  0  0  0  0  0  0
   -2.6387    1.5936    1.2463 H   0  0  0  0  0  0  0  0  0  0  0  0
   -3.3176   -1.3875    1.2807 H   0  0  0  0  0  0  0  0  0  0  0  0
   -4.4868   -0.0610    1.2726 H   0  0  0  0  0  0  0  0  0  0  0  0
   -3.4164   -0.2880    2.6675 H   0  0  0  0  0  0  0  0  0  0  0  0
   -2.3963   -0.4945   -0.9869 H   0  0  0  0  0  0  0  0  0  0  0  0
   -3.6067    0.7963   -0.8997 H   0  0  0  0  0  0  0  0  0  0  0  0
   -1.9056    1.2061   -1.1008 H   0  0  0  0  0  0  0  0  0  0  0  0
    1.3194   -0.4337    2.2938 N   0  0  0  0  0  0  0  0  0  0  0  0
    2.4291   -0.9522    3.0609 C   0  0  2  0  0  0  0  0  0  0  0  0
    3.3745    0.2036    3.3604 C   0  0  0  0  0  0  0  0  0  0  0  0
    3.4100    1.2325    2.6888 O   0  0  0  0  0  0  0  0  0  0  0  0
    3.1487   -2.0628    2.3116 C   0  0  0  0  0  0  0  0  0  0  0  0
    0.3930   -0.7882    2.5124 H   0  0  0  0  0  0  0  0  0  0  0  0
    2.0132   -1.3370    3.9984 H   0  0  0  0  0  0  0  0  0  0  0  0
    3.5721   -1.6962    1.3693 H   0  0  0  0  0  0  0  0  0  0  0  0
    3.9714   -2.4740    2.9058 H   0  0  0  0  0  0  0  0  0  0  0  0
    2.4603   -2.8801    2.0708 H   0  0  0  0  0  0  0  0  0  0  0  0
    4.2040   -0.0669    4.4398 N   0  0  0  0  0  0  0  0  0  0  0  0
    5.1978    0.8682    4.9129 C   0  0  0  0  0  0  0  0  0  0  0  0
    4.0921   -0.9381    4.9499 H   0  0  0  0  0  0  0  0  0  0  0  0
    6.1610    0.6586    4.4249 H   0  0  0  0  0  0  0  0  0  0  0  0
    4.8803    1.8935    4.6721 H   0  0  0  0  0  0  0  0  0  0  0  0
    5.3088    0.7651    6.0024 H   0  0  0  0  0  0  0  0  0  0  0  0
  1  3  1  0  0  0  0
  1  7  1  0  0  0  0
  1  2  2  0  0  0  0
 37 38  1  0  0  0  0
 38 46  1  0  0  0  0
 38 39  2  0  0  0  0
  8  9  1  0  0  0  0
  9 17  1  0  0  0  0
  9 10  2  0  0  0  0
 18 19  1  0  0  0  0
 19 36  1  0  0  0  0
 19 20  2  0  0  0  0
 37 40  1  0  0  0  0
  8 11  1  0  0  0  0
 22 23  1  0  0  0  0
 22 24  1  0  0  0  0
 46 47  1  0  0  0  0
 18 21  1  0  0  0  0
 21 22  1  0  0  0  0
 36 37  1  0  0  0  0
  7  8  1  0  0  0  0
 17 18  1  0  0  0  0
  3  4  1  0  0  0  0
  3  5  1  0  0  0  0
  3  6  1  0  0  0  0
 40 43  1  0  0  0  0
 40 44  1  0  0  0  0
 40 45  1  0  0  0  0
 11 14  1  0  0  0  0
 11 15  1  0  0  0  0
 11 16  1  0  0  0  0
 23 30  1  0  0  0  0
 23 31  1  0  0  0  0
 23 32  1  0  0  0  0
 24 33  1  0  0  0  0
 24 34  1  0  0  0  0
 24 35  1  0  0  0  0
 47 49  1  0  0  0  0
 47 50  1  0  0  0  0
 47 51  1  0  0  0  0
 21 27  1  0  0  0  0
 21 28  1  0  0  0  0
 37 42  1  0  0  0  0
  8 13  1  0  0  0  0
 18 26  1  0  0  0  0
 22 29  1  0  0  0  0
 46 48  1  0  0  0  0
  7 12  1  0  0  0  0
 36 41  1  0  0  0  0
 17 25  1  0  0  0  0
M  END
$$$$

  -OEChem-05262214473D

 51 50  0     1  0  0  0  0  0999 V2000
    3.4018   -1.2440   -3.0186 C   0  0  0  0  0  0  0  0  0  0  0  0
    3.2697   -2.0909   -2.1427 O   0  0  0  0  0  0  0  0  0  0  0  0
    4.6845   -1.1645   -3.7779 C   0  0  0  0  0  0  0  0  0  0  0  0
    5.4123   -0.4862   -3.3041 H   0  0  0  0  0  0  0  0  0  0  0  0
    5.1949   -2.1387   -3.8443 H   0  0  0  0  0  0  0  0  0  0  0  0
    4.5953   -0.8128   -4.8182 H   0  0  0  0  0  0  0  0  0  0  0  0
    2.4540   -0.3103   -3.4040 N   0  0  0  0  0  0  0  0  0  0  0  0
    1.1494   -0.2128   -2.8039 C   0  0  2  0  0  0  0  0  0  0  0  0
    1.3350    0.0367   -1.3130 C   0  0  0  0  0  0  0  0  0  0  0  0
    2.3625   -0.2586   -0.7063 O   0  0  0  0  0  0  0  0  0  0  0  0
    0.3331   -1.4728   -3.0467 C   0  0  0  0  0  0  0  0  0  0  0  0
    2.6924    0.3404   -4.1502 H   0  0  0  0  0  0  0  0  0  0  0  0
    0.6550    0.6514   -3.2607 H   0  0  0  0  0  0  0  0  0  0  0  0
    0.8129   -2.3494   -2.5963 H   0  0  0  0  0  0  0  0  0  0  0  0
   -0.6690   -1.3857   -2.6142 H   0  0  0  0  0  0  0  0  0  0  0  0
    0.2259   -1.6670   -4.1194 H   0  0  0  0  0  0  0  0  0  0  0  0
    0.2019    0.5893   -0.7269 N   0  0  0  0  0  0  0  0  0  0  0  0
    0.1242    0.9059    0.6756 C   0  0  2  0  0  0  0  0  0  0  0  0
    1.4631    0.5219    1.2975 C   0  0  0  0  0  0  0  0  0  0  0  0
    2.4771    1.2067    1.1788 O   0  0  0  0  0  0  0  0  0  0  0  0
   -1.0192    0.1611    1.3764 C   0  0  0  0  0  0  0  0  0  0  0  0
   -2.4341    0.5678    0.9164 C   0  0  0  0  0  0  0  0  0  0  0  0
   -3.4730   -0.3441    1.5751 C   0  0  0  0  0  0  0  0  0  0  0  0
   -2.5908    0.5130   -0.6038 C   0  0  0  0  0  0  0  0  0  0  0  0
   -0.5975    0.8179   -1.3140 H   0  0  0  0  0  0  0  0  0  0  0  0
   -0.0009    1.9907    0.7518 H   0  0  0  0  0  0  0  0  0  0  0  0
   -0.9401    0.3289    2.4597 H   0  0  0  0  0  0  0  0  0  0  0  0
   -0.8919   -0.9200    1.2318 H   0  0  0  0  0  0  0  0  0  0  0  0
   -2.6387    1.5936    1.2463 H   0  0  0  0  0  0  0  0  0  0  0  0
   -3.3176   -1.3875    1.2807 H   0  0  0  0  0  0  0  0  0  0  0  0
   -4.4868   -0.0610    1.2726 H   0  0  0  0  0  0  0  0  0  0  0  0
   -3.4164   -0.2880    2.6675 H   0  0  0  0  0  0  0  0  0  0  0  0
   -2.3963   -0.4945   -0.9869 H   0  0  0  0  0  0  0  0  0  0  0  0
   -3.6067    0.7963   -0.8997 H   0  0  0  0  0  0  0  0  0  0  0  0
   -1.9056    1.2061   -1.1008 H   0  0  0  0  0  0  0  0  0  0  0  0
    1.3758   -0.6472    2.0407 N   0  0  0  0  0  0  0  0  0  0  0  0
    2.4948   -1.2173    2.7558 C   0  0  2  0  0  0  0  0  0  0  0  0
    3.2863   -0.0748    3.3784 C   0  0  0  0  0  0  0  0  0  0  0  0
    3.2407    1.0797    2.9588 O   0  0  0  0  0  0  0  0  0  0  0  0
    3.3740   -2.0491    1.8350 C   0  0  0  0  0  0  0  0  0  0  0  0
    0.4851   -1.1315    2.1021 H   0  0  0  0  0  0  0  0  0  0  0  0
    2.0760   -1.8468    3.5484 H   0  0  0  0  0  0  0  0  0  0  0  0
    3.8026   -1.4353    1.0343 H   0  0  0  0  0  0  0  0  0  0  0  0
    4.2053   -2.5036    2.3840 H   0  0  0  0  0  0  0  0  0  0  0  0
    2.7961   -2.8522    1.3650 H   0  0  0  0  0  0  0  0  0  0  0  0
    4.0827   -0.5044    4.4308 N   0  0  0  0  0  0  0  0  0  0  0  0
    4.9379    0.3892    5.1765 C   0  0  0  0  0  0  0  0  0  0  0  0
    4.0432   -1.4764    4.7229 H   0  0  0  0  0  0  0  0  0  0  0  0
    5.9432    0.3932    4.7300 H   0  0  0  0  0  0  0  0  0  0  0  0
    4.5198    1.4062    5.1473 H   0  0  0  0  0  0  0  0  0  0  0  0
    5.0020    0.0489    6.2206 H   0  0  0  0  0  0  0  0  0  0  0  0
  1  3  1  0  0  0  0
  1  7  1  0  0  0  0
  1  2  2  0  0  0  0
 37 38  1  0  0  0  0
 38 46  1  0  0  0  0
 38 39  2  0  0  0  0
  8  9  1  0  0  0  0
  9 17  1  0  0  0  0
  9 10  2  0  0  0  0
 18 19  1  0  0  0  0
 19 36  1  0  0  0  0
 19 20  2  0  0  0  0
 37 40  1  0  0  0  0
  8 11  1  0  0  0  0
 22 23  1  0  0  0  0
 22 24  1  0  0  0  0
 46 47  1  0  0  0  0
 18 21  1  0  0  0  0
 21 22  1  0  0  0  0
 36 37  1  0  0  0  0
  7  8  1  0  0  0  0
 17 18  1  0  0  0  0
  3  4  1  0  0  0  0
  3  5  1  0  0  0  0
  3  6  1  0  0  0  0
 40 43  1  0  0  0  0
 40 44  1  0  0  0  0
 40 45  1  0  0  0  0
 11 14  1  0  0  0  0
 11 15  1  0  0  0  0
 11 16  1  0  0  0  0
 23 30  1  0  0  0  0
 23 31  1  0  0  0  0
 23 32  1  0  0  0  0
 24 33  1  0  0  0  0
 24 34  1  0  0  0  0
 24 35  1  0  0  0  0
 47 49  1  0  0  0  0
 47 50  1  0  0  0  0
 47 51  1  0  0  0  0
 21 27  1  0  0  0  0
 21 28  1  0  0  0  0
 37 42  1  0  0  0  0
  8 13  1  0  0  0  0
 18 26  1  0  0  0  0
 22 29  1  0  0  0  0
 46 48  1  0  0  0  0
  7 12  1  0  0  0  0
 36 41  1  0  0  0  0
 17 25  1  0  0  0  0
M  END
$$$$

  -OEChem-05262214473D

 51 50  0     1  0  0  0  0  0999 V2000
    3.4018   -1.2440   -3.0186 C   0  0  0  0  0  0  0  0  0  0  0  0
    3.2697   -2.0909   -2.1427 O   0  0  0  0  0  0  0  0  0  0  0  0
    4.6845   -1.1645   -3.7779 C   0  0  0  0  0  0  0  0  0  0  0  0
    5.4123   -0.4862   -3.3041 H   0  0  0  0  0  0  0  0  0  0  0  0
    5.1949   -2.1387   -3.8443 H   0  0  0  0  0  0  0  0  0  0  0  0
    4.5953   -0.8128   -4.8182 H   0  0  0  0  0  0  0  0  0  0  0  0
    2.4540   -0.3103   -3.4040 N   0  0  0  0  0  0  0  0  0  0  0  0
    1.1494   -0.2128   -2.8039 C   0  0  2  0  0  0  0  0  0  0  0  0
    1.3350    0.0367   -1.3130 C   0  0  0  0  0  0  0  0  0  0  0  0
    2.3625   -0.2586   -0.7063 O   0  0  0  0  0  0  0  0  0  0  0  0
    0.3331   -1.4728   -3.0467 C   0  0  0  0  0  0  0  0  0  0  0  0
    2.6924    0.3404   -4.1502 H   0  0  0  0  0  0  0  0  0  0  0  0
    0.6550    0.6514   -3.2607 H   0  0  0  0  0  0  0  0  0  0  0  0
    0.8129   -2.3494   -2.5963 H   0  0  0  0  0  0  0  0  0  0  0  0
   -0.6690   -1.3857   -2.6142 H   0  0  0  0  0  0  0  0  0  0  0  0
    0.2259   -1.6670   -4.1194 H   0  0  0  0  0  0  0  0  0  0  0  0
    0.2019    0.5893   -0.7269 N   0  0  0  0  0  0  0  0  0  0  0  0
    0.1242    0.9059    0.6756 C   0  0  2  0  0  0  0  0  0  0  0  0
    1.4631    0.5219    1.2975 C   0  0  0  0  0  0  0  0  0  0  0  0
    2.3981    1.3116    1.4138 O   0  0  0  0  0  0  0  0  0  0  0  0
   -1.0192    0.1611    1.3764 C   0  0  0  0  0  0  0  0  0  0  0  0
   -2.4341    0.5678    0.9164 C   0  0  0  0  0  0  0  0  0  0  0  0
   -3.4730   -0.3441    1.5751 C   0  0  0  0  0  0  0  0  0  0  0  0
   -2.5908    0.5130   -0.6038 C   0  0  0  0  0  0  0  0  0  0  0  0
   -0.5975    0.8179   -1.3140 H   0  0  0  0  0  0  0  0  0  0  0  0
   -0.0009    1.9907    0.7518 H   0  0  0  0  0  0  0  0  0  0  0  0
   -0.9401    0.3289    2.4597 H   0  0  0  0  0  0  0  0  0  0  0  0
   -0.8919   -0.9200    1.2318 H   0  0  0  0  0  0  0  0  0  0  0  0
   -2.6387    1.5936    1.2463 H   0  0  0  0  0  0  0  0  0  0  0  0
   -3.3176   -1.3875    1.2807 H   0  0  0  0  0  0  0  0  0  0  0  0
   -4.4868   -0.0610    1.2726 H   0  0  0  0  0  0  0  0  0  0  0  0
   -3.4164   -0.2880    2.6675 H   0  0  0  0  0  0  0  0  0  0  0  0
   -2.3963   -0.4945   -0.9869 H   0  0  0  0  0  0  0  0  0  0  0  0
   -3.6067    0.7963   -0.8997 H   0  0  0  0  0  0  0  0  0  0  0  0
   -1.9056    1.2061   -1.1008 H   0  0  0  0  0  0  0  0  0  0  0  0
    1.4692   -0.7898    1.7513 N   0  0  0  0  0  0  0  0  0  0  0  0
    2.6061   -1.3970    2.4051 C   0  0  2  0  0  0  0  0  0  0  0  0
    3.2293   -0.3571    3.3269 C   0  0  0  0  0  0  0  0  0  0  0  0
    3.0758    0.8529    3.1738 O   0  0  0  0  0  0  0  0  0  0  0  0
    3.6212   -1.9038    1.3925 C   0  0  0  0  0  0  0  0  0  0  0  0
    0.6371   -1.3602    1.6338 H   0  0  0  0  0  0  0  0  0  0  0  0
    2.2198   -2.2303    3.0021 H   0  0  0  0  0  0  0  0  0  0  0  0
    4.0195   -1.0829    0.7849 H   0  0  0  0  0  0  0  0  0  0  0  0
    4.4683   -2.3889    1.8885 H   0  0  0  0  0  0  0  0  0  0  0  0
    3.1636   -2.6295    0.7115 H   0  0  0  0  0  0  0  0  0  0  0  0
    4.0123   -0.9376    4.3148 N   0  0  0  0  0  0  0  0  0  0  0  0
    4.7203   -0.1608    5.3054 C   0  0  0  0  0  0  0  0  0  0  0  0
    4.0675   -1.9499    4.3781 H   0  0  0  0  0  0  0  0  0  0  0  0
    5.7409    0.0446    4.9502 H   0  0  0  0  0  0  0  0  0  0  0  0
    4.1920    0.7895    5.4722 H   0  0  0  0  0  0  0  0  0  0  0  0
    4.7671   -0.7248    6.2487 H   0  0  0  0  0  0  0  0  0  0  0  0
  1  3  1  0  0  0  0
  1  7  1  0  0  0  0
  1  2  2  0  0  0  0
 37 38  1  0  0  0  0
 38 46  1  0  0  0  0
 38 39  2  0  0  0  0
  8  9  1  0  0  0  0
  9 17  1  0  0  0  0
  9 10  2  0  0  0  0
 18 19  1  0  0  0  0
 19 36  1  0  0  0  0
 19 20  2  0  0  0  0
 37 40  1  0  0  0  0
  8 11  1  0  0  0  0
 22 23  1  0  0  0  0
 22 24  1  0  0  0  0
 46 47  1  0  0  0  0
 18 21  1  0  0  0  0
 21 22  1  0  0  0  0
 36 37  1  0  0  0  0
  7  8  1  0  0  0  0
 17 18  1  0  0  0  0
  3  4  1  0  0  0  0
  3  5  1  0  0  0  0
  3  6  1  0  0  0  0
 40 43  1  0  0  0  0
 40 44  1  0  0  0  0
 40 45  1  0  0  0  0
 11 14  1  0  0  0  0
 11 15  1  0  0  0  0
 11 16  1  0  0  0  0
 23 30  1  0  0  0  0
 23 31  1  0  0  0  0
 23 32  1  0  0  0  0
 24 33  1  0  0  0  0
 24 34  1  0  0  0  0
 24 35  1  0  0  0  0
 47 49  1  0  0  0  0
 47 50  1  0  0  0  0
 47 51  1  0  0  0  0
 21 27  1  0  0  0  0
 21 28  1  0  0  0  0
 37 42  1  0  0  0  0
  8 13  1  0  0  0  0
 18 26  1  0  0  0  0
 22 29  1  0  0  0  0
 46 48  1  0  0  0  0
  7 12  1  0  0  0  0
 36 41  1  0  0  0  0
 17 25  1  0  0  0  0
M  END
$$$$

  -OEChem-05262214473D

 51 50  0     1  0  0  0  0  0999 V2000
    3.4018   -1.2440   -3.0186 C   0  0  0  0  0  0  0  0  0  0  0  0
    3.2697   -2.0909   -2.1427 O   0  0  0  0  0  0  0  0  0  0  0  0
    4.6845   -1.1645   -3.7779 C   0  0  0  0  0  0  0  0  0  0  0  0
    5.4123   -0.4862   -3.3041 H   0  0  0  0  0  0  0  0  0  0  0  0
    5.1949   -2.1387   -3.8443 H   0  0  0  0  0  0  0  0  0  0  0  0
    4.5953   -0.8128   -4.8182 H   0  0  0  0  0  0  0  0  0  0  0  0
    2.4540   -0.3103   -3.4040 N   0  0  0  0  0  0  0  0  0  0  0  0
    1.1494   -0.2128   -2.8039 C   0  0  2  0  0  0  0  0  0  0  0  0
    1.3350    0.0367   -1.3130 C   0  0  0  0  0  0  0  0  0  0  0  0
    2.3625   -0.2586   -0.7063 O   0  0  0  0  0  0  0  0  0  0  0  0
    0.3331   -1.4728   -3.0467 C   0  0  0  0  0  0  0  0  0  0  0  0
    2.6924    0.3404   -4.1502 H   0  0  0  0  0  0  0  0  0  0  0  0
    0.6550    0.6514   -3.2607 H   0  0  0  0  0  0  0  0  0  0  0  0
    0.8129   -2.3494   -2.5963 H   0  0  0  0  0  0  0  0  0  0  0  0
   -0.6690   -1.3857   -2.6142 H   0  0  0  0  0  0  0  0  0  0  0  0
    0.2259   -1.6670   -4.1194 H   0  0  0  0  0  0  0  0  0  0  0  0
    0.2019    0.5893   -0.7269 N   0  0  0  0  0  0  0  0  0  0  0  0
    0.1242    0.9059    0.6756 C   0  0  2  0  0  0  0  0  0  0  0  0
    1.4631    0.5219    1.2975 C   0  0  0  0  0  0  0  0  0  0  0  0
    2.2953    1.3511    1.6595 O   0  0  0  0  0  0  0  0  0  0  0  0
   -1.0192    0.1611    1.3764 C   0  0  0  0  0  0  0  0  0  0  0  0
   -2.4341    0.5678    0.9164 C   0  0  0  0  0  0  0  0  0  0  0  0
   -3.4730   -0.3441    1.5751 C   0  0  0  0  0  0  0  0  0  0  0  0
   -2.5908    0.5130   -0.6038 C   0  0  0  0  0  0  0  0  0  0  0  0
   -0.5975    0.8179   -1.3140 H   0  0  0  0  0  0  0  0  0  0  0  0
   -0.0009    1.9907    0.7518 H   0  0  0  0  0  0  0  0  0  0  0  0
   -0.9401    0.3289    2.4597 H   0  0  0  0  0  0  0  0  0  0  0  0
   -0.8919   -0.9200    1.2318 H   0  0  0  0  0  0  0  0  0  0  0  0
   -2.6387    1.5936    1.2463 H   0  0  0  0  0  0  0  0  0  0  0  0
   -3.3176   -1.3875    1.2807 H   0  0  0  0  0  0  0  0  0  0  0  0
   -4.4868   -0.0610    1.2726 H   0  0  0  0  0  0  0  0  0  0  0  0
   -3.4164   -0.2880    2.6675 H   0  0  0  0  0  0  0  0  0  0  0  0
   -2.3963   -0.4945   -0.9869 H   0  0  0  0  0  0  0  0  0  0  0  0
   -3.6067    0.7963   -0.8997 H   0  0  0  0  0  0  0  0  0  0  0  0
   -1.9056    1.2061   -1.1008 H   0  0  0  0  0  0  0  0  0  0  0  0
    1.5935   -0.8520    1.4455 N   0  0  0  0  0  0  0  0  0  0  0  0
    2.7555   -1.4793    2.0329 C   0  0  2  0  0  0  0  0  0  0  0  0
    3.2074   -0.6241    3.2092 C   0  0  0  0  0  0  0  0  0  0  0  0
    2.9264    0.5676    3.3193 O   0  0  0  0  0  0  0  0  0  0  0  0
    3.8736   -1.6368    1.0141 C   0  0  0  0  0  0  0  0  0  0  0  0
    0.8385   -1.4586    1.1394 H   0  0  0  0  0  0  0  0  0  0  0  0
    2.4348   -2.4615    2.3966 H   0  0  0  0  0  0  0  0  0  0  0  0
    4.2081   -0.6629    0.6383 H   0  0  0  0  0  0  0  0  0  0  0  0
    4.7426   -2.1378    1.4531 H   0  0  0  0  0  0  0  0  0  0  0  0
    3.5375   -2.2271    0.1548 H   0  0  0  0  0  0  0  0  0  0  0  0
    3.9975   -1.3373    4.0998 N   0  0  0  0  0  0  0  0  0  0  0  0
    4.5598   -0.7444    5.2908 C   0  0  0  0  0  0  0  0  0  0  0  0
    4.1634   -2.3264    3.9392 H   0  0  0  0  0  0  0  0  0  0  0  0
    5.5680   -0.3636    5.0706 H   0  0  0  0  0  0  0  0  0  0  0  0
    3.9194    0.0854    5.6245 H   0  0  0  0  0  0  0  0  0  0  0  0
    4.6199   -1.5033    6.0847 H   0  0  0  0  0  0  0  0  0  0  0  0
  1  3  1  0  0  0  0
  1  7  1  0  0  0  0
  1  2  2  0  0  0  0
 37 38  1  0  0  0  0
 38 46  1  0  0  0  0
 38 39  2  0  0  0  0
  8  9  1  0  0  0  0
  9 17  1  0  0  0  0
  9 10  2  0  0  0  0
 18 19  1  0  0  0  0
 19 36  1  0  0  0  0
 19 20  2  0  0  0  0
 37 40  1  0  0  0  0
  8 11  1  0  0  0  0
 22 23  1  0  0  0  0
 22 24  1  0  0  0  0
 46 47  1  0  0  0  0
 18 21  1  0  0  0  0
 21 22  1  0  0  0  0
 36 37  1  0  0  0  0
  7  8  1  0  0  0  0
 17 18  1  0  0  0  0
  3  4  1  0  0  0  0
  3  5  1  0  0  0  0
  3  6  1  0  0  0  0
 40 43  1  0  0  0  0
 40 44  1  0  0  0  0
 40 45  1  0  0  0  0
 11 14  1  0  0  0  0
 11 15  1  0  0  0  0
 11 16  1  0  0  0  0
 23 30  1  0  0  0  0
 23 31  1  0  0  0  0
 23 32  1  0  0  0  0
 24 33  1  0  0  0  0
 24 34  1  0  0  0  0
 24 35  1  0  0  0  0
 47 49  1  0  0  0  0
 47 50  1  0  0  0  0
 47 51  1  0  0  0  0
 21 27  1  0  0  0  0
 21 28  1  0  0  0  0
 37 42  1  0  0  0  0
  8 13  1  0  0  0  0
 18 26  1  0  0  0  0
 22 29  1  0  0  0  0
 46 48  1  0  0  0  0
  7 12  1  0  0  0  0
 36 41  1  0  0  0  0
 17 25  1  0  0  0  0
M  END
$$$$

  -OEChem-05262214473D

 51 50  0     1  0  0  0  0  0999 V2000
    3.4018   -1.2440   -3.0186 C   0  0  0  0  0  0  0  0  0  0  0  0
    3.2697   -2.0909   -2.1427 O   0  0  0  0  0  0  0  0  0  0  0  0
    4.6845   -1.1645   -3.7779 C   0  0  0  0  0  0  0  0  0  0  0  0
    5.4123   -0.4862   -3.3041 H   0  0  0  0  0  0  0  0  0  0  0  0
    5.1949   -2.1387   -3.8443 H   0  0  0  0  0  0  0  0  0  0  0  0
    4.5953   -0.8128   -4.8182 H   0  0  0  0  0  0  0  0  0  0  0  0
    2.4540   -0.3103   -3.4040 N   0  0  0  0  0  0  0  0  0  0  0  0
    1.1494   -0.2128   -2.8039 C   0  0  2  0  0  0  0  0  0  0  0  0
    1.3350    0.0367   -1.3130 C   0  0  0  0  0  0  0  0  0  0  0  0
    2.3625   -0.2586   -0.7063 O   0  0  0  0  0  0  0  0  0  0  0  0
    0.3331   -1.4728   -3.0467 C   0  0  0  0  0  0  0  0  0  0  0  0
    2.6924    0.3404   -4.1502 H   0  0  0  0  0  0  0  0  0  0  0  0
    0.6550    0.6514   -3.2607 H   0  0  0  0  0  0  0  0  0  0  0  0
    0.8129   -2.3494   -2.5963 H   0  0  0  0  0  0  0  0  0  0  0  0
   -0.6690   -1.3857   -2.6142 H   0  0  0  0  0  0  0  0  0  0  0  0
    0.2259   -1.6670   -4.1194 H   0  0  0  0  0  0  0  0  0  0  0  0
    0.2019    0.5893   -0.7269 N   0  0  0  0  0  0  0  0  0  0  0  0
    0.1242    0.9059    0.6756 C   0  0  2  0  0  0  0  0  0  0  0  0
    1.4631    0.5219    1.2975 C   0  0  0  0  0  0  0  0  0  0  0  0
    2.1759    1.3227    1.8990 O   0  0  0  0  0  0  0  0  0  0  0  0
   -1.0192    0.1611    1.3764 C   0  0  0  0  0  0  0  0  0  0  0  0
   -2.4341    0.5678    0.9164 C   0  0  0  0  0  0  0  0  0  0  0  0
   -3.4730   -0.3441    1.5751 C   0  0  0  0  0  0  0  0  0  0  0  0
   -2.5908    0.5130   -0.6038 C   0  0  0  0  0  0  0  0  0  0  0  0
   -0.5975    0.8179   -1.3140 H   0  0  0  0  0  0  0  0  0  0  0  0
   -0.0009    1.9907    0.7518 H   0  0  0  0  0  0  0  0  0  0  0  0
   -0.9401    0.3289    2.4597 H   0  0  0  0  0  0  0  0  0  0  0  0
   -0.8919   -0.9200    1.2318 H   0  0  0  0  0  0  0  0  0  0  0  0
   -2.6387    1.5936    1.2463 H   0  0  0  0  0  0  0  0  0  0  0  0
   -3.3176   -1.3875    1.2807 H   0  0  0  0  0  0  0  0  0  0  0  0
   -4.4868   -0.0610    1.2726 H   0  0  0  0  0  0  0  0  0  0  0  0
   -3.4164   -0.2880    2.6675 H   0  0  0  0  0  0  0  0  0  0  0  0
   -2.3963   -0.4945   -0.9869 H   0  0  0  0  0  0  0  0  0  0  0  0
   -3.6067    0.7963   -0.8997 H   0  0  0  0  0  0  0  0  0  0  0  0
   -1.9056    1.2061   -1.1008 H   0  0  0  0  0  0  0  0  0  0  0  0
    1.7399   -0.8296    1.1441 N   0  0  0  0  0  0  0  0  0  0  0  0
    2.9326   -1.4584    1.6643 C   0  0  2  0  0  0  0  0  0  0  0  0
    3.2220   -0.8575    3.0335 C   0  0  0  0  0  0  0  0  0  0  0  0
    2.8027    0.2431    3.3853 O   0  0  0  0  0  0  0  0  0  0  0  0
    4.1137   -1.2663    0.7258 C   0  0  0  0  0  0  0  0  0  0  0  0
    1.0757   -1.4202    0.6525 H   0  0  0  0  0  0  0  0  0  0  0  0
    2.7062   -2.5246    1.7732 H   0  0  0  0  0  0  0  0  0  0  0  0
    4.3554   -0.2041    0.6043 H   0  0  0  0  0  0  0  0  0  0  0  0
    5.0094   -1.7675    1.1074 H   0  0  0  0  0  0  0  0  0  0  0  0
    3.8926   -1.6725   -0.2671 H   0  0  0  0  0  0  0  0  0  0  0  0
    4.0395   -1.6760    3.8004 N   0  0  0  0  0  0  0  0  0  0  0  0
    4.4672   -1.3216    5.1336 C   0  0  0  0  0  0  0  0  0  0  0  0
    4.3244   -2.5803    3.4359 H   0  0  0  0  0  0  0  0  0  0  0  0
    5.4361   -0.8034    5.0828 H   0  0  0  0  0  0  0  0  0  0  0  0
    3.7203   -0.6581    5.5939 H   0  0  0  0  0  0  0  0  0  0  0  0
    4.5707   -2.2336    5.7399 H   0  0  0  0  0  0  0  0  0  0  0  0
  1  3  1  0  0  0  0
  1  7  1  0  0  0  0
  1  2  2  0  0  0  0
 37 38  1  0  0  0  0
 38 46  1  0  0  0  0
 38 39  2  0  0  0  0
  8  9  1  0  0  0  0
  9 17  1  0  0  0  0
  9 10  2  0  0  0  0
 18 19  1  0  0  0  0
 19 36  1  0  0  0  0
 19 20  2  0  0  0  0
 37 40  1  0  0  0  0
  8 11  1  0  0  0  0
 22 23  1  0  0  0  0
 22 24  1  0  0  0  0
 46 47  1  0  0  0  0
 18 21  1  0  0  0  0
 21 22  1  0  0  0  0
 36 37  1  0  0  0  0
  7  8  1  0  0  0  0
 17 18  1  0  0  0  0
  3  4  1  0  0  0  0
  3  5  1  0  0  0  0
  3  6  1  0  0  0  0
 40 43  1  0  0  0  0
 40 44  1  0  0  0  0
 40 45  1  0  0  0  0
 11 14  1  0  0  0  0
 11 15  1  0  0  0  0
 11 16  1  0  0  0  0
 23 30  1  0  0  0  0
 23 31  1  0  0  0  0
 23 32  1  0  0  0  0
 24 33  1  0  0  0  0
 24 34  1  0  0  0  0
 24 35  1  0  0  0  0
 47 49  1  0  0  0  0
 47 50  1  0  0  0  0
 47 51  1  0  0  0  0
 21 27  1  0  0  0  0
 21 28  1  0  0  0  0
 37 42  1  0  0  0  0
  8 13  1  0  0  0  0
 18 26  1  0  0  0  0
 22 29  1  0  0  0  0
 46 48  1  0  0  0  0
  7 12  1  0  0  0  0
 36 41  1  0  0  0  0
 17 25  1  0  0  0  0
M  END
$$$$

  -OEChem-05262214473D

 51 50  0     1  0  0  0  0  0999 V2000
    3.4018   -1.2440   -3.0186 C   0  0  0  0  0  0  0  0  0  0  0  0
    3.2697   -2.0909   -2.1427 O   0  0  0  0  0  0  0  0  0  0  0  0
    4.6845   -1.1645   -3.7779 C   0  0  0  0  0  0  0  0  0  0  0  0
    5.4123   -0.4862   -3.3041 H   0  0  0  0  0  0  0  0  0  0  0  0
    5.1949   -2.1387   -3.8443 H   0  0  0  0  0  0  0  0  0  0  0  0
    4.5953   -0.8128   -4.8182 H   0  0  0  0  0  0  0  0  0  0  0  0
    2.4540   -0.3103   -3.4040 N   0  0  0  0  0  0  0  0  0  0  0  0
    1.1494   -0.2128   -2.8039 C   0  0  2  0  0  0  0  0  0  0  0  0
    1.3350    0.0367   -1.3130 C   0  0  0  0  0  0  0  0  0  0  0  0
    2.3625   -0.2586   -0.7063 O   0  0  0  0  0  0  0  0  0  0  0  0
    0.3331   -1.4728   -3.0467 C   0  0  0  0  0  0  0  0  0  0  0  0
    2.6924    0.3404   -4.1502 H   0  0  0  0  0  0  0  0  0  0  0  0
    0.6550    0.6514   -3.2607 H   0  0  0  0  0  0  0  0  0  0  0  0
    0.8129   -2.3494   -2.5963 H   0  0  0  0  0  0  0  0  0  0  0  0
   -0.6690   -1.3857   -2.6142 H   0  0  0  0  0  0  0  0  0  0  0  0
    0.2259   -1.6670   -4.1194 H   0  0  0  0  0  0  0  0  0  0  0  0
    0.2019    0.5893   -0.7269 N   0  0  0  0  0  0  0  0  0  0  0  0
    0.1242    0.9059    0.6756 C   0  0  2  0  0  0  0  0  0  0  0  0
    1.4631    0.5219    1.2975 C   0  0  0  0  0  0  0  0  0  0  0  0
    2.0479    1.2283    2.1162 O   0  0  0  0  0  0  0  0  0  0  0  0
   -1.0192    0.1611    1.3764 C   0  0  0  0  0  0  0  0  0  0  0  0
   -2.4341    0.5678    0.9164 C   0  0  0  0  0  0  0  0  0  0  0  0
   -3.4730   -0.3441    1.5751 C   0  0  0  0  0  0  0  0  0  0  0  0
   -2.5908    0.5130   -0.6038 C   0  0  0  0  0  0  0  0  0  0  0  0
   -0.5975    0.8179   -1.3140 H   0  0  0  0  0  0  0  0  0  0  0  0
   -0.0009    1.9907    0.7518 H   0  0  0  0  0  0  0  0  0  0  0  0
   -0.9401    0.3289    2.4597 H   0  0  0  0  0  0  0  0  0  0  0  0
   -0.8919   -0.9200    1.2318 H   0  0  0  0  0  0  0  0  0  0  0  0
   -2.6387    1.5936    1.2463 H   0  0  0  0  0  0  0  0  0  0  0  0
   -3.3176   -1.3875    1.2807 H   0  0  0  0  0  0  0  0  0  0  0  0
   -4.4868   -0.0610    1.2726 H   0  0  0  0  0  0  0  0  0  0  0  0
   -3.4164   -0.2880    2.6675 H   0  0  0  0  0  0  0  0  0  0  0  0
   -2.3963   -0.4945   -0.9869 H   0  0  0  0  0  0  0  0  0  0  0  0
   -3.6067    0.7963   -0.8997 H   0  0  0  0  0  0  0  0  0  0  0  0
   -1.9056    1.2061   -1.1008 H   0  0  0  0  0  0  0  0  0  0  0  0
    1.8987   -0.7239    0.8676 N   0  0  0  0  0  0  0  0  0  0  0  0
    3.1256   -1.3358    1.3246 C   0  0  2  0  0  0  0  0  0  0  0  0
    3.2723   -1.0416    2.8117 C   0  0  0  0  0  0  0  0  0  0  0  0
    2.7132   -0.0983    3.3672 O   0  0  0  0  0  0  0  0  0  0  0  0
    4.3254   -0.8176    0.5471 C   0  0  0  0  0  0  0  0  0  0  0  0
    1.3324   -1.2474    0.2065 H   0  0  0  0  0  0  0  0  0  0  0  0
    3.0157   -2.4153    1.1744 H   0  0  0  0  0  0  0  0  0  0  0  0
    4.4516    0.2624    0.6853 H   0  0  0  0  0  0  0  0  0  0  0  0
    5.2505   -1.3031    0.8751 H   0  0  0  0  0  0  0  0  0  0  0  0
    4.2045   -1.0035   -0.5256 H   0  0  0  0  0  0  0  0  0  0  0  0
    4.1352   -1.9307    3.4370 N   0  0  0  0  0  0  0  0  0  0  0  0
    4.4490   -1.8533    4.8446 C   0  0  0  0  0  0  0  0  0  0  0  0
    4.5395   -2.6941    2.9026 H   0  0  0  0  0  0  0  0  0  0  0  0
    5.3544   -1.2449    4.9861 H   0  0  0  0  0  0  0  0  0  0  0  0
    3.6085   -1.3903    5.3825 H   0  0  0  0  0  0  0  0  0  0  0  0
    4.6226   -2.8659    5.2377 H   0  0  0  0  0  0  0  0  0  0  0  0
  1  3  1  0  0  0  0
  1  7  1  0  0  0  0
  1  2  2  0  0  0  0
 37 38  1  0  0  0  0
 38 46  1  0  0  0  0
 38 39  2  0  0  0  0
  8  9  1  0  0  0  0
  9 17  1  0  0  0  0
  9 10  2  0  0  0  0
 18 19  1  0  0  0  0
 19 36  1  0  0  0  0
 19 20  2  0  0  0  0
 37 40  1  0  0  0  0
  8 11  1  0  0  0  0
 22 23  1  0  0  0  0
 22 24  1  0  0  0  0
 46 47  1  0  0  0  0
 18 21  1  0  0  0  0
 21 22  1  0  0  0  0
 36 37  1  0  0  0  0
  7  8  1  0  0  0  0
 17 18  1  0  0  0  0
  3  4  1  0  0  0  0
  3  5  1  0  0  0  0
  3  6  1  0  0  0  0
 40 43  1  0  0  0  0
 40 44  1  0  0  0  0
 40 45  1  0  0  0  0
 11 14  1  0  0  0  0
 11 15  1  0  0  0  0
 11 16  1  0  0  0  0
 23 30  1  0  0  0  0
 23 31  1  0  0  0  0
 23 32  1  0  0  0  0
 24 33  1  0  0  0  0
 24 34  1  0  0  0  0
 24 35  1  0  0  0  0
 47 49  1  0  0  0  0
 47 50  1  0  0  0  0
 47 51  1  0  0  0  0
 21 27  1  0  0  0  0
 21 28  1  0  0  0  0
 37 42  1  0  0  0  0
  8 13  1  0  0  0  0
 18 26  1  0  0  0  0
 22 29  1  0  0  0  0
 46 48  1  0  0  0  0
  7 12  1  0  0  0  0
 36 41  1  0  0  0  0
 17 25  1  0  0  0  0
M  END
$$$$

  -OEChem-05262214473D

 51 50  0     1  0  0  0  0  0999 V2000
    3.4018   -1.2440   -3.0186 C   0  0  0  0  0  0  0  0  0  0  0  0
    3.2697   -2.0909   -2.1427 O   0  0  0  0  0  0  0  0  0  0  0  0
    4.6845   -1.1645   -3.7779 C   0  0  0  0  0  0  0  0  0  0  0  0
    5.4123   -0.4862   -3.3041 H   0  0  0  0  0  0  0  0  0  0  0  0
    5.1949   -2.1387   -3.8443 H   0  0  0  0  0  0  0  0  0  0  0  0
    4.5953   -0.8128   -4.8182 H   0  0  0  0  0  0  0  0  0  0  0  0
    2.4540   -0.3103   -3.4040 N   0  0  0  0  0  0  0  0  0  0  0  0
    1.1494   -0.2128   -2.8039 C   0  0  2  0  0  0  0  0  0  0  0  0
    1.3350    0.0367   -1.3130 C   0  0  0  0  0  0  0  0  0  0  0  0
    2.3625   -0.2586   -0.7063 O   0  0  0  0  0  0  0  0  0  0  0  0
    0.3331   -1.4728   -3.0467 C   0  0  0  0  0  0  0  0  0  0  0  0
    2.6924    0.3404   -4.1502 H   0  0  0  0  0  0  0  0  0  0  0  0
    0.6550    0.6514   -3.2607 H   0  0  0  0  0  0  0  0  0  0  0  0
    0.8129   -2.3494   -2.5963 H   0  0  0  0  0  0  0  0  0  0  0  0
   -0.6690   -1.3857   -2.6142 H   0  0  0  0  0  0  0  0  0  0  0  0
    0.2259   -1.6670   -4.1194 H   0  0  0  0  0  0  0  0  0  0  0  0
    0.2019    0.5893   -0.7269 N   0  0  0  0  0  0  0  0  0  0  0  0
    0.1242    0.9059    0.6756 C   0  0  2  0  0  0  0  0  0  0  0  0
    1.4631    0.5219    1.2975 C   0  0  0  0  0  0  0  0  0  0  0  0
    1.9201    1.0742    2.2962 O   0  0  0  0  0  0  0  0  0  0  0  0
   -1.0192    0.1611    1.3764 C   0  0  0  0  0  0  0  0  0  0  0  0
   -2.4341    0.5678    0.9164 C   0  0  0  0  0  0  0  0  0  0  0  0
   -3.4730   -0.3441    1.5751 C   0  0  0  0  0  0  0  0  0  0  0  0
   -2.5908    0.5130   -0.6038 C   0  0  0  0  0  0  0  0  0  0  0  0
   -0.5975    0.8179   -1.3140 H   0  0  0  0  0  0  0  0  0  0  0  0
   -0.0009    1.9907    0.7518 H   0  0  0  0  0  0  0  0  0  0  0  0
   -0.9401    0.3289    2.4597 H   0  0  0  0  0  0  0  0  0  0  0  0
   -0.8919   -0.9200    1.2318 H   0  0  0  0  0  0  0  0  0  0  0  0
   -2.6387    1.5936    1.2463 H   0  0  0  0  0  0  0  0  0  0  0  0
   -3.3176   -1.3875    1.2807 H   0  0  0  0  0  0  0  0  0  0  0  0
   -4.4868   -0.0610    1.2726 H   0  0  0  0  0  0  0  0  0  0  0  0
   -3.4164   -0.2880    2.6675 H   0  0  0  0  0  0  0  0  0  0  0  0
   -2.3963   -0.4945   -0.9869 H   0  0  0  0  0  0  0  0  0  0  0  0
   -3.6067    0.7963   -0.8997 H   0  0  0  0  0  0  0  0  0  0  0  0
   -1.9056    1.2061   -1.1008 H   0  0  0  0  0  0  0  0  0  0  0  0
    2.0589   -0.5423    0.6348 N   0  0  0  0  0  0  0  0  0  0  0  0
    3.3212   -1.1198    1.0369 C   0  0  2  0  0  0  0  0  0  0  0  0
    3.3547   -1.1637    2.5589 C   0  0  0  0  0  0  0  0  0  0  0  0
    2.6639   -0.4334    3.2664 O   0  0  0  0  0  0  0  0  0  0  0  0
    4.4942   -0.3213    0.4902 C   0  0  0  0  0  0  0  0  0  0  0  0
    1.5912   -0.9521   -0.1683 H   0  0  0  0  0  0  0  0  0  0  0  0
    3.3422   -2.1410    0.6410 H   0  0  0  0  0  0  0  0  0  0  0  0
    4.4900    0.7048    0.8758 H   0  0  0  0  0  0  0  0  0  0  0  0
    5.4496   -0.7762    0.7718 H   0  0  0  0  0  0  0  0  0  0  0  0
    4.4521   -0.2656   -0.6029 H   0  0  0  0  0  0  0  0  0  0  0  0
    4.2783   -2.0841    3.0343 N   0  0  0  0  0  0  0  0  0  0  0  0
    4.5063   -2.3031    4.4436 C   0  0  0  0  0  0  0  0  0  0  0  0
    4.7940   -2.6603    2.3756 H   0  0  0  0  0  0  0  0  0  0  0  0
    5.3284   -1.6581    4.7871 H   0  0  0  0  0  0  0  0  0  0  0  0
    3.5916   -2.0613    5.0047 H   0  0  0  0  0  0  0  0  0  0  0  0
    4.7722   -3.3570    4.6124 H   0  0  0  0  0  0  0  0  0  0  0  0
  1  3  1  0  0  0  0
  1  7  1  0  0  0  0
  1  2  2  0  0  0  0
 37 38  1  0  0  0  0
 38 46  1  0  0  0  0
 38 39  2  0  0  0  0
  8  9  1  0  0  0  0
  9 17  1  0  0  0  0
  9 10  2  0  0  0  0
 18 19  1  0  0  0  0
 19 36  1  0  0  0  0
 19 20  2  0  0  0  0
 37 40  1  0  0  0  0
  8 11  1  0  0  0  0
 22 23  1  0  0  0  0
 22 24  1  0  0  0  0
 46 47  1  0  0  0  0
 18 21  1  0  0  0  0
 21 22  1  0  0  0  0
 36 37  1  0  0  0  0
  7  8  1  0  0  0  0
 17 18  1  0  0  0  0
  3  4  1  0  0  0  0
  3  5  1  0  0  0  0
  3  6  1  0  0  0  0
 40 43  1  0  0  0  0
 40 44  1  0  0  0  0
 40 45  1  0  0  0  0
 11 14  1  0  0  0  0
 11 15  1  0  0  0  0
 11 16  1  0  0  0  0
 23 30  1  0  0  0  0
 23 31  1  0  0  0  0
 23 32  1  0  0  0  0
 24 33  1  0  0  0  0
 24 34  1  0  0  0  0
 24 35  1  0  0  0  0
 47 49  1  0  0  0  0
 47 50  1  0  0  0  0
 47 51  1  0  0  0  0
 21 27  1  0  0  0  0
 21 28  1  0  0  0  0
 37 42  1  0  0  0  0
  8 13  1  0  0  0  0
 18 26  1  0  0  0  0
 22 29  1  0  0  0  0
 46 48  1  0  0  0  0
  7 12  1  0  0  0  0
 36 41  1  0  0  0  0
 17 25  1  0  0  0  0
M  END
$$$$

  -OEChem-05262214473D

 51 50  0     1  0  0  0  0  0999 V2000
    3.4018   -1.2440   -3.0186 C   0  0  0  0  0  0  0  0  0  0  0  0
    3.2697   -2.0909   -2.1427 O   0  0  0  0  0  0  0  0  0  0  0  0
    4.6845   -1.1645   -3.7779 C   0  0  0  0  0  0  0  0  0  0  0  0
    5.4123   -0.4862   -3.3041 H   0  0  0  0  0  0  0  0  0  0  0  0
    5.1949   -2.1387   -3.8443 H   0  0  0  0  0  0  0  0  0  0  0  0
    4.5953   -0.8128   -4.8182 H   0  0  0  0  0  0  0  0  0  0  0  0
    2.4540   -0.3103   -3.4040 N   0  0  0  0  0  0  0  0  0  0  0  0
    1.1494   -0.2128   -2.8039 C   0  0  2  0  0  0  0  0  0  0  0  0
    1.3350    0.0367   -1.3130 C   0  0  0  0  0  0  0  0  0  0  0  0
    2.3625   -0.2586   -0.7063 O   0  0  0  0  0  0  0  0  0  0  0  0
    0.3331   -1.4728   -3.0467 C   0  0  0  0  0  0  0  0  0  0  0  0
    2.6924    0.3404   -4.1502 H   0  0  0  0  0  0  0  0  0  0  0  0
    0.6550    0.6514   -3.2607 H   0  0  0  0  0  0  0  0  0  0  0  0
    0.8129   -2.3494   -2.5963 H   0  0  0  0  0  0  0  0  0  0  0  0
   -0.6690   -1.3857   -2.6142 H   0  0  0  0  0  0  0  0  0  0  0  0
    0.2259   -1.6670   -4.1194 H   0  0  0  0  0  0  0  0  0  0  0  0
    0.2019    0.5893   -0.7269 N   0  0  0  0  0  0  0  0  0  0  0  0
    0.1242    0.9059    0.6756 C   0  0  2  0  0  0  0  0  0  0  0  0
    1.4631    0.5219    1.2975 C   0  0  0  0  0  0  0  0  0  0  0  0
    1.8012    0.8710    2.4267 O   0  0  0  0  0  0  0  0  0  0  0  0
   -1.0192    0.1611    1.3764 C   0  0  0  0  0  0  0  0  0  0  0  0
   -2.4341    0.5678    0.9164 C   0  0  0  0  0  0  0  0  0  0  0  0
   -3.4730   -0.3441    1.5751 C   0  0  0  0  0  0  0  0  0  0  0  0
   -2.5908    0.5130   -0.6038 C   0  0  0  0  0  0  0  0  0  0  0  0
   -0.5975    0.8179   -1.3140 H   0  0  0  0  0  0  0  0  0  0  0  0
   -0.0009    1.9907    0.7518 H   0  0  0  0  0  0  0  0  0  0  0  0
   -0.9401    0.3289    2.4597 H   0  0  0  0  0  0  0  0  0  0  0  0
   -0.8919   -0.9200    1.2318 H   0  0  0  0  0  0  0  0  0  0  0  0
   -2.6387    1.5936    1.2463 H   0  0  0  0  0  0  0  0  0  0  0  0
   -3.3176   -1.3875    1.2807 H   0  0  0  0  0  0  0  0  0  0  0  0
   -4.4868   -0.0610    1.2726 H   0  0  0  0  0  0  0  0  0  0  0  0
   -3.4164   -0.2880    2.6675 H   0  0  0  0  0  0  0  0  0  0  0  0
   -2.3963   -0.4945   -0.9869 H   0  0  0  0  0  0  0  0  0  0  0  0
   -3.6067    0.7963   -0.8997 H   0  0  0  0  0  0  0  0  0  0  0  0
   -1.9056    1.2061   -1.1008 H   0  0  0  0  0  0  0  0  0  0  0  0
    2.2096   -0.2971    0.4617 N   0  0  0  0  0  0  0  0  0  0  0  0
    3.5060   -0.8253    0.8208 C   0  0  2  0  0  0  0  0  0  0  0  0
    3.4637   -1.2155    2.2924 C   0  0  0  0  0  0  0  0  0  0  0  0
    2.6582   -0.7394    3.0897 O   0  0  0  0  0  0  0  0  0  0  0  0
    4.6086    0.1889    0.5590 C   0  0  0  0  0  0  0  0  0  0  0  0
    1.8345   -0.5543   -0.4465 H   0  0  0  0  0  0  0  0  0  0  0  0
    3.6633   -1.7205    0.2094 H   0  0  0  0  0  0  0  0  0  0  0  0
    4.4680    1.0928    1.1629 H   0  0  0  0  0  0  0  0  0  0  0  0
    5.5930   -0.2229    0.8047 H   0  0  0  0  0  0  0  0  0  0  0  0
    4.6184    0.4908   -0.4939 H   0  0  0  0  0  0  0  0  0  0  0  0
    4.4589   -2.1257    2.6198 N   0  0  0  0  0  0  0  0  0  0  0  0
    4.6352   -2.6404    3.9577 C   0  0  0  0  0  0  0  0  0  0  0  0
    5.0706   -2.4810    1.8908 H   0  0  0  0  0  0  0  0  0  0  0  0
    5.3598   -2.0147    4.4994 H   0  0  0  0  0  0  0  0  0  0  0  0
    3.6706   -2.6254    4.4862 H   0  0  0  0  0  0  0  0  0  0  0  0
    5.0093   -3.6736    3.9066 H   0  0  0  0  0  0  0  0  0  0  0  0
  1  3  1  0  0  0  0
  1  7  1  0  0  0  0
  1  2  2  0  0  0  0
 37 38  1  0  0  0  0
 38 46  1  0  0  0  0
 38 39  2  0  0  0  0
  8  9  1  0  0  0  0
  9 17  1  0  0  0  0
  9 10  2  0  0  0  0
 18 19  1  0  0  0  0
 19 36  1  0  0  0  0
 19 20  2  0  0  0  0
 37 40  1  0  0  0  0
  8 11  1  0  0  0  0
 22 23  1  0  0  0  0
 22 24  1  0  0  0  0
 46 47  1  0  0  0  0
 18 21  1  0  0  0  0
 21 22  1  0  0  0  0
 36 37  1  0  0  0  0
  7  8  1  0  0  0  0
 17 18  1  0  0  0  0
  3  4  1  0  0  0  0
  3  5  1  0  0  0  0
  3  6  1  0  0  0  0
 40 43  1  0  0  0  0
 40 44  1  0  0  0  0
 40 45  1  0  0  0  0
 11 14  1  0  0  0  0
 11 15  1  0  0  0  0
 11 16  1  0  0  0  0
 23 30  1  0  0  0  0
 23 31  1  0  0  0  0
 23 32  1  0  0  0  0
 24 33  1  0  0  0  0
 24 34  1  0  0  0  0
 24 35  1  0  0  0  0
 47 49  1  0  0  0  0
 47 50  1  0  0  0  0
 47 51  1  0  0  0  0
 21 27  1  0  0  0  0
 21 28  1  0  0  0  0
 37 42  1  0  0  0  0
  8 13  1  0  0  0  0
 18 26  1  0  0  0  0
 22 29  1  0  0  0  0
 46 48  1  0  0  0  0
  7 12  1  0  0  0  0
 36 41  1  0  0  0  0
 17 25  1  0  0  0  0
M  END
$$$$

  -OEChem-05262214473D

 51 50  0     1  0  0  0  0  0999 V2000
    3.4018   -1.2440   -3.0186 C   0  0  0  0  0  0  0  0  0  0  0  0
    3.2697   -2.0909   -2.1427 O   0  0  0  0  0  0  0  0  0  0  0  0
    4.6845   -1.1645   -3.7779 C   0  0  0  0  0  0  0  0  0  0  0  0
    5.4123   -0.4862   -3.3041 H   0  0  0  0  0  0  0  0  0  0  0  0
    5.1949   -2.1387   -3.8443 H   0  0  0  0  0  0  0  0  0  0  0  0
    4.5953   -0.8128   -4.8182 H   0  0  0  0  0  0  0  0  0  0  0  0
    2.4540   -0.3103   -3.4040 N   0  0  0  0  0  0  0  0  0  0  0  0
    1.1494   -0.2128   -2.8039 C   0  0  2  0  0  0  0  0  0  0  0  0
    1.3350    0.0367   -1.3130 C   0  0  0  0  0  0  0  0  0  0  0  0
    2.3625   -0.2586   -0.7063 O   0  0  0  0  0  0  0  0  0  0  0  0
    0.3331   -1.4728   -3.0467 C   0  0  0  0  0  0  0  0  0  0  0  0
    2.6924    0.3404   -4.1502 H   0  0  0  0  0  0  0  0  0  0  0  0
    0.6550    0.6514   -3.2607 H   0  0  0  0  0  0  0  0  0  0  0  0
    0.8129   -2.3494   -2.5963 H   0  0  0  0  0  0  0  0  0  0  0  0
   -0.6690   -1.3857   -2.6142 H   0  0  0  0  0  0  0  0  0  0  0  0
    0.2259   -1.6670   -4.1194 H   0  0  0  0  0  0  0  0  0  0  0  0
    0.2019    0.5893   -0.7269 N   0  0  0  0  0  0  0  0  0  0  0  0
    0.1242    0.9059    0.6756 C   0  0  2  0  0  0  0  0  0  0  0  0
    1.4631    0.5219    1.2975 C   0  0  0  0  0  0  0  0  0  0  0  0
    1.6993    0.6325    2.4988 O   0  0  0  0  0  0  0  0  0  0  0  0
   -1.0192    0.1611    1.3764 C   0  0  0  0  0  0  0  0  0  0  0  0
   -2.4341    0.5678    0.9164 C   0  0  0  0  0  0  0  0  0  0  0  0
   -3.4730   -0.3441    1.5751 C   0  0  0  0  0  0  0  0  0  0  0  0
   -2.5908    0.5130   -0.6038 C   0  0  0  0  0  0  0  0  0  0  0  0
   -0.5975    0.8179   -1.3140 H   0  0  0  0  0  0  0  0  0  0  0  0
   -0.0009    1.9907    0.7518 H   0  0  0  0  0  0  0  0  0  0  0  0
   -0.9401    0.3289    2.4597 H   0  0  0  0  0  0  0  0  0  0  0  0
   -0.8919   -0.9200    1.2318 H   0  0  0  0  0  0  0  0  0  0  0  0
   -2.6387    1.5936    1.2463 H   0  0  0  0  0  0  0  0  0  0  0  0
   -3.3176   -1.3875    1.2807 H   0  0  0  0  0  0  0  0  0  0  0  0
   -4.4868   -0.0610    1.2726 H   0  0  0  0  0  0  0  0  0  0  0  0
   -3.4164   -0.2880    2.6675 H   0  0  0  0  0  0  0  0  0  0  0  0
   -2.3963   -0.4945   -0.9869 H   0  0  0  0  0  0  0  0  0  0  0  0
   -3.6067    0.7963   -0.8997 H   0  0  0  0  0  0  0  0  0  0  0  0
   -1.9056    1.2061   -1.1008 H   0  0  0  0  0  0  0  0  0  0  0  0
    2.3406   -0.0050    0.3600 N   0  0  0  0  0  0  0  0  0  0  0  0
    3.6676   -0.4721    0.6911 C   0  0  2  0  0  0  0  0  0  0  0  0
    3.5917   -1.1935    2.0302 C   0  0  0  0  0  0  0  0  0  0  0  0
    2.6965   -0.9955    2.8491 O   0  0  0  0  0  0  0  0  0  0  0  0
    4.6607    0.6781    0.7488 C   0  0  0  0  0  0  0  0  0  0  0  0
    2.0456   -0.0813   -0.6089 H   0  0  0  0  0  0  0  0  0  0  0  0
    3.9572   -1.1823   -0.0911 H   0  0  0  0  0  0  0  0  0  0  0  0
    4.3870    1.4001    1.5268 H   0  0  0  0  0  0  0  0  0  0  0  0
    5.6710    0.3193    0.9716 H   0  0  0  0  0  0  0  0  0  0  0  0
    4.6921    1.2142   -0.2059 H   0  0  0  0  0  0  0  0  0  0  0  0
    4.6648   -2.0526    2.2217 N   0  0  0  0  0  0  0  0  0  0  0  0
    4.8270   -2.8423    3.4201 C   0  0  0  0  0  0  0  0  0  0  0  0
    5.3504   -2.1685    1.4813 H   0  0  0  0  0  0  0  0  0  0  0  0
    5.4465   -2.2904    4.1424 H   0  0  0  0  0  0  0  0  0  0  0  0
    3.8403   -3.0442    3.8624 H   0  0  0  0  0  0  0  0  0  0  0  0
    5.3177   -3.7940    3.1683 H   0  0  0  0  0  0  0  0  0  0  0  0
  1  3  1  0  0  0  0
  1  7  1  0  0  0  0
  1  2  2  0  0  0  0
 37 38  1  0  0  0  0
 38 46  1  0  0  0  0
 38 39  2  0  0  0  0
  8  9  1  0  0  0  0
  9 17  1  0  0  0  0
  9 10  2  0  0  0  0
 18 19  1  0  0  0  0
 19 36  1  0  0  0  0
 19 20  2  0  0  0  0
 37 40  1  0  0  0  0
  8 11  1  0  0  0  0
 22 23  1  0  0  0  0
 22 24  1  0  0  0  0
 46 47  1  0  0  0  0
 18 21  1  0  0  0  0
 21 22  1  0  0  0  0
 36 37  1  0  0  0  0
  7  8  1  0  0  0  0
 17 18  1  0  0  0  0
  3  4  1  0  0  0  0
  3  5  1  0  0  0  0
  3  6  1  0  0  0  0
 40 43  1  0  0  0  0
 40 44  1  0  0  0  0
 40 45  1  0  0  0  0
 11 14  1  0  0  0  0
 11 15  1  0  0  0  0
 11 16  1  0  0  0  0
 23 30  1  0  0  0  0
 23 31  1  0  0  0  0
 23 32  1  0  0  0  0
 24 33  1  0  0  0  0
 24 34  1  0  0  0  0
 24 35  1  0  0  0  0
 47 49  1  0  0  0  0
 47 50  1  0  0  0  0
 47 51  1  0  0  0  0
 21 27  1  0  0  0  0
 21 28  1  0  0  0  0
 37 42  1  0  0  0  0
  8 13  1  0  0  0  0
 18 26  1  0  0  0  0
 22 29  1  0  0  0  0
 46 48  1  0  0  0  0
  7 12  1  0  0  0  0
 36 41  1  0  0  0  0
 17 25  1  0  0  0  0
M  END
$$$$

  -OEChem-05262214473D

 51 50  0     1  0  0  0  0  0999 V2000
    3.4018   -1.2440   -3.0186 C   0  0  0  0  0  0  0  0  0  0  0  0
    3.2697   -2.0909   -2.1427 O   0  0  0  0  0  0  0  0  0  0  0  0
    4.6845   -1.1645   -3.7779 C   0  0  0  0  0  0  0  0  0  0  0  0
    5.4123   -0.4862   -3.3041 H   0  0  0  0  0  0  0  0  0  0  0  0
    5.1949   -2.1387   -3.8443 H   0  0  0  0  0  0  0  0  0  0  0  0
    4.5953   -0.8128   -4.8182 H   0  0  0  0  0  0  0  0  0  0  0  0
    2.4540   -0.3103   -3.4040 N   0  0  0  0  0  0  0  0  0  0  0  0
    1.1494   -0.2128   -2.8039 C   0  0  2  0  0  0  0  0  0  0  0  0
    1.3350    0.0367   -1.3130 C   0  0  0  0  0  0  0  0  0  0  0  0
    2.3625   -0.2586   -0.7063 O   0  0  0  0  0  0  0  0  0  0  0  0
    0.3331   -1.4728   -3.0467 C   0  0  0  0  0  0  0  0  0  0  0  0
    2.6924    0.3404   -4.1502 H   0  0  0  0  0  0  0  0  0  0  0  0
    0.6550    0.6514   -3.2607 H   0  0  0  0  0  0  0  0  0  0  0  0
    0.8129   -2.3494   -2.5963 H   0  0  0  0  0  0  0  0  0  0  0  0
   -0.6690   -1.3857   -2.6142 H   0  0  0  0  0  0  0  0  0  0  0  0
    0.2259   -1.6670   -4.1194 H   0  0  0  0  0  0  0  0  0  0  0  0
    0.2019    0.5893   -0.7269 N   0  0  0  0  0  0  0  0  0  0  0  0
    0.1242    0.9059    0.6756 C   0  0  2  0  0  0  0  0  0  0  0  0
    1.4631    0.5219    1.2975 C   0  0  0  0  0  0  0  0  0  0  0  0
    1.6213    0.3750    2.5077 O   0  0  0  0  0  0  0  0  0  0  0  0
   -1.0192    0.1611    1.3764 C   0  0  0  0  0  0  0  0  0  0  0  0
   -2.4341    0.5678    0.9164 C   0  0  0  0  0  0  0  0  0  0  0  0
   -3.4730   -0.3441    1.5751 C   0  0  0  0  0  0  0  0  0  0  0  0
   -2.5908    0.5130   -0.6038 C   0  0  0  0  0  0  0  0  0  0  0  0
   -0.5975    0.8179   -1.3140 H   0  0  0  0  0  0  0  0  0  0  0  0
   -0.0009    1.9907    0.7518 H   0  0  0  0  0  0  0  0  0  0  0  0
   -0.9401    0.3289    2.4597 H   0  0  0  0  0  0  0  0  0  0  0  0
   -0.8919   -0.9200    1.2318 H   0  0  0  0  0  0  0  0  0  0  0  0
   -2.6387    1.5936    1.2463 H   0  0  0  0  0  0  0  0  0  0  0  0
   -3.3176   -1.3875    1.2807 H   0  0  0  0  0  0  0  0  0  0  0  0
   -4.4868   -0.0610    1.2726 H   0  0  0  0  0  0  0  0  0  0  0  0
   -3.4164   -0.2880    2.6675 H   0  0  0  0  0  0  0  0  0  0  0  0
   -2.3963   -0.4945   -0.9869 H   0  0  0  0  0  0  0  0  0  0  0  0
   -3.6067    0.7963   -0.8997 H   0  0  0  0  0  0  0  0  0  0  0  0
   -1.9056    1.2061   -1.1008 H   0  0  0  0  0  0  0  0  0  0  0  0
    2.4430    0.3141    0.3367 N   0  0  0  0  0  0  0  0  0  0  0  0
    3.7948   -0.0845    0.6565 C   0  0  2  0  0  0  0  0  0  0  0  0
    3.7302   -1.0992    1.7904 C   0  0  0  0  0  0  0  0  0  0  0  0
    2.7763   -1.1841    2.5610 O   0  0  0  0  0  0  0  0  0  0  0  0
    4.6471    1.1131    1.0466 C   0  0  0  0  0  0  0  0  0  0  0  0
    2.2102    0.4348   -0.6446 H   0  0  0  0  0  0  0  0  0  0  0  0
    4.2039   -0.5632   -0.2399 H   0  0  0  0  0  0  0  0  0  0  0  0
    4.2527    1.6057    1.9429 H   0  0  0  0  0  0  0  0  0  0  0  0
    5.6782    0.8133    1.2610 H   0  0  0  0  0  0  0  0  0  0  0  0
    4.6682    1.8553    0.2414 H   0  0  0  0  0  0  0  0  0  0  0  0
    4.8818   -1.8699    1.8673 N   0  0  0  0  0  0  0  0  0  0  0  0
    5.0686   -2.8949    2.8675 C   0  0  0  0  0  0  0  0  0  0  0  0
    5.6144   -1.7441    1.1750 H   0  0  0  0  0  0  0  0  0  0  0  0
    5.5826   -2.4666    3.7407 H   0  0  0  0  0  0  0  0  0  0  0  0
    4.0890   -3.2891    3.1758 H   0  0  0  0  0  0  0  0  0  0  0  0
    5.6764   -3.7101    2.4479 H   0  0  0  0  0  0  0  0  0  0  0  0
  1  3  1  0  0  0  0
  1  7  1  0  0  0  0
  1  2  2  0  0  0  0
 37 38  1  0  0  0  0
 38 46  1  0  0  0  0
 38 39  2  0  0  0  0
  8  9  1  0  0  0  0
  9 17  1  0  0  0  0
  9 10  2  0  0  0  0
 18 19  1  0  0  0  0
 19 36  1  0  0  0  0
 19 20  2  0  0  0  0
 37 40  1  0  0  0  0
  8 11  1  0  0  0  0
 22 23  1  0  0  0  0
 22 24  1  0  0  0  0
 46 47  1  0  0  0  0
 18 21  1  0  0  0  0
 21 22  1  0  0  0  0
 36 37  1  0  0  0  0
  7  8  1  0  0  0  0
 17 18  1  0  0  0  0
  3  4  1  0  0  0  0
  3  5  1  0  0  0  0
  3  6  1  0  0  0  0
 40 43  1  0  0  0  0
 40 44  1  0  0  0  0
 40 45  1  0  0  0  0
 11 14  1  0  0  0  0
 11 15  1  0  0  0  0
 11 16  1  0  0  0  0
 23 30  1  0  0  0  0
 23 31  1  0  0  0  0
 23 32  1  0  0  0  0
 24 33  1  0  0  0  0
 24 34  1  0  0  0  0
 24 35  1  0  0  0  0
 47 49  1  0  0  0  0
 47 50  1  0  0  0  0
 47 51  1  0  0  0  0
 21 27  1  0  0  0  0
 21 28  1  0  0  0  0
 37 42  1  0  0  0  0
  8 13  1  0  0  0  0
 18 26  1  0  0  0  0
 22 29  1  0  0  0  0
 46 48  1  0  0  0  0
  7 12  1  0  0  0  0
 36 41  1  0  0  0  0
 17 25  1  0  0  0  0
M  END
$$$$

  -OEChem-05262214473D

 51 50  0     1  0  0  0  0  0999 V2000
    3.4018   -1.2440   -3.0186 C   0  0  0  0  0  0  0  0  0  0  0  0
    3.2697   -2.0909   -2.1427 O   0  0  0  0  0  0  0  0  0  0  0  0
    4.6845   -1.1645   -3.7779 C   0  0  0  0  0  0  0  0  0  0  0  0
    5.4123   -0.4862   -3.3041 H   0  0  0  0  0  0  0  0  0  0  0  0
    5.1949   -2.1387   -3.8443 H   0  0  0  0  0  0  0  0  0  0  0  0
    4.5953   -0.8128   -4.8182 H   0  0  0  0  0  0  0  0  0  0  0  0
    2.4540   -0.3103   -3.4040 N   0  0  0  0  0  0  0  0  0  0  0  0
    1.1494   -0.2128   -2.8039 C   0  0  2  0  0  0  0  0  0  0  0  0
    1.3350    0.0367   -1.3130 C   0  0  0  0  0  0  0  0  0  0  0  0
    2.3625   -0.2586   -0.7063 O   0  0  0  0  0  0  0  0  0  0  0  0
    0.3331   -1.4728   -3.0467 C   0  0  0  0  0  0  0  0  0  0  0  0
    2.6924    0.3404   -4.1502 H   0  0  0  0  0  0  0  0  0  0  0  0
    0.6550    0.6514   -3.2607 H   0  0  0  0  0  0  0  0  0  0  0  0
    0.8129   -2.3494   -2.5963 H   0  0  0  0  0  0  0  0  0  0  0  0
   -0.6690   -1.3857   -2.6142 H   0  0  0  0  0  0  0  0  0  0  0  0
    0.2259   -1.6670   -4.1194 H   0  0  0  0  0  0  0  0  0  0  0  0
    0.2019    0.5893   -0.7269 N   0  0  0  0  0  0  0  0  0  0  0  0
    0.1242    0.9059    0.6756 C   0  0  2  0  0  0  0  0  0  0  0  0
    1.4631    0.5219    1.2975 C   0  0  0  0  0  0  0  0  0  0  0  0
    1.5726    0.1160    2.4527 O   0  0  0  0  0  0  0  0  0  0  0  0
   -1.0192    0.1611    1.3764 C   0  0  0  0  0  0  0  0  0  0  0  0
   -2.4341    0.5678    0.9164 C   0  0  0  0  0  0  0  0  0  0  0  0
   -3.4730   -0.3441    1.5751 C   0  0  0  0  0  0  0  0  0  0  0  0
   -2.5908    0.5130   -0.6038 C   0  0  0  0  0  0  0  0  0  0  0  0
   -0.5975    0.8179   -1.3140 H   0  0  0  0  0  0  0  0  0  0  0  0
   -0.0009    1.9907    0.7518 H   0  0  0  0  0  0  0  0  0  0  0  0
   -0.9401    0.3289    2.4597 H   0  0  0  0  0  0  0  0  0  0  0  0
   -0.8919   -0.9200    1.2318 H   0  0  0  0  0  0  0  0  0  0  0  0
   -2.6387    1.5936    1.2463 H   0  0  0  0  0  0  0  0  0  0  0  0
   -3.3176   -1.3875    1.2807 H   0  0  0  0  0  0  0  0  0  0  0  0
   -4.4868   -0.0610    1.2726 H   0  0  0  0  0  0  0  0  0  0  0  0
   -3.4164   -0.2880    2.6675 H   0  0  0  0  0  0  0  0  0  0  0  0
   -2.3963   -0.4945   -0.9869 H   0  0  0  0  0  0  0  0  0  0  0  0
   -3.6067    0.7963   -0.8997 H   0  0  0  0  0  0  0  0  0  0  0  0
   -1.9056    1.2061   -1.1008 H   0  0  0  0  0  0  0  0  0  0  0  0
    2.5097    0.6384    0.3933 N   0  0  0  0  0  0  0  0  0  0  0  0
    3.8791    0.3112    0.7194 C   0  0  2  0  0  0  0  0  0  0  0  0
    3.8696   -0.9390    1.5891 C   0  0  0  0  0  0  0  0  0  0  0  0
    2.8919   -1.2924    2.2451 O   0  0  0  0  0  0  0  0  0  0  0  0
    4.5686    1.4641    1.4323 C   0  0  0  0  0  0  0  0  0  0  0  0
    2.3171    0.9588   -0.5511 H   0  0  0  0  0  0  0  0  0  0  0  0
    4.3865    0.0946   -0.2270 H   0  0  0  0  0  0  0  0  0  0  0  0
    4.0742    1.6956    2.3827 H   0  0  0  0  0  0  0  0  0  0  0  0
    5.6142    1.2254    1.6532 H   0  0  0  0  0  0  0  0  0  0  0  0
    4.5483    2.3705    0.8176 H   0  0  0  0  0  0  0  0  0  0  0  0
    5.0953   -1.5900    1.5805 N   0  0  0  0  0  0  0  0  0  0  0  0
    5.3435   -2.7947    2.3375 C   0  0  0  0  0  0  0  0  0  0  0  0
    5.8446   -1.2367    0.9927 H   0  0  0  0  0  0  0  0  0  0  0  0
    5.7588   -2.5311    3.3214 H   0  0  0  0  0  0  0  0  0  0  0  0
    4.3998   -3.3434    2.4731 H   0  0  0  0  0  0  0  0  0  0  0  0
    6.0609   -3.4275    1.7945 H   0  0  0  0  0  0  0  0  0  0  0  0
  1  3  1  0  0  0  0
  1  7  1  0  0  0  0
  1  2  2  0  0  0  0
 37 38  1  0  0  0  0
 38 46  1  0  0  0  0
 38 39  2  0  0  0  0
  8  9  1  0  0  0  0
  9 17  1  0  0  0  0
  9 10  2  0  0  0  0
 18 19  1  0  0  0  0
 19 36  1  0  0  0  0
 19 20  2  0  0  0  0
 37 40  1  0  0  0  0
  8 11  1  0  0  0  0
 22 23  1  0  0  0  0
 22 24  1  0  0  0  0
 46 47  1  0  0  0  0
 18 21  1  0  0  0  0
 21 22  1  0  0  0  0
 36 37  1  0  0  0  0
  7  8  1  0  0  0  0
 17 18  1  0  0  0  0
  3  4  1  0  0  0  0
  3  5  1  0  0  0  0
  3  6  1  0  0  0  0
 40 43  1  0  0  0  0
 40 44  1  0  0  0  0
 40 45  1  0  0  0  0
 11 14  1  0  0  0  0
 11 15  1  0  0  0  0
 11 16  1  0  0  0  0
 23 30  1  0  0  0  0
 23 31  1  0  0  0  0
 23 32  1  0  0  0  0
 24 33  1  0  0  0  0
 24 34  1  0  0  0  0
 24 35  1  0  0  0  0
 47 49  1  0  0  0  0
 47 50  1  0  0  0  0
 47 51  1  0  0  0  0
 21 27  1  0  0  0  0
 21 28  1  0  0  0  0
 37 42  1  0  0  0  0
  8 13  1  0  0  0  0
 18 26  1  0  0  0  0
 22 29  1  0  0  0  0
 46 48  1  0  0  0  0
  7 12  1  0  0  0  0
 36 41  1  0  0  0  0
 17 25  1  0  0  0  0
M  END
$$$$

  -OEChem-05262214473D

 51 50  0     1  0  0  0  0  0999 V2000
    3.4018   -1.2440   -3.0186 C   0  0  0  0  0  0  0  0  0  0  0  0
    3.2697   -2.0909   -2.1427 O   0  0  0  0  0  0  0  0  0  0  0  0
    4.6845   -1.1645   -3.7779 C   0  0  0  0  0  0  0  0  0  0  0  0
    5.4123   -0.4862   -3.3041 H   0  0  0  0  0  0  0  0  0  0  0  0
    5.1949   -2.1387   -3.8443 H   0  0  0  0  0  0  0  0  0  0  0  0
    4.5953   -0.8128   -4.8182 H   0  0  0  0  0  0  0  0  0  0  0  0
    2.4540   -0.3103   -3.4040 N   0  0  0  0  0  0  0  0  0  0  0  0
    1.1494   -0.2128   -2.8039 C   0  0  2  0  0  0  0  0  0  0  0  0
    1.3350    0.0367   -1.3130 C   0  0  0  0  0  0  0  0  0  0  0  0
    2.3625   -0.2586   -0.7063 O   0  0  0  0  0  0  0  0  0  0  0  0
    0.3331   -1.4728   -3.0467 C   0  0  0  0  0  0  0  0  0  0  0  0
    2.6924    0.3404   -4.1502 H   0  0  0  0  0  0  0  0  0  0  0  0
    0.6550    0.6514   -3.2607 H   0  0  0  0  0  0  0  0  0  0  0  0
    0.8129   -2.3494   -2.5963 H   0  0  0  0  0  0  0  0  0  0  0  0
   -0.6690   -1.3857   -2.6142 H   0  0  0  0  0  0  0  0  0  0  0  0
    0.2259   -1.6670   -4.1194 H   0  0  0  0  0  0  0  0  0  0  0  0
    0.2019    0.5893   -0.7269 N   0  0  0  0  0  0  0  0  0  0  0  0
    0.1242    0.9059    0.6756 C   0  0  2  0  0  0  0  0  0  0  0  0
    1.4631    0.5219    1.2975 C   0  0  0  0  0  0  0  0  0  0  0  0
    1.5564   -0.1268    2.3376 O   0  0  0  0  0  0  0  0  0  0  0  0
   -1.0192    0.1611    1.3764 C   0  0  0  0  0  0  0  0  0  0  0  0
   -2.4341    0.5678    0.9164 C   0  0  0  0  0  0  0  0  0  0  0  0
   -3.4730   -0.3441    1.5751 C   0  0  0  0  0  0  0  0  0  0  0  0
   -2.5908    0.5130   -0.6038 C   0  0  0  0  0  0  0  0  0  0  0  0
   -0.5975    0.8179   -1.3140 H   0  0  0  0  0  0  0  0  0  0  0  0
   -0.0009    1.9907    0.7518 H   0  0  0  0  0  0  0  0  0  0  0  0
   -0.9401    0.3289    2.4597 H   0  0  0  0  0  0  0  0  0  0  0  0
   -0.8919   -0.9200    1.2318 H   0  0  0  0  0  0  0  0  0  0  0  0
   -2.6387    1.5936    1.2463 H   0  0  0  0  0  0  0  0  0  0  0  0
   -3.3176   -1.3875    1.2807 H   0  0  0  0  0  0  0  0  0  0  0  0
   -4.4868   -0.0610    1.2726 H   0  0  0  0  0  0  0  0  0  0  0  0
   -3.4164   -0.2880    2.6675 H   0  0  0  0  0  0  0  0  0  0  0  0
   -2.3963   -0.4945   -0.9869 H   0  0  0  0  0  0  0  0  0  0  0  0
   -3.6067    0.7963   -0.8997 H   0  0  0  0  0  0  0  0  0  0  0  0
   -1.9056    1.2061   -1.1008 H   0  0  0  0  0  0  0  0  0  0  0  0
    2.5362    0.9458    0.5259 N   0  0  0  0  0  0  0  0  0  0  0  0
    3.9146    0.6881    0.8756 C   0  0  2  0  0  0  0  0  0  0  0  0
    4.0005   -0.7238    1.4402 C   0  0  0  0  0  0  0  0  0  0  0  0
    3.0357   -1.3130    1.9229 O   0  0  0  0  0  0  0  0  0  0  0  0
    4.4307    1.7072    1.8794 C   0  0  0  0  0  0  0  0  0  0  0  0
    2.3589    1.4549   -0.3348 H   0  0  0  0  0  0  0  0  0  0  0  0
    4.4927    0.7464   -0.0531 H   0  0  0  0  0  0  0  0  0  0  0  0
    3.8636    1.6637    2.8164 H   0  0  0  0  0  0  0  0  0  0  0  0
    5.4834    1.5277    2.1216 H   0  0  0  0  0  0  0  0  0  0  0  0
    4.3406    2.7245    1.4833 H   0  0  0  0  0  0  0  0  0  0  0  0
    5.2906   -1.2319    1.3811 N   0  0  0  0  0  0  0  0  0  0  0  0
    5.6330   -2.5485    1.8663 C   0  0  0  0  0  0  0  0  0  0  0  0
    6.0253   -0.6809    0.9469 H   0  0  0  0  0  0  0  0  0  0  0  0
    5.9631   -2.4795    2.9133 H   0  0  0  0  0  0  0  0  0  0  0  0
    4.7516   -3.2034    1.8023 H   0  0  0  0  0  0  0  0  0  0  0  0
    6.4451   -2.9656    1.2526 H   0  0  0  0  0  0  0  0  0  0  0  0
  1  3  1  0  0  0  0
  1  7  1  0  0  0  0
  1  2  2  0  0  0  0
 37 38  1  0  0  0  0
 38 46  1  0  0  0  0
 38 39  2  0  0  0  0
  8  9  1  0  0  0  0
  9 17  1  0  0  0  0
  9 10  2  0  0  0  0
 18 19  1  0  0  0  0
 19 36  1  0  0  0  0
 19 20  2  0  0  0  0
 37 40  1  0  0  0  0
  8 11  1  0  0  0  0
 22 23  1  0  0  0  0
 22 24  1  0  0  0  0
 46 47  1  0  0  0  0
 18 21  1  0  0  0  0
 21 22  1  0  0  0  0
 36 37  1  0  0  0  0
  7  8  1  0  0  0  0
 17 18  1  0  0  0  0
  3  4  1  0  0  0  0
  3  5  1  0  0  0  0
  3  6  1  0  0  0  0
 40 43  1  0  0  0  0
 40 44  1  0  0  0  0
 40 45  1  0  0  0  0
 11 14  1  0  0  0  0
 11 15  1  0  0  0  0
 11 16  1  0  0  0  0
 23 30  1  0  0  0  0
 23 31  1  0  0  0  0
 23 32  1  0  0  0  0
 24 33  1  0  0  0  0
 24 34  1  0  0  0  0
 24 35  1  0  0  0  0
 47 49  1  0  0  0  0
 47 50  1  0  0  0  0
 47 51  1  0  0  0  0
 21 27  1  0  0  0  0
 21 28  1  0  0  0  0
 37 42  1  0  0  0  0
  8 13  1  0  0  0  0
 18 26  1  0  0  0  0
 22 29  1  0  0  0  0
 46 48  1  0  0  0  0
  7 12  1  0  0  0  0
 36 41  1  0  0  0  0
 17 25  1  0  0  0  0
M  END
$$$$

  -OEChem-05262214473D

 51 50  0     1  0  0  0  0  0999 V2000
    3.4018   -1.2440   -3.0186 C   0  0  0  0  0  0  0  0  0  0  0  0
    3.2697   -2.0909   -2.1427 O   0  0  0  0  0  0  0  0  0  0  0  0
    4.6845   -1.1645   -3.7779 C   0  0  0  0  0  0  0  0  0  0  0  0
    5.4123   -0.4862   -3.3041 H   0  0  0  0  0  0  0  0  0  0  0  0
    5.1949   -2.1387   -3.8443 H   0  0  0  0  0  0  0  0  0  0  0  0
    4.5953   -0.8128   -4.8182 H   0  0  0  0  0  0  0  0  0  0  0  0
    2.4540   -0.3103   -3.4040 N   0  0  0  0  0  0  0  0  0  0  0  0
    1.1494   -0.2128   -2.8039 C   0  0  2  0  0  0  0  0  0  0  0  0
    1.3350    0.0367   -1.3130 C   0  0  0  0  0  0  0  0  0  0  0  0
    2.3625   -0.2586   -0.7063 O   0  0  0  0  0  0  0  0  0  0  0  0
    0.3331   -1.4728   -3.0467 C   0  0  0  0  0  0  0  0  0  0  0  0
    2.6924    0.3404   -4.1502 H   0  0  0  0  0  0  0  0  0  0  0  0
    0.6550    0.6514   -3.2607 H   0  0  0  0  0  0  0  0  0  0  0  0
    0.8129   -2.3494   -2.5963 H   0  0  0  0  0  0  0  0  0  0  0  0
   -0.6690   -1.3857   -2.6142 H   0  0  0  0  0  0  0  0  0  0  0  0
    0.2259   -1.6670   -4.1194 H   0  0  0  0  0  0  0  0  0  0  0  0
    0.2019    0.5893   -0.7269 N   0  0  0  0  0  0  0  0  0  0  0  0
    0.1242    0.9059    0.6756 C   0  0  2  0  0  0  0  0  0  0  0  0
    1.4631    0.5219    1.2975 C   0  0  0  0  0  0  0  0  0  0  0  0
    1.5740   -0.3368    2.1702 O   0  0  0  0  0  0  0  0  0  0  0  0
   -1.0192    0.1611    1.3764 C   0  0  0  0  0  0  0  0  0  0  0  0
   -2.4341    0.5678    0.9164 C   0  0  0  0  0  0  0  0  0  0  0  0
   -3.4730   -0.3441    1.5751 C   0  0  0  0  0  0  0  0  0  0  0  0
   -2.5908    0.5130   -0.6038 C   0  0  0  0  0  0  0  0  0  0  0  0
   -0.5975    0.8179   -1.3140 H   0  0  0  0  0  0  0  0  0  0  0  0
   -0.0009    1.9907    0.7518 H   0  0  0  0  0  0  0  0  0  0  0  0
   -0.9401    0.3289    2.4597 H   0  0  0  0  0  0  0  0  0  0  0  0
   -0.8919   -0.9200    1.2318 H   0  0  0  0  0  0  0  0  0  0  0  0
   -2.6387    1.5936    1.2463 H   0  0  0  0  0  0  0  0  0  0  0  0
   -3.3176   -1.3875    1.2807 H   0  0  0  0  0  0  0  0  0  0  0  0
   -4.4868   -0.0610    1.2726 H   0  0  0  0  0  0  0  0  0  0  0  0
   -3.4164   -0.2880    2.6675 H   0  0  0  0  0  0  0  0  0  0  0  0
   -2.3963   -0.4945   -0.9869 H   0  0  0  0  0  0  0  0  0  0  0  0
   -3.6067    0.7963   -0.8997 H   0  0  0  0  0  0  0  0  0  0  0  0
   -1.9056    1.2061   -1.1008 H   0  0  0  0  0  0  0  0  0  0  0  0
    2.5208    1.2154    0.7257 N   0  0  0  0  0  0  0  0  0  0  0  0
    3.8990    1.0203    1.1144 C   0  0  2  0  0  0  0  0  0  0  0  0
    4.1139   -0.4683    1.3538 C   0  0  0  0  0  0  0  0  0  0  0  0
    3.1977   -1.2446    1.6163 O   0  0  0  0  0  0  0  0  0  0  0  0
    4.2427    1.8260    2.3575 C   0  0  0  0  0  0  0  0  0  0  0  0
    2.3329    1.8895   -0.0105 H   0  0  0  0  0  0  0  0  0  0  0  0
    4.5151    1.3477    0.2698 H   0  0  0  0  0  0  0  0  0  0  0  0
    3.6353    1.5121    3.2143 H   0  0  0  0  0  0  0  0  0  0  0  0
    5.2946    1.6995    2.6341 H   0  0  0  0  0  0  0  0  0  0  0  0
    4.0592    2.8933    2.1933 H   0  0  0  0  0  0  0  0  0  0  0  0
    5.4545   -0.8202    1.2825 N   0  0  0  0  0  0  0  0  0  0  0  0
    5.9174   -2.1731    1.4859 C   0  0  0  0  0  0  0  0  0  0  0  0
    6.1441   -0.1146    1.0407 H   0  0  0  0  0  0  0  0  0  0  0  0
    6.1817   -2.3155    2.5441 H   0  0  0  0  0  0  0  0  0  0  0  0
    5.1203   -2.8787    1.2090 H   0  0  0  0  0  0  0  0  0  0  0  0
    6.8028   -2.3557    0.8592 H   0  0  0  0  0  0  0  0  0  0  0  0
  1  3  1  0  0  0  0
  1  7  1  0  0  0  0
  1  2  2  0  0  0  0
 37 38  1  0  0  0  0
 38 46  1  0  0  0  0
 38 39  2  0  0  0  0
  8  9  1  0  0  0  0
  9 17  1  0  0  0  0
  9 10  2  0  0  0  0
 18 19  1  0  0  0  0
 19 36  1  0  0  0  0
 19 20  2  0  0  0  0
 37 40  1  0  0  0  0
  8 11  1  0  0  0  0
 22 23  1  0  0  0  0
 22 24  1  0  0  0  0
 46 47  1  0  0  0  0
 18 21  1  0  0  0  0
 21 22  1  0  0  0  0
 36 37  1  0  0  0  0
  7  8  1  0  0  0  0
 17 18  1  0  0  0  0
  3  4  1  0  0  0  0
  3  5  1  0  0  0  0
  3  6  1  0  0  0  0
 40 43  1  0  0  0  0
 40 44  1  0  0  0  0
 40 45  1  0  0  0  0
 11 14  1  0  0  0  0
 11 15  1  0  0  0  0
 11 16  1  0  0  0  0
 23 30  1  0  0  0  0
 23 31  1  0  0  0  0
 23 32  1  0  0  0  0
 24 33  1  0  0  0  0
 24 34  1  0  0  0  0
 24 35  1  0  0  0  0
 47 49  1  0  0  0  0
 47 50  1  0  0  0  0
 47 51  1  0  0  0  0
 21 27  1  0  0  0  0
 21 28  1  0  0  0  0
 37 42  1  0  0  0  0
  8 13  1  0  0  0  0
 18 26  1  0  0  0  0
 22 29  1  0  0  0  0
 46 48  1  0  0  0  0
  7 12  1  0  0  0  0
 36 41  1  0  0  0  0
 17 25  1  0  0  0  0
M  END
$$$$

  -OEChem-05262214473D

 51 50  0     1  0  0  0  0  0999 V2000
    3.4018   -1.2440   -3.0186 C   0  0  0  0  0  0  0  0  0  0  0  0
    3.2697   -2.0909   -2.1427 O   0  0  0  0  0  0  0  0  0  0  0  0
    4.6845   -1.1645   -3.7779 C   0  0  0  0  0  0  0  0  0  0  0  0
    5.4123   -0.4862   -3.3041 H   0  0  0  0  0  0  0  0  0  0  0  0
    5.1949   -2.1387   -3.8443 H   0  0  0  0  0  0  0  0  0  0  0  0
    4.5953   -0.8128   -4.8182 H   0  0  0  0  0  0  0  0  0  0  0  0
    2.4540   -0.3103   -3.4040 N   0  0  0  0  0  0  0  0  0  0  0  0
    1.1494   -0.2128   -2.8039 C   0  0  2  0  0  0  0  0  0  0  0  0
    1.3350    0.0367   -1.3130 C   0  0  0  0  0  0  0  0  0  0  0  0
    2.3625   -0.2586   -0.7063 O   0  0  0  0  0  0  0  0  0  0  0  0
    0.3331   -1.4728   -3.0467 C   0  0  0  0  0  0  0  0  0  0  0  0
    2.6924    0.3404   -4.1502 H   0  0  0  0  0  0  0  0  0  0  0  0
    0.6550    0.6514   -3.2607 H   0  0  0  0  0  0  0  0  0  0  0  0
    0.8129   -2.3494   -2.5963 H   0  0  0  0  0  0  0  0  0  0  0  0
   -0.6690   -1.3857   -2.6142 H   0  0  0  0  0  0  0  0  0  0  0  0
    0.2259   -1.6670   -4.1194 H   0  0  0  0  0  0  0  0  0  0  0  0
    0.2019    0.5893   -0.7269 N   0  0  0  0  0  0  0  0  0  0  0  0
    0.1242    0.9059    0.6756 C   0  0  2  0  0  0  0  0  0  0  0  0
    1.4631    0.5219    1.2975 C   0  0  0  0  0  0  0  0  0  0  0  0
    1.6240   -0.4999    1.9619 O   0  0  0  0  0  0  0  0  0  0  0  0
   -1.0192    0.1611    1.3764 C   0  0  0  0  0  0  0  0  0  0  0  0
   -2.4341    0.5678    0.9164 C   0  0  0  0  0  0  0  0  0  0  0  0
   -3.4730   -0.3441    1.5751 C   0  0  0  0  0  0  0  0  0  0  0  0
   -2.5908    0.5130   -0.6038 C   0  0  0  0  0  0  0  0  0  0  0  0
   -0.5975    0.8179   -1.3140 H   0  0  0  0  0  0  0  0  0  0  0  0
   -0.0009    1.9907    0.7518 H   0  0  0  0  0  0  0  0  0  0  0  0
   -0.9401    0.3289    2.4597 H   0  0  0  0  0  0  0  0  0  0  0  0
   -0.8919   -0.9200    1.2318 H   0  0  0  0  0  0  0  0  0  0  0  0
   -2.6387    1.5936    1.2463 H   0  0  0  0  0  0  0  0  0  0  0  0
   -3.3176   -1.3875    1.2807 H   0  0  0  0  0  0  0  0  0  0  0  0
   -4.4868   -0.0610    1.2726 H   0  0  0  0  0  0  0  0  0  0  0  0
   -3.4164   -0.2880    2.6675 H   0  0  0  0  0  0  0  0  0  0  0  0
   -2.3963   -0.4945   -0.9869 H   0  0  0  0  0  0  0  0  0  0  0  0
   -3.6067    0.7963   -0.8997 H   0  0  0  0  0  0  0  0  0  0  0  0
   -1.9056    1.2061   -1.1008 H   0  0  0  0  0  0  0  0  0  0  0  0
    2.4644    1.4288    0.9789 N   0  0  0  0  0  0  0  0  0  0  0  0
    3.8333    1.2854    1.4195 C   0  0  2  0  0  0  0  0  0  0  0  0
    4.2021   -0.1899    1.3358 C   0  0  0  0  0  0  0  0  0  0  0  0
    3.3669   -1.0918    1.3463 O   0  0  0  0  0  0  0  0  0  0  0  0
    4.0173    1.8122    2.8341 C   0  0  0  0  0  0  0  0  0  0  0  0
    2.2407    2.2328    0.3998 H   0  0  0  0  0  0  0  0  0  0  0  0
    4.4523    1.8574    0.7198 H   0  0  0  0  0  0  0  0  0  0  0  0
    3.4048    1.2512    3.5494 H   0  0  0  0  0  0  0  0  0  0  0  0
    5.0607    1.7291    3.1559 H   0  0  0  0  0  0  0  0  0  0  0  0
    3.7234    2.8654    2.8991 H   0  0  0  0  0  0  0  0  0  0  0  0
    5.5758   -0.3827    1.2914 N   0  0  0  0  0  0  0  0  0  0  0  0
    6.1772   -1.6940    1.2223 C   0  0  0  0  0  0  0  0  0  0  0  0
    6.1931    0.4236    1.2677 H   0  0  0  0  0  0  0  0  0  0  0  0
    6.3995   -2.0501    2.2390 H   0  0  0  0  0  0  0  0  0  0  0  0
    5.4808   -2.3914    0.7338 H   0  0  0  0  0  0  0  0  0  0  0  0
    7.1095   -1.6395    0.6410 H   0  0  0  0  0  0  0  0  0  0  0  0
  1  3  1  0  0  0  0
  1  7  1  0  0  0  0
  1  2  2  0  0  0  0
 37 38  1  0  0  0  0
 38 46  1  0  0  0  0
 38 39  2  0  0  0  0
  8  9  1  0  0  0  0
  9 17  1  0  0  0  0
  9 10  2  0  0  0  0
 18 19  1  0  0  0  0
 19 36  1  0  0  0  0
 19 20  2  0  0  0  0
 37 40  1  0  0  0  0
  8 11  1  0  0  0  0
 22 23  1  0  0  0  0
 22 24  1  0  0  0  0
 46 47  1  0  0  0  0
 18 21  1  0  0  0  0
 21 22  1  0  0  0  0
 36 37  1  0  0  0  0
  7  8  1  0  0  0  0
 17 18  1  0  0  0  0
  3  4  1  0  0  0  0
  3  5  1  0  0  0  0
  3  6  1  0  0  0  0
 40 43  1  0  0  0  0
 40 44  1  0  0  0  0
 40 45  1  0  0  0  0
 11 14  1  0  0  0  0
 11 15  1  0  0  0  0
 11 16  1  0  0  0  0
 23 30  1  0  0  0  0
 23 31  1  0  0  0  0
 23 32  1  0  0  0  0
 24 33  1  0  0  0  0
 24 34  1  0  0  0  0
 24 35  1  0  0  0  0
 47 49  1  0  0  0  0
 47 50  1  0  0  0  0
 47 51  1  0  0  0  0
 21 27  1  0  0  0  0
 21 28  1  0  0  0  0
 37 42  1  0  0  0  0
  8 13  1  0  0  0  0
 18 26  1  0  0  0  0
 22 29  1  0  0  0  0
 46 48  1  0  0  0  0
  7 12  1  0  0  0  0
 36 41  1  0  0  0  0
 17 25  1  0  0  0  0
M  END
$$$$

  -OEChem-05262214473D

 51 50  0     1  0  0  0  0  0999 V2000
    3.4018   -1.2440   -3.0186 C   0  0  0  0  0  0  0  0  0  0  0  0
    3.2697   -2.0909   -2.1427 O   0  0  0  0  0  0  0  0  0  0  0  0
    4.6845   -1.1645   -3.7779 C   0  0  0  0  0  0  0  0  0  0  0  0
    5.4123   -0.4862   -3.3041 H   0  0  0  0  0  0  0  0  0  0  0  0
    5.1949   -2.1387   -3.8443 H   0  0  0  0  0  0  0  0  0  0  0  0
    4.5953   -0.8128   -4.8182 H   0  0  0  0  0  0  0  0  0  0  0  0
    2.4540   -0.3103   -3.4040 N   0  0  0  0  0  0  0  0  0  0  0  0
    1.1494   -0.2128   -2.8039 C   0  0  2  0  0  0  0  0  0  0  0  0
    1.3350    0.0367   -1.3130 C   0  0  0  0  0  0  0  0  0  0  0  0
    2.3625   -0.2586   -0.7063 O   0  0  0  0  0  0  0  0  0  0  0  0
    0.3331   -1.4728   -3.0467 C   0  0  0  0  0  0  0  0  0  0  0  0
    2.6924    0.3404   -4.1502 H   0  0  0  0  0  0  0  0  0  0  0  0
    0.6550    0.6514   -3.2607 H   0  0  0  0  0  0  0  0  0  0  0  0
    0.8129   -2.3494   -2.5963 H   0  0  0  0  0  0  0  0  0  0  0  0
   -0.6690   -1.3857   -2.6142 H   0  0  0  0  0  0  0  0  0  0  0  0
    0.2259   -1.6670   -4.1194 H   0  0  0  0  0  0  0  0  0  0  0  0
    0.2019    0.5893   -0.7269 N   0  0  0  0  0  0  0  0  0  0  0  0
    0.1242    0.9059    0.6756 C   0  0  2  0  0  0  0  0  0  0  0  0
    1.4631    0.5219    1.2975 C   0  0  0  0  0  0  0  0  0  0  0  0
    1.7030   -0.6047    1.7269 O   0  0  0  0  0  0  0  0  0  0  0  0
   -1.0192    0.1611    1.3764 C   0  0  0  0  0  0  0  0  0  0  0  0
   -2.4341    0.5678    0.9164 C   0  0  0  0  0  0  0  0  0  0  0  0
   -3.4730   -0.3441    1.5751 C   0  0  0  0  0  0  0  0  0  0  0  0
   -2.5908    0.5130   -0.6038 C   0  0  0  0  0  0  0  0  0  0  0  0
   -0.5975    0.8179   -1.3140 H   0  0  0  0  0  0  0  0  0  0  0  0
   -0.0009    1.9907    0.7518 H   0  0  0  0  0  0  0  0  0  0  0  0
   -0.9401    0.3289    2.4597 H   0  0  0  0  0  0  0  0  0  0  0  0
   -0.8919   -0.9200    1.2318 H   0  0  0  0  0  0  0  0  0  0  0  0
   -2.6387    1.5936    1.2463 H   0  0  0  0  0  0  0  0  0  0  0  0
   -3.3176   -1.3875    1.2807 H   0  0  0  0  0  0  0  0  0  0  0  0
   -4.4868   -0.0610    1.2726 H   0  0  0  0  0  0  0  0  0  0  0  0
   -3.4164   -0.2880    2.6675 H   0  0  0  0  0  0  0  0  0  0  0  0
   -2.3963   -0.4945   -0.9869 H   0  0  0  0  0  0  0  0  0  0  0  0
   -3.6067    0.7963   -0.8997 H   0  0  0  0  0  0  0  0  0  0  0  0
   -1.9056    1.2061   -1.1008 H   0  0  0  0  0  0  0  0  0  0  0  0
    2.3709    1.5715    1.2682 N   0  0  0  0  0  0  0  0  0  0  0  0
    3.7220    1.4651    1.7701 C   0  0  2  0  0  0  0  0  0  0  0  0
    4.2592    0.0924    1.3873 C   0  0  0  0  0  0  0  0  0  0  0  0
    3.5319   -0.8650    1.1312 O   0  0  0  0  0  0  0  0  0  0  0  0
    3.7701    1.6669    3.2766 C   0  0  0  0  0  0  0  0  0  0  0  0
    2.0888    2.4614    0.8682 H   0  0  0  0  0  0  0  0  0  0  0  0
    4.3085    2.2410    1.2661 H   0  0  0  0  0  0  0  0  0  0  0  0
    3.1879    0.8988    3.7987 H   0  0  0  0  0  0  0  0  0  0  0  0
    4.7977    1.6144    3.6514 H   0  0  0  0  0  0  0  0  0  0  0  0
    3.3559    2.6427    3.5526 H   0  0  0  0  0  0  0  0  0  0  0  0
    5.6462    0.0506    1.4074 N   0  0  0  0  0  0  0  0  0  0  0  0
    6.3948   -1.1440    1.0934 C   0  0  0  0  0  0  0  0  0  0  0  0
    6.1687    0.8971    1.6124 H   0  0  0  0  0  0  0  0  0  0  0  0
    6.6018   -1.7015    2.0188 H   0  0  0  0  0  0  0  0  0  0  0  0
    5.8086   -1.7747    0.4089 H   0  0  0  0  0  0  0  0  0  0  0  0
    7.3445   -0.8658    0.6129 H   0  0  0  0  0  0  0  0  0  0  0  0
  1  3  1  0  0  0  0
  1  7  1  0  0  0  0
  1  2  2  0  0  0  0
 37 38  1  0  0  0  0
 38 46  1  0  0  0  0
 38 39  2  0  0  0  0
  8  9  1  0  0  0  0
  9 17  1  0  0  0  0
  9 10  2  0  0  0  0
 18 19  1  0  0  0  0
 19 36  1  0  0  0  0
 19 20  2  0  0  0  0
 37 40  1  0  0  0  0
  8 11  1  0  0  0  0
 22 23  1  0  0  0  0
 22 24  1  0  0  0  0
 46 47  1  0  0  0  0
 18 21  1  0  0  0  0
 21 22  1  0  0  0  0
 36 37  1  0  0  0  0
  7  8  1  0  0  0  0
 17 18  1  0  0  0  0
  3  4  1  0  0  0  0
  3  5  1  0  0  0  0
  3  6  1  0  0  0  0
 40 43  1  0  0  0  0
 40 44  1  0  0  0  0
 40 45  1  0  0  0  0
 11 14  1  0  0  0  0
 11 15  1  0  0  0  0
 11 16  1  0  0  0  0
 23 30  1  0  0  0  0
 23 31  1  0  0  0  0
 23 32  1  0  0  0  0
 24 33  1  0  0  0  0
 24 34  1  0  0  0  0
 24 35  1  0  0  0  0
 47 49  1  0  0  0  0
 47 50  1  0  0  0  0
 47 51  1  0  0  0  0
 21 27  1  0  0  0  0
 21 28  1  0  0  0  0
 37 42  1  0  0  0  0
  8 13  1  0  0  0  0
 18 26  1  0  0  0  0
 22 29  1  0  0  0  0
 46 48  1  0  0  0  0
  7 12  1  0  0  0  0
 36 41  1  0  0  0  0
 17 25  1  0  0  0  0
M  END
$$$$

  -OEChem-05262214473D

 51 50  0     1  0  0  0  0  0999 V2000
    3.4018   -1.2440   -3.0186 C   0  0  0  0  0  0  0  0  0  0  0  0
    3.2697   -2.0909   -2.1427 O   0  0  0  0  0  0  0  0  0  0  0  0
    4.6845   -1.1645   -3.7779 C   0  0  0  0  0  0  0  0  0  0  0  0
    5.4123   -0.4862   -3.3041 H   0  0  0  0  0  0  0  0  0  0  0  0
    5.1949   -2.1387   -3.8443 H   0  0  0  0  0  0  0  0  0  0  0  0
    4.5953   -0.8128   -4.8182 H   0  0  0  0  0  0  0  0  0  0  0  0
    2.4540   -0.3103   -3.4040 N   0  0  0  0  0  0  0  0  0  0  0  0
    1.1494   -0.2128   -2.8039 C   0  0  2  0  0  0  0  0  0  0  0  0
    1.3350    0.0367   -1.3130 C   0  0  0  0  0  0  0  0  0  0  0  0
    2.3625   -0.2586   -0.7063 O   0  0  0  0  0  0  0  0  0  0  0  0
    0.3331   -1.4728   -3.0467 C   0  0  0  0  0  0  0  0  0  0  0  0
    2.6924    0.3404   -4.1502 H   0  0  0  0  0  0  0  0  0  0  0  0
    0.6550    0.6514   -3.2607 H   0  0  0  0  0  0  0  0  0  0  0  0
    0.8129   -2.3494   -2.5963 H   0  0  0  0  0  0  0  0  0  0  0  0
   -0.6690   -1.3857   -2.6142 H   0  0  0  0  0  0  0  0  0  0  0  0
    0.2259   -1.6670   -4.1194 H   0  0  0  0  0  0  0  0  0  0  0  0
    0.2019    0.5893   -0.7269 N   0  0  0  0  0  0  0  0  0  0  0  0
    0.1242    0.9059    0.6756 C   0  0  2  0  0  0  0  0  0  0  0  0
    1.4631    0.5219    1.2975 C   0  0  0  0  0  0  0  0  0  0  0  0
    1.8058   -0.6443    1.4813 O   0  0  0  0  0  0  0  0  0  0  0  0
   -1.0192    0.1611    1.3764 C   0  0  0  0  0  0  0  0  0  0  0  0
   -2.4341    0.5678    0.9164 C   0  0  0  0  0  0  0  0  0  0  0  0
   -3.4730   -0.3441    1.5751 C   0  0  0  0  0  0  0  0  0  0  0  0
   -2.5908    0.5130   -0.6038 C   0  0  0  0  0  0  0  0  0  0  0  0
   -0.5975    0.8179   -1.3140 H   0  0  0  0  0  0  0  0  0  0  0  0
   -0.0009    1.9907    0.7518 H   0  0  0  0  0  0  0  0  0  0  0  0
   -0.9401    0.3289    2.4597 H   0  0  0  0  0  0  0  0  0  0  0  0
   -0.8919   -0.9200    1.2318 H   0  0  0  0  0  0  0  0  0  0  0  0
   -2.6387    1.5936    1.2463 H   0  0  0  0  0  0  0  0  0  0  0  0
   -3.3176   -1.3875    1.2807 H   0  0  0  0  0  0  0  0  0  0  0  0
   -4.4868   -0.0610    1.2726 H   0  0  0  0  0  0  0  0  0  0  0  0
   -3.4164   -0.2880    2.6675 H   0  0  0  0  0  0  0  0  0  0  0  0
   -2.3963   -0.4945   -0.9869 H   0  0  0  0  0  0  0  0  0  0  0  0
   -3.6067    0.7963   -0.8997 H   0  0  0  0  0  0  0  0  0  0  0  0
   -1.9056    1.2061   -1.1008 H   0  0  0  0  0  0  0  0  0  0  0  0
    2.2467    1.6337    1.5740 N   0  0  0  0  0  0  0  0  0  0  0  0
    3.5726    1.5474    2.1424 C   0  0  2  0  0  0  0  0  0  0  0  0
    4.2811    0.3594    1.5050 C   0  0  0  0  0  0  0  0  0  0  0  0
    3.6813   -0.5797    0.9858 O   0  0  0  0  0  0  0  0  0  0  0  0
    3.5178    1.3999    3.6550 C   0  0  0  0  0  0  0  0  0  0  0  0
    1.8873    2.5599    1.3626 H   0  0  0  0  0  0  0  0  0  0  0  0
    4.0936    2.4722    1.8717 H   0  0  0  0  0  0  0  0  0  0  0  0
    2.9994    0.4788    3.9454 H   0  0  0  0  0  0  0  0  0  0  0  0
    4.5234    1.3633    4.0868 H   0  0  0  0  0  0  0  0  0  0  0  0
    2.9819    2.2403    4.1093 H   0  0  0  0  0  0  0  0  0  0  0  0
    5.6610    0.4502    1.6224 N   0  0  0  0  0  0  0  0  0  0  0  0
    6.5554   -0.5605    1.1080 C   0  0  0  0  0  0  0  0  0  0  0  0
    6.0728    1.2736    2.0514 H   0  0  0  0  0  0  0  0  0  0  0  0
    6.7748   -1.2933    1.8985 H   0  0  0  0  0  0  0  0  0  0  0  0
    6.0812   -1.0706    0.2566 H   0  0  0  0  0  0  0  0  0  0  0  0
    7.4916   -0.0873    0.7769 H   0  0  0  0  0  0  0  0  0  0  0  0
  1  3  1  0  0  0  0
  1  7  1  0  0  0  0
  1  2  2  0  0  0  0
 37 38  1  0  0  0  0
 38 46  1  0  0  0  0
 38 39  2  0  0  0  0
  8  9  1  0  0  0  0
  9 17  1  0  0  0  0
  9 10  2  0  0  0  0
 18 19  1  0  0  0  0
 19 36  1  0  0  0  0
 19 20  2  0  0  0  0
 37 40  1  0  0  0  0
  8 11  1  0  0  0  0
 22 23  1  0  0  0  0
 22 24  1  0  0  0  0
 46 47  1  0  0  0  0
 18 21  1  0  0  0  0
 21 22  1  0  0  0  0
 36 37  1  0  0  0  0
  7  8  1  0  0  0  0
 17 18  1  0  0  0  0
  3  4  1  0  0  0  0
  3  5  1  0  0  0  0
  3  6  1  0  0  0  0
 40 43  1  0  0  0  0
 40 44  1  0  0  0  0
 40 45  1  0  0  0  0
 11 14  1  0  0  0  0
 11 15  1  0  0  0  0
 11 16  1  0  0  0  0
 23 30  1  0  0  0  0
 23 31  1  0  0  0  0
 23 32  1  0  0  0  0
 24 33  1  0  0  0  0
 24 34  1  0  0  0  0
 24 35  1  0  0  0  0
 47 49  1  0  0  0  0
 47 50  1  0  0  0  0
 47 51  1  0  0  0  0
 21 27  1  0  0  0  0
 21 28  1  0  0  0  0
 37 42  1  0  0  0  0
  8 13  1  0  0  0  0
 18 26  1  0  0  0  0
 22 29  1  0  0  0  0
 46 48  1  0  0  0  0
  7 12  1  0  0  0  0
 36 41  1  0  0  0  0
 17 25  1  0  0  0  0
M  END
$$$$

  -OEChem-05262214473D

 51 50  0     1  0  0  0  0  0999 V2000
    3.4018   -1.2440   -3.0186 C   0  0  0  0  0  0  0  0  0  0  0  0
    3.2697   -2.0909   -2.1427 O   0  0  0  0  0  0  0  0  0  0  0  0
    4.6845   -1.1645   -3.7779 C   0  0  0  0  0  0  0  0  0  0  0  0
    5.4123   -0.4862   -3.3041 H   0  0  0  0  0  0  0  0  0  0  0  0
    5.1949   -2.1387   -3.8443 H   0  0  0  0  0  0  0  0  0  0  0  0
    4.5953   -0.8128   -4.8182 H   0  0  0  0  0  0  0  0  0  0  0  0
    2.4540   -0.3103   -3.4040 N   0  0  0  0  0  0  0  0  0  0  0  0
    1.1494   -0.2128   -2.8039 C   0  0  2  0  0  0  0  0  0  0  0  0
    1.3350    0.0367   -1.3130 C   0  0  0  0  0  0  0  0  0  0  0  0
    2.3625   -0.2586   -0.7063 O   0  0  0  0  0  0  0  0  0  0  0  0
    0.3331   -1.4728   -3.0467 C   0  0  0  0  0  0  0  0  0  0  0  0
    2.6924    0.3404   -4.1502 H   0  0  0  0  0  0  0  0  0  0  0  0
    0.6550    0.6514   -3.2607 H   0  0  0  0  0  0  0  0  0  0  0  0
    0.8129   -2.3494   -2.5963 H   0  0  0  0  0  0  0  0  0  0  0  0
   -0.6690   -1.3857   -2.6142 H   0  0  0  0  0  0  0  0  0  0  0  0
    0.2259   -1.6670   -4.1194 H   0  0  0  0  0  0  0  0  0  0  0  0
    0.2019    0.5893   -0.7269 N   0  0  0  0  0  0  0  0  0  0  0  0
    0.1242    0.9059    0.6756 C   0  0  2  0  0  0  0  0  0  0  0  0
    1.4631    0.5219    1.2975 C   0  0  0  0  0  0  0  0  0  0  0  0
    1.9252   -0.6159    1.2417 O   0  0  0  0  0  0  0  0  0  0  0  0
   -1.0192    0.1611    1.3764 C   0  0  0  0  0  0  0  0  0  0  0  0
   -2.4341    0.5678    0.9164 C   0  0  0  0  0  0  0  0  0  0  0  0
   -3.4730   -0.3441    1.5751 C   0  0  0  0  0  0  0  0  0  0  0  0
   -2.5908    0.5130   -0.6038 C   0  0  0  0  0  0  0  0  0  0  0  0
   -0.5975    0.8179   -1.3140 H   0  0  0  0  0  0  0  0  0  0  0  0
   -0.0009    1.9907    0.7518 H   0  0  0  0  0  0  0  0  0  0  0  0
   -0.9401    0.3289    2.4597 H   0  0  0  0  0  0  0  0  0  0  0  0
   -0.8919   -0.9200    1.2318 H   0  0  0  0  0  0  0  0  0  0  0  0
   -2.6387    1.5936    1.2463 H   0  0  0  0  0  0  0  0  0  0  0  0
   -3.3176   -1.3875    1.2807 H   0  0  0  0  0  0  0  0  0  0  0  0
   -4.4868   -0.0610    1.2726 H   0  0  0  0  0  0  0  0  0  0  0  0
   -3.4164   -0.2880    2.6675 H   0  0  0  0  0  0  0  0  0  0  0  0
   -2.3963   -0.4945   -0.9869 H   0  0  0  0  0  0  0  0  0  0  0  0
   -3.6067    0.7963   -0.8997 H   0  0  0  0  0  0  0  0  0  0  0  0
   -1.9056    1.2061   -1.1008 H   0  0  0  0  0  0  0  0  0  0  0  0
    2.1002    1.6112    1.8755 N   0  0  0  0  0  0  0  0  0  0  0  0
    3.3955    1.5265    2.5109 C   0  0  2  0  0  0  0  0  0  0  0  0
    4.2664    0.5928    1.6807 C   0  0  0  0  0  0  0  0  0  0  0  0
    3.8050   -0.2552    0.9198 O   0  0  0  0  0  0  0  0  0  0  0  0
    3.2776    1.0294    3.9433 C   0  0  0  0  0  0  0  0  0  0  0  0
    1.6502    2.5214    1.8494 H   0  0  0  0  0  0  0  0  0  0  0  0
    3.8221    2.5353    2.4950 H   0  0  0  0  0  0  0  0  0  0  0  0
    2.8520    0.0200    3.9794 H   0  0  0  0  0  0  0  0  0  0  0  0
    4.2566    0.9930    4.4325 H   0  0  0  0  0  0  0  0  0  0  0  0
    2.6269    1.6857    4.5312 H   0  0  0  0  0  0  0  0  0  0  0  0
    5.6190    0.7889    1.9218 N   0  0  0  0  0  0  0  0  0  0  0  0
    6.6480    0.0168    1.2652 C   0  0  0  0  0  0  0  0  0  0  0  0
    5.9119    1.5275    2.5547 H   0  0  0  0  0  0  0  0  0  0  0  0
    6.9066   -0.8535    1.8862 H   0  0  0  0  0  0  0  0  0  0  0  0
    6.2803   -0.3271    0.2872 H   0  0  0  0  0  0  0  0  0  0  0  0
    7.5408    0.6430    1.1217 H   0  0  0  0  0  0  0  0  0  0  0  0
  1  3  1  0  0  0  0
  1  7  1  0  0  0  0
  1  2  2  0  0  0  0
 37 38  1  0  0  0  0
 38 46  1  0  0  0  0
 38 39  2  0  0  0  0
  8  9  1  0  0  0  0
  9 17  1  0  0  0  0
  9 10  2  0  0  0  0
 18 19  1  0  0  0  0
 19 36  1  0  0  0  0
 19 20  2  0  0  0  0
 37 40  1  0  0  0  0
  8 11  1  0  0  0  0
 22 23  1  0  0  0  0
 22 24  1  0  0  0  0
 46 47  1  0  0  0  0
 18 21  1  0  0  0  0
 21 22  1  0  0  0  0
 36 37  1  0  0  0  0
  7  8  1  0  0  0  0
 17 18  1  0  0  0  0
  3  4  1  0  0  0  0
  3  5  1  0  0  0  0
  3  6  1  0  0  0  0
 40 43  1  0  0  0  0
 40 44  1  0  0  0  0
 40 45  1  0  0  0  0
 11 14  1  0  0  0  0
 11 15  1  0  0  0  0
 11 16  1  0  0  0  0
 23 30  1  0  0  0  0
 23 31  1  0  0  0  0
 23 32  1  0  0  0  0
 24 33  1  0  0  0  0
 24 34  1  0  0  0  0
 24 35  1  0  0  0  0
 47 49  1  0  0  0  0
 47 50  1  0  0  0  0
 47 51  1  0  0  0  0
 21 27  1  0  0  0  0
 21 28  1  0  0  0  0
 37 42  1  0  0  0  0
  8 13  1  0  0  0  0
 18 26  1  0  0  0  0
 22 29  1  0  0  0  0
 46 48  1  0  0  0  0
  7 12  1  0  0  0  0
 36 41  1  0  0  0  0
 17 25  1  0  0  0  0
M  END
$$$$

  -OEChem-05262214473D

 51 50  0     1  0  0  0  0  0999 V2000
    3.4018   -1.2440   -3.0186 C   0  0  0  0  0  0  0  0  0  0  0  0
    3.2697   -2.0909   -2.1427 O   0  0  0  0  0  0  0  0  0  0  0  0
    4.6845   -1.1645   -3.7779 C   0  0  0  0  0  0  0  0  0  0  0  0
    5.4123   -0.4862   -3.3041 H   0  0  0  0  0  0  0  0  0  0  0  0
    5.1949   -2.1387   -3.8443 H   0  0  0  0  0  0  0  0  0  0  0  0
    4.5953   -0.8128   -4.8182 H   0  0  0  0  0  0  0  0  0  0  0  0
    2.4540   -0.3103   -3.4040 N   0  0  0  0  0  0  0  0  0  0  0  0
    1.1494   -0.2128   -2.8039 C   0  0  2  0  0  0  0  0  0  0  0  0
    1.3350    0.0367   -1.3130 C   0  0  0  0  0  0  0  0  0  0  0  0
    2.3625   -0.2586   -0.7063 O   0  0  0  0  0  0  0  0  0  0  0  0
    0.3331   -1.4728   -3.0467 C   0  0  0  0  0  0  0  0  0  0  0  0
    2.6924    0.3404   -4.1502 H   0  0  0  0  0  0  0  0  0  0  0  0
    0.6550    0.6514   -3.2607 H   0  0  0  0  0  0  0  0  0  0  0  0
    0.8129   -2.3494   -2.5963 H   0  0  0  0  0  0  0  0  0  0  0  0
   -0.6690   -1.3857   -2.6142 H   0  0  0  0  0  0  0  0  0  0  0  0
    0.2259   -1.6670   -4.1194 H   0  0  0  0  0  0  0  0  0  0  0  0
    0.2019    0.5893   -0.7269 N   0  0  0  0  0  0  0  0  0  0  0  0
    0.1242    0.9059    0.6756 C   0  0  2  0  0  0  0  0  0  0  0  0
    1.4631    0.5219    1.2975 C   0  0  0  0  0  0  0  0  0  0  0  0
    2.0532   -0.5215    1.0245 O   0  0  0  0  0  0  0  0  0  0  0  0
   -1.0192    0.1611    1.3764 C   0  0  0  0  0  0  0  0  0  0  0  0
   -2.4341    0.5678    0.9164 C   0  0  0  0  0  0  0  0  0  0  0  0
   -3.4730   -0.3441    1.5751 C   0  0  0  0  0  0  0  0  0  0  0  0
   -2.5908    0.5130   -0.6038 C   0  0  0  0  0  0  0  0  0  0  0  0
   -0.5975    0.8179   -1.3140 H   0  0  0  0  0  0  0  0  0  0  0  0
   -0.0009    1.9907    0.7518 H   0  0  0  0  0  0  0  0  0  0  0  0
   -0.9401    0.3289    2.4597 H   0  0  0  0  0  0  0  0  0  0  0  0
   -0.8919   -0.9200    1.2318 H   0  0  0  0  0  0  0  0  0  0  0  0
   -2.6387    1.5936    1.2463 H   0  0  0  0  0  0  0  0  0  0  0  0
   -3.3176   -1.3875    1.2807 H   0  0  0  0  0  0  0  0  0  0  0  0
   -4.4868   -0.0610    1.2726 H   0  0  0  0  0  0  0  0  0  0  0  0
   -3.4164   -0.2880    2.6675 H   0  0  0  0  0  0  0  0  0  0  0  0
   -2.3963   -0.4945   -0.9869 H   0  0  0  0  0  0  0  0  0  0  0  0
   -3.6067    0.7963   -0.8997 H   0  0  0  0  0  0  0  0  0  0  0  0
   -1.9056    1.2061   -1.1008 H   0  0  0  0  0  0  0  0  0  0  0  0
    1.9415    1.5056    2.1520 N   0  0  0  0  0  0  0  0  0  0  0  0
    3.2025    1.4039    2.8506 C   0  0  2  0  0  0  0  0  0  0  0  0
    4.2162    0.7769    1.9025 C   0  0  0  0  0  0  0  0  0  0  0  0
    3.8945    0.0862    0.9378 O   0  0  0  0  0  0  0  0  0  0  0  0
    3.0659    0.5808    4.1220 C   0  0  0  0  0  0  0  0  0  0  0  0
    1.3934    2.3486    2.2954 H   0  0  0  0  0  0  0  0  0  0  0  0
    3.5126    2.4260    3.0938 H   0  0  0  0  0  0  0  0  0  0  0  0
    2.7558   -0.4465    3.8983 H   0  0  0  0  0  0  0  0  0  0  0  0
    4.0155    0.5286    4.6648 H   0  0  0  0  0  0  0  0  0  0  0  0
    2.3149    1.0167    4.7897 H   0  0  0  0  0  0  0  0  0  0  0  0
    5.5233    1.0436    2.2853 N   0  0  0  0  0  0  0  0  0  0  0  0
    6.6662    0.5484    1.5542 C   0  0  0  0  0  0  0  0  0  0  0  0
    5.6968    1.6414    3.0880 H   0  0  0  0  0  0  0  0  0  0  0  0
    6.9883   -0.4120    1.9829 H   0  0  0  0  0  0  0  0  0  0  0  0
    6.3921    0.4051    0.4986 H   0  0  0  0  0  0  0  0  0  0  0  0
    7.4889    1.2753    1.6239 H   0  0  0  0  0  0  0  0  0  0  0  0
  1  3  1  0  0  0  0
  1  7  1  0  0  0  0
  1  2  2  0  0  0  0
 37 38  1  0  0  0  0
 38 46  1  0  0  0  0
 38 39  2  0  0  0  0
  8  9  1  0  0  0  0
  9 17  1  0  0  0  0
  9 10  2  0  0  0  0
 18 19  1  0  0  0  0
 19 36  1  0  0  0  0
 19 20  2  0  0  0  0
 37 40  1  0  0  0  0
  8 11  1  0  0  0  0
 22 23  1  0  0  0  0
 22 24  1  0  0  0  0
 46 47  1  0  0  0  0
 18 21  1  0  0  0  0
 21 22  1  0  0  0  0
 36 37  1  0  0  0  0
  7  8  1  0  0  0  0
 17 18  1  0  0  0  0
  3  4  1  0  0  0  0
  3  5  1  0  0  0  0
  3  6  1  0  0  0  0
 40 43  1  0  0  0  0
 40 44  1  0  0  0  0
 40 45  1  0  0  0  0
 11 14  1  0  0  0  0
 11 15  1  0  0  0  0
 11 16  1  0  0  0  0
 23 30  1  0  0  0  0
 23 31  1  0  0  0  0
 23 32  1  0  0  0  0
 24 33  1  0  0  0  0
 24 34  1  0  0  0  0
 24 35  1  0  0  0  0
 47 49  1  0  0  0  0
 47 50  1  0  0  0  0
 47 51  1  0  0  0  0
 21 27  1  0  0  0  0
 21 28  1  0  0  0  0
 37 42  1  0  0  0  0
  8 13  1  0  0  0  0
 18 26  1  0  0  0  0
 22 29  1  0  0  0  0
 46 48  1  0  0  0  0
  7 12  1  0  0  0  0
 36 41  1  0  0  0  0
 17 25  1  0  0  0  0
M  END
$$$$

  -OEChem-05262214473D

 51 50  0     1  0  0  0  0  0999 V2000
    3.4018   -1.2440   -3.0186 C   0  0  0  0  0  0  0  0  0  0  0  0
    3.2697   -2.0909   -2.1427 O   0  0  0  0  0  0  0  0  0  0  0  0
    4.6845   -1.1645   -3.7779 C   0  0  0  0  0  0  0  0  0  0  0  0
    5.4123   -0.4862   -3.3041 H   0  0  0  0  0  0  0  0  0  0  0  0
    5.1949   -2.1387   -3.8443 H   0  0  0  0  0  0  0  0  0  0  0  0
    4.5953   -0.8128   -4.8182 H   0  0  0  0  0  0  0  0  0  0  0  0
    2.4540   -0.3103   -3.4040 N   0  0  0  0  0  0  0  0  0  0  0  0
    1.1494   -0.2128   -2.8039 C   0  0  2  0  0  0  0  0  0  0  0  0
    1.3350    0.0367   -1.3130 C   0  0  0  0  0  0  0  0  0  0  0  0
    2.3625   -0.2586   -0.7063 O   0  0  0  0  0  0  0  0  0  0  0  0
    0.3331   -1.4728   -3.0467 C   0  0  0  0  0  0  0  0  0  0  0  0
    2.6924    0.3404   -4.1502 H   0  0  0  0  0  0  0  0  0  0  0  0
    0.6550    0.6514   -3.2607 H   0  0  0  0  0  0  0  0  0  0  0  0
    0.8129   -2.3494   -2.5963 H   0  0  0  0  0  0  0  0  0  0  0  0
   -0.6690   -1.3857   -2.6142 H   0  0  0  0  0  0  0  0  0  0  0  0
    0.2259   -1.6670   -4.1194 H   0  0  0  0  0  0  0  0  0  0  0  0
    0.2019    0.5893   -0.7269 N   0  0  0  0  0  0  0  0  0  0  0  0
    0.1242    0.9059    0.6756 C   0  0  2  0  0  0  0  0  0  0  0  0
    1.4631    0.5219    1.2975 C   0  0  0  0  0  0  0  0  0  0  0  0
    2.1810   -0.3674    0.8446 O   0  0  0  0  0  0  0  0  0  0  0  0
   -1.0192    0.1611    1.3764 C   0  0  0  0  0  0  0  0  0  0  0  0
   -2.4341    0.5678    0.9164 C   0  0  0  0  0  0  0  0  0  0  0  0
   -3.4730   -0.3441    1.5751 C   0  0  0  0  0  0  0  0  0  0  0  0
   -2.5908    0.5130   -0.6038 C   0  0  0  0  0  0  0  0  0  0  0  0
   -0.5975    0.8179   -1.3140 H   0  0  0  0  0  0  0  0  0  0  0  0
   -0.0009    1.9907    0.7518 H   0  0  0  0  0  0  0  0  0  0  0  0
   -0.9401    0.3289    2.4597 H   0  0  0  0  0  0  0  0  0  0  0  0
   -0.8919   -0.9200    1.2318 H   0  0  0  0  0  0  0  0  0  0  0  0
   -2.6387    1.5936    1.2463 H   0  0  0  0  0  0  0  0  0  0  0  0
   -3.3176   -1.3875    1.2807 H   0  0  0  0  0  0  0  0  0  0  0  0
   -4.4868   -0.0610    1.2726 H   0  0  0  0  0  0  0  0  0  0  0  0
   -3.4164   -0.2880    2.6675 H   0  0  0  0  0  0  0  0  0  0  0  0
   -2.3963   -0.4945   -0.9869 H   0  0  0  0  0  0  0  0  0  0  0  0
   -3.6067    0.7963   -0.8997 H   0  0  0  0  0  0  0  0  0  0  0  0
   -1.9056    1.2061   -1.1008 H   0  0  0  0  0  0  0  0  0  0  0  0
    1.7813    1.3239    2.3847 N   0  0  0  0  0  0  0  0  0  0  0  0
    3.0069    1.1879    3.1383 C   0  0  2  0  0  0  0  0  0  0  0  0
    4.1338    0.8990    2.1553 C   0  0  0  0  0  0  0  0  0  0  0  0
    3.9438    0.4213    1.0387 O   0  0  0  0  0  0  0  0  0  0  0  0
    2.8971    0.0844    4.1789 C   0  0  0  0  0  0  0  0  0  0  0  0
    1.1346    2.0533    2.6703 H   0  0  0  0  0  0  0  0  0  0  0  0
    3.1862    2.1517    3.6272 H   0  0  0  0  0  0  0  0  0  0  0  0
    2.7175   -0.8889    3.7078 H   0  0  0  0  0  0  0  0  0  0  0  0
    3.8164    0.0017    4.7681 H   0  0  0  0  0  0  0  0  0  0  0  0
    2.0674    0.2788    4.8670 H   0  0  0  0  0  0  0  0  0  0  0  0
    5.3802    1.1970    2.6879 N   0  0  0  0  0  0  0  0  0  0  0  0
    6.6089    0.9983    1.9553 C   0  0  0  0  0  0  0  0  0  0  0  0
    5.4423    1.6075    3.6150 H   0  0  0  0  0  0  0  0  0  0  0  0
    7.0144    0.0011    2.1819 H   0  0  0  0  0  0  0  0  0  0  0  0
    6.4090    1.0761    0.8764 H   0  0  0  0  0  0  0  0  0  0  0  0
    7.3393    1.7664    2.2492 H   0  0  0  0  0  0  0  0  0  0  0  0
  1  3  1  0  0  0  0
  1  7  1  0  0  0  0
  1  2  2  0  0  0  0
 37 38  1  0  0  0  0
 38 46  1  0  0  0  0
 38 39  2  0  0  0  0
  8  9  1  0  0  0  0
  9 17  1  0  0  0  0
  9 10  2  0  0  0  0
 18 19  1  0  0  0  0
 19 36  1  0  0  0  0
 19 20  2  0  0  0  0
 37 40  1  0  0  0  0
  8 11  1  0  0  0  0
 22 23  1  0  0  0  0
 22 24  1  0  0  0  0
 46 47  1  0  0  0  0
 18 21  1  0  0  0  0
 21 22  1  0  0  0  0
 36 37  1  0  0  0  0
  7  8  1  0  0  0  0
 17 18  1  0  0  0  0
  3  4  1  0  0  0  0
  3  5  1  0  0  0  0
  3  6  1  0  0  0  0
 40 43  1  0  0  0  0
 40 44  1  0  0  0  0
 40 45  1  0  0  0  0
 11 14  1  0  0  0  0
 11 15  1  0  0  0  0
 11 16  1  0  0  0  0
 23 30  1  0  0  0  0
 23 31  1  0  0  0  0
 23 32  1  0  0  0  0
 24 33  1  0  0  0  0
 24 34  1  0  0  0  0
 24 35  1  0  0  0  0
 47 49  1  0  0  0  0
 47 50  1  0  0  0  0
 47 51  1  0  0  0  0
 21 27  1  0  0  0  0
 21 28  1  0  0  0  0
 37 42  1  0  0  0  0
  8 13  1  0  0  0  0
 18 26  1  0  0  0  0
 22 29  1  0  0  0  0
 46 48  1  0  0  0  0
  7 12  1  0  0  0  0
 36 41  1  0  0  0  0
 17 25  1  0  0  0  0
M  END
$$$$

  -OEChem-05262214473D

 51 50  0     1  0  0  0  0  0999 V2000
    3.4018   -1.2440   -3.0186 C   0  0  0  0  0  0  0  0  0  0  0  0
    3.2697   -2.0909   -2.1427 O   0  0  0  0  0  0  0  0  0  0  0  0
    4.6845   -1.1645   -3.7779 C   0  0  0  0  0  0  0  0  0  0  0  0
    5.4123   -0.4862   -3.3041 H   0  0  0  0  0  0  0  0  0  0  0  0
    5.1949   -2.1387   -3.8443 H   0  0  0  0  0  0  0  0  0  0  0  0
    4.5953   -0.8128   -4.8182 H   0  0  0  0  0  0  0  0  0  0  0  0
    2.4540   -0.3103   -3.4040 N   0  0  0  0  0  0  0  0  0  0  0  0
    1.1494   -0.2128   -2.8039 C   0  0  2  0  0  0  0  0  0  0  0  0
    1.3350    0.0367   -1.3130 C   0  0  0  0  0  0  0  0  0  0  0  0
    2.3625   -0.2586   -0.7063 O   0  0  0  0  0  0  0  0  0  0  0  0
    0.3331   -1.4728   -3.0467 C   0  0  0  0  0  0  0  0  0  0  0  0
    2.6924    0.3404   -4.1502 H   0  0  0  0  0  0  0  0  0  0  0  0
    0.6550    0.6514   -3.2607 H   0  0  0  0  0  0  0  0  0  0  0  0
    0.8129   -2.3494   -2.5963 H   0  0  0  0  0  0  0  0  0  0  0  0
   -0.6690   -1.3857   -2.6142 H   0  0  0  0  0  0  0  0  0  0  0  0
    0.2259   -1.6670   -4.1194 H   0  0  0  0  0  0  0  0  0  0  0  0
    0.2019    0.5893   -0.7269 N   0  0  0  0  0  0  0  0  0  0  0  0
    0.1242    0.9059    0.6756 C   0  0  2  0  0  0  0  0  0  0  0  0
    1.4631    0.5219    1.2975 C   0  0  0  0  0  0  0  0  0  0  0  0
    2.2999   -0.1642    0.7141 O   0  0  0  0  0  0  0  0  0  0  0  0
   -1.0192    0.1611    1.3764 C   0  0  0  0  0  0  0  0  0  0  0  0
   -2.4341    0.5678    0.9164 C   0  0  0  0  0  0  0  0  0  0  0  0
   -3.4730   -0.3441    1.5751 C   0  0  0  0  0  0  0  0  0  0  0  0
   -2.5908    0.5130   -0.6038 C   0  0  0  0  0  0  0  0  0  0  0  0
   -0.5975    0.8179   -1.3140 H   0  0  0  0  0  0  0  0  0  0  0  0
   -0.0009    1.9907    0.7518 H   0  0  0  0  0  0  0  0  0  0  0  0
   -0.9401    0.3289    2.4597 H   0  0  0  0  0  0  0  0  0  0  0  0
   -0.8919   -0.9200    1.2318 H   0  0  0  0  0  0  0  0  0  0  0  0
   -2.6387    1.5936    1.2463 H   0  0  0  0  0  0  0  0  0  0  0  0
   -3.3176   -1.3875    1.2807 H   0  0  0  0  0  0  0  0  0  0  0  0
   -4.4868   -0.0610    1.2726 H   0  0  0  0  0  0  0  0  0  0  0  0
   -3.4164   -0.2880    2.6675 H   0  0  0  0  0  0  0  0  0  0  0  0
   -2.3963   -0.4945   -0.9869 H   0  0  0  0  0  0  0  0  0  0  0  0
   -3.6067    0.7963   -0.8997 H   0  0  0  0  0  0  0  0  0  0  0  0
   -1.9056    1.2061   -1.1008 H   0  0  0  0  0  0  0  0  0  0  0  0
    1.6305    1.0787    2.5578 N   0  0  0  0  0  0  0  0  0  0  0  0
    2.8221    0.8933    3.3544 C   0  0  2  0  0  0  0  0  0  0  0  0
    4.0248    0.9508    2.4218 C   0  0  0  0  0  0  0  0  0  0  0  0
    3.9495    0.7273    1.2154 O   0  0  0  0  0  0  0  0  0  0  0  0
    2.7828   -0.4258    4.1101 C   0  0  0  0  0  0  0  0  0  0  0  0
    0.8914    1.6556    2.9484 H   0  0  0  0  0  0  0  0  0  0  0  0
    2.8651    1.7311    4.0589 H   0  0  0  0  0  0  0  0  0  0  0  0
    2.7395   -1.2769    3.4208 H   0  0  0  0  0  0  0  0  0  0  0  0
    3.6730   -0.5516    4.7352 H   0  0  0  0  0  0  0  0  0  0  0  0
    1.9011   -0.4776    4.7580 H   0  0  0  0  0  0  0  0  0  0  0  0
    5.1996    1.2386    3.1024 N   0  0  0  0  0  0  0  0  0  0  0  0
    6.4800    1.3356    2.4412 C   0  0  0  0  0  0  0  0  0  0  0  0
    5.1657    1.4282    4.0997 H   0  0  0  0  0  0  0  0  0  0  0  0
    6.9830    0.3578    2.4697 H   0  0  0  0  0  0  0  0  0  0  0  0
    6.3300    1.6403    1.3949 H   0  0  0  0  0  0  0  0  0  0  0  0
    7.1022    2.0830    2.9551 H   0  0  0  0  0  0  0  0  0  0  0  0
  1  3  1  0  0  0  0
  1  7  1  0  0  0  0
  1  2  2  0  0  0  0
 37 38  1  0  0  0  0
 38 46  1  0  0  0  0
 38 39  2  0  0  0  0
  8  9  1  0  0  0  0
  9 17  1  0  0  0  0
  9 10  2  0  0  0  0
 18 19  1  0  0  0  0
 19 36  1  0  0  0  0
 19 20  2  0  0  0  0
 37 40  1  0  0  0  0
  8 11  1  0  0  0  0
 22 23  1  0  0  0  0
 22 24  1  0  0  0  0
 46 47  1  0  0  0  0
 18 21  1  0  0  0  0
 21 22  1  0  0  0  0
 36 37  1  0  0  0  0
  7  8  1  0  0  0  0
 17 18  1  0  0  0  0
  3  4  1  0  0  0  0
  3  5  1  0  0  0  0
  3  6  1  0  0  0  0
 40 43  1  0  0  0  0
 40 44  1  0  0  0  0
 40 45  1  0  0  0  0
 11 14  1  0  0  0  0
 11 15  1  0  0  0  0
 11 16  1  0  0  0  0
 23 30  1  0  0  0  0
 23 31  1  0  0  0  0
 23 32  1  0  0  0  0
 24 33  1  0  0  0  0
 24 34  1  0  0  0  0
 24 35  1  0  0  0  0
 47 49  1  0  0  0  0
 47 50  1  0  0  0  0
 47 51  1  0  0  0  0
 21 27  1  0  0  0  0
 21 28  1  0  0  0  0
 37 42  1  0  0  0  0
  8 13  1  0  0  0  0
 18 26  1  0  0  0  0
 22 29  1  0  0  0  0
 46 48  1  0  0  0  0
  7 12  1  0  0  0  0
 36 41  1  0  0  0  0
 17 25  1  0  0  0  0
M  END
$$$$

  -OEChem-05262214473D

 51 50  0     1  0  0  0  0  0999 V2000
    3.4018   -1.2440   -3.0186 C   0  0  0  0  0  0  0  0  0  0  0  0
    3.2697   -2.0909   -2.1427 O   0  0  0  0  0  0  0  0  0  0  0  0
    4.6845   -1.1645   -3.7779 C   0  0  0  0  0  0  0  0  0  0  0  0
    5.4123   -0.4862   -3.3041 H   0  0  0  0  0  0  0  0  0  0  0  0
    5.1949   -2.1387   -3.8443 H   0  0  0  0  0  0  0  0  0  0  0  0
    4.5953   -0.8128   -4.8182 H   0  0  0  0  0  0  0  0  0  0  0  0
    2.4540   -0.3103   -3.4040 N   0  0  0  0  0  0  0  0  0  0  0  0
    1.1494   -0.2128   -2.8039 C   0  0  2  0  0  0  0  0  0  0  0  0
    1.3350    0.0367   -1.3130 C   0  0  0  0  0  0  0  0  0  0  0  0
    2.3625   -0.2586   -0.7063 O   0  0  0  0  0  0  0  0  0  0  0  0
    0.3331   -1.4728   -3.0467 C   0  0  0  0  0  0  0  0  0  0  0  0
    2.6924    0.3404   -4.1502 H   0  0  0  0  0  0  0  0  0  0  0  0
    0.6550    0.6514   -3.2607 H   0  0  0  0  0  0  0  0  0  0  0  0
    0.8129   -2.3494   -2.5963 H   0  0  0  0  0  0  0  0  0  0  0  0
   -0.6690   -1.3857   -2.6142 H   0  0  0  0  0  0  0  0  0  0  0  0
    0.2259   -1.6670   -4.1194 H   0  0  0  0  0  0  0  0  0  0  0  0
    0.2019    0.5893   -0.7269 N   0  0  0  0  0  0  0  0  0  0  0  0
    0.1242    0.9059    0.6756 C   0  0  2  0  0  0  0  0  0  0  0  0
    1.5489    0.8846    1.2204 C   0  0  0  0  0  0  0  0  0  0  0  0
    2.5325    0.6738    0.5138 O   0  0  0  0  0  0  0  0  0  0  0  0
   -0.7537   -0.0876    1.4473 C   0  0  0  0  0  0  0  0  0  0  0  0
   -2.2485   -0.0600    1.0684 C   0  0  0  0  0  0  0  0  0  0  0  0
   -2.9855   -1.1898    1.7930 C   0  0  0  0  0  0  0  0  0  0  0  0
   -2.4698   -0.1848   -0.4396 C   0  0  0  0  0  0  0  0  0  0  0  0
   -0.5975    0.8179   -1.3140 H   0  0  0  0  0  0  0  0  0  0  0  0
   -0.2664    1.9257    0.7517 H   0  0  0  0  0  0  0  0  0  0  0  0
   -0.6599    0.1177    2.5230 H   0  0  0  0  0  0  0  0  0  0  0  0
   -0.3657   -1.1047    1.3026 H   0  0  0  0  0  0  0  0  0  0  0  0
   -2.6871    0.8881    1.4029 H   0  0  0  0  0  0  0  0  0  0  0  0
   -2.5882   -2.1665    1.4970 H   0  0  0  0  0  0  0  0  0  0  0  0
   -4.0531   -1.1775    1.5487 H   0  0  0  0  0  0  0  0  0  0  0  0
   -2.8849   -1.0981    2.8799 H   0  0  0  0  0  0  0  0  0  0  0  0
   -2.0488   -1.1188   -0.8267 H   0  0  0  0  0  0  0  0  0  0  0  0
   -3.5391   -0.1727   -0.6772 H   0  0  0  0  0  0  0  0  0  0  0  0
   -2.0103    0.6477   -0.9805 H   0  0  0  0  0  0  0  0  0  0  0  0
    1.5922    1.1789    2.5761 N   0  0  0  0  0  0  0  0  0  0  0  0
    2.8215    1.2502    3.3328 C   0  0  2  0  0  0  0  0  0  0  0  0
    3.8735    1.9203    2.4588 C   0  0  0  0  0  0  0  0  0  0  0  0
    3.8059    1.9506    1.2318 O   0  0  0  0  0  0  0  0  0  0  0  0
    3.2807   -0.1309    3.7738 C   0  0  0  0  0  0  0  0  0  0  0  0
    0.7257    1.3653    3.0721 H   0  0  0  0  0  0  0  0  0  0  0  0
    2.6186    1.8779    4.2073 H   0  0  0  0  0  0  0  0  0  0  0  0
    3.4888   -0.7742    2.9111 H   0  0  0  0  0  0  0  0  0  0  0  0
    4.1966   -0.0725    4.3711 H   0  0  0  0  0  0  0  0  0  0  0  0
    2.5107   -0.6233    4.3775 H   0  0  0  0  0  0  0  0  0  0  0  0
    4.9185    2.4429    3.2079 N   0  0  0  0  0  0  0  0  0  0  0  0
    6.0462    3.1174    2.6086 C   0  0  0  0  0  0  0  0  0  0  0  0
    4.8824    2.3890    4.2216 H   0  0  0  0  0  0  0  0  0  0  0  0
    6.8535    2.3926    2.4271 H   0  0  0  0  0  0  0  0  0  0  0  0
    5.7381    3.5695    1.6543 H   0  0  0  0  0  0  0  0  0  0  0  0
    6.4060    3.9043    3.2879 H   0  0  0  0  0  0  0  0  0  0  0  0
  1  3  1  0  0  0  0
  1  7  1  0  0  0  0
  1  2  2  0  0  0  0
 37 38  1  0  0  0  0
 38 46  1  0  0  0  0
 38 39  2  0  0  0  0
  8  9  1  0  0  0  0
  9 17  1  0  0  0  0
  9 10  2  0  0  0  0
 18 19  1  0  0  0  0
 19 36  1  0  0  0  0
 19 20  2  0  0  0  0
 37 40  1  0  0  0  0
  8 11  1  0  0  0  0
 22 23  1  0  0  0  0
 22 24  1  0  0  0  0
 46 47  1  0  0  0  0
 18 21  1  0  0  0  0
 21 22  1  0  0  0  0
 36 37  1  0  0  0  0
  7  8  1  0  0  0  0
 17 18  1  0  0  0  0
  3  4  1  0  0  0  0
  3  5  1  0  0  0  0
  3  6  1  0  0  0  0
 40 43  1  0  0  0  0
 40 44  1  0  0  0  0
 40 45  1  0  0  0  0
 11 14  1  0  0  0  0
 11 15  1  0  0  0  0
 11 16  1  0  0  0  0
 23 30  1  0  0  0  0
 23 31  1  0  0  0  0
 23 32  1  0  0  0  0
 24 33  1  0  0  0  0
 24 34  1  0  0  0  0
 24 35  1  0  0  0  0
 47 49  1  0  0  0  0
 47 50  1  0  0  0  0
 47 51  1  0  0  0  0
 21 27  1  0  0  0  0
 21 28  1  0  0  0  0
 37 42  1  0  0  0  0
  8 13  1  0  0  0  0
 18 26  1  0  0  0  0
 22 29  1  0  0  0  0
 46 48  1  0  0  0  0
  7 12  1  0  0  0  0
 36 41  1  0  0  0  0
 17 25  1  0  0  0  0
M  END
$$$$

  -OEChem-05262214473D

 51 50  0     1  0  0  0  0  0999 V2000
    3.4018   -1.2440   -3.0186 C   0  0  0  0  0  0  0  0  0  0  0  0
    3.2697   -2.0909   -2.1427 O   0  0  0  0  0  0  0  0  0  0  0  0
    4.6845   -1.1645   -3.7779 C   0  0  0  0  0  0  0  0  0  0  0  0
    5.4123   -0.4862   -3.3041 H   0  0  0  0  0  0  0  0  0  0  0  0
    5.1949   -2.1387   -3.8443 H   0  0  0  0  0  0  0  0  0  0  0  0
    4.5953   -0.8128   -4.8182 H   0  0  0  0  0  0  0  0  0  0  0  0
    2.4540   -0.3103   -3.4040 N   0  0  0  0  0  0  0  0  0  0  0  0
    1.1494   -0.2128   -2.8039 C   0  0  2  0  0  0  0  0  0  0  0  0
    1.3350    0.0367   -1.3130 C   0  0  0  0  0  0  0  0  0  0  0  0
    2.3625   -0.2586   -0.7063 O   0  0  0  0  0  0  0  0  0  0  0  0
    0.3331   -1.4728   -3.0467 C   0  0  0  0  0  0  0  0  0  0  0  0
    2.6924    0.3404   -4.1502 H   0  0  0  0  0  0  0  0  0  0  0  0
    0.6550    0.6514   -3.2607 H   0  0  0  0  0  0  0  0  0  0  0  0
    0.8129   -2.3494   -2.5963 H   0  0  0  0  0  0  0  0  0  0  0  0
   -0.6690   -1.3857   -2.6142 H   0  0  0  0  0  0  0  0  0  0  0  0
    0.2259   -1.6670   -4.1194 H   0  0  0  0  0  0  0  0  0  0  0  0
    0.2019    0.5893   -0.7269 N   0  0  0  0  0  0  0  0  0  0  0  0
    0.1242    0.9059    0.6756 C   0  0  2  0  0  0  0  0  0  0  0  0
    1.5489    0.8846    1.2204 C   0  0  0  0  0  0  0  0  0  0  0  0
    2.5423    0.9424    0.4986 O   0  0  0  0  0  0  0  0  0  0  0  0
   -0.7537   -0.0876    1.4473 C   0  0  0  0  0  0  0  0  0  0  0  0
   -2.2485   -0.0600    1.0684 C   0  0  0  0  0  0  0  0  0  0  0  0
   -2.9855   -1.1898    1.7930 C   0  0  0  0  0  0  0  0  0  0  0  0
   -2.4698   -0.1848   -0.4396 C   0  0  0  0  0  0  0  0  0  0  0  0
   -0.5975    0.8179   -1.3140 H   0  0  0  0  0  0  0  0  0  0  0  0
   -0.2664    1.9257    0.7517 H   0  0  0  0  0  0  0  0  0  0  0  0
   -0.6599    0.1177    2.5230 H   0  0  0  0  0  0  0  0  0  0  0  0
   -0.3657   -1.1047    1.3026 H   0  0  0  0  0  0  0  0  0  0  0  0
   -2.6871    0.8881    1.4029 H   0  0  0  0  0  0  0  0  0  0  0  0
   -2.5882   -2.1665    1.4970 H   0  0  0  0  0  0  0  0  0  0  0  0
   -4.0531   -1.1775    1.5487 H   0  0  0  0  0  0  0  0  0  0  0  0
   -2.8849   -1.0981    2.8799 H   0  0  0  0  0  0  0  0  0  0  0  0
   -2.0488   -1.1188   -0.8267 H   0  0  0  0  0  0  0  0  0  0  0  0
   -3.5391   -0.1727   -0.6772 H   0  0  0  0  0  0  0  0  0  0  0  0
   -2.0103    0.6477   -0.9805 H   0  0  0  0  0  0  0  0  0  0  0  0
    1.5752    0.8449    2.6076 N   0  0  0  0  0  0  0  0  0  0  0  0
    2.7984    0.8438    3.3774 C   0  0  2  0  0  0  0  0  0  0  0  0
    3.7768    1.7993    2.7070 C   0  0  0  0  0  0  0  0  0  0  0  0
    3.6972    2.1192    1.5228 O   0  0  0  0  0  0  0  0  0  0  0  0
    3.3873   -0.5546    3.4786 C   0  0  0  0  0  0  0  0  0  0  0  0
    0.6990    0.8253    3.1209 H   0  0  0  0  0  0  0  0  0  0  0  0
    2.5448    1.2200    4.3745 H   0  0  0  0  0  0  0  0  0  0  0  0
    3.6475   -0.9482    2.4892 H   0  0  0  0  0  0  0  0  0  0  0  0
    4.2984   -0.5585    4.0859 H   0  0  0  0  0  0  0  0  0  0  0  0
    2.6710   -1.2471    3.9338 H   0  0  0  0  0  0  0  0  0  0  0  0
    4.7745    2.2190    3.5757 N   0  0  0  0  0  0  0  0  0  0  0  0
    5.8300    3.1192    3.1741 C   0  0  0  0  0  0  0  0  0  0  0  0
    4.7514    1.9184    4.5457 H   0  0  0  0  0  0  0  0  0  0  0  0
    6.6997    2.5373    2.8350 H   0  0  0  0  0  0  0  0  0  0  0  0
    5.4738    3.7584    2.3527 H   0  0  0  0  0  0  0  0  0  0  0  0
    6.1204    3.7481    4.0286 H   0  0  0  0  0  0  0  0  0  0  0  0
  1  3  1  0  0  0  0
  1  7  1  0  0  0  0
  1  2  2  0  0  0  0
 37 38  1  0  0  0  0
 38 46  1  0  0  0  0
 38 39  2  0  0  0  0
  8  9  1  0  0  0  0
  9 17  1  0  0  0  0
  9 10  2  0  0  0  0
 18 19  1  0  0  0  0
 19 36  1  0  0  0  0
 19 20  2  0  0  0  0
 37 40  1  0  0  0  0
  8 11  1  0  0  0  0
 22 23  1  0  0  0  0
 22 24  1  0  0  0  0
 46 47  1  0  0  0  0
 18 21  1  0  0  0  0
 21 22  1  0  0  0  0
 36 37  1  0  0  0  0
  7  8  1  0  0  0  0
 17 18  1  0  0  0  0
  3  4  1  0  0  0  0
  3  5  1  0  0  0  0
  3  6  1  0  0  0  0
 40 43  1  0  0  0  0
 40 44  1  0  0  0  0
 40 45  1  0  0  0  0
 11 14  1  0  0  0  0
 11 15  1  0  0  0  0
 11 16  1  0  0  0  0
 23 30  1  0  0  0  0
 23 31  1  0  0  0  0
 23 32  1  0  0  0  0
 24 33  1  0  0  0  0
 24 34  1  0  0  0  0
 24 35  1  0  0  0  0
 47 49  1  0  0  0  0
 47 50  1  0  0  0  0
 47 51  1  0  0  0  0
 21 27  1  0  0  0  0
 21 28  1  0  0  0  0
 37 42  1  0  0  0  0
  8 13  1  0  0  0  0
 18 26  1  0  0  0  0
 22 29  1  0  0  0  0
 46 48  1  0  0  0  0
  7 12  1  0  0  0  0
 36 41  1  0  0  0  0
 17 25  1  0  0  0  0
M  END
$$$$

  -OEChem-05262214473D

 51 50  0     1  0  0  0  0  0999 V2000
    3.4018   -1.2440   -3.0186 C   0  0  0  0  0  0  0  0  0  0  0  0
    3.2697   -2.0909   -2.1427 O   0  0  0  0  0  0  0  0  0  0  0  0
    4.6845   -1.1645   -3.7779 C   0  0  0  0  0  0  0  0  0  0  0  0
    5.4123   -0.4862   -3.3041 H   0  0  0  0  0  0  0  0  0  0  0  0
    5.1949   -2.1387   -3.8443 H   0  0  0  0  0  0  0  0  0  0  0  0
    4.5953   -0.8128   -4.8182 H   0  0  0  0  0  0  0  0  0  0  0  0
    2.4540   -0.3103   -3.4040 N   0  0  0  0  0  0  0  0  0  0  0  0
    1.1494   -0.2128   -2.8039 C   0  0  2  0  0  0  0  0  0  0  0  0
    1.3350    0.0367   -1.3130 C   0  0  0  0  0  0  0  0  0  0  0  0
    2.3625   -0.2586   -0.7063 O   0  0  0  0  0  0  0  0  0  0  0  0
    0.3331   -1.4728   -3.0467 C   0  0  0  0  0  0  0  0  0  0  0  0
    2.6924    0.3404   -4.1502 H   0  0  0  0  0  0  0  0  0  0  0  0
    0.6550    0.6514   -3.2607 H   0  0  0  0  0  0  0  0  0  0  0  0
    0.8129   -2.3494   -2.5963 H   0  0  0  0  0  0  0  0  0  0  0  0
   -0.6690   -1.3857   -2.6142 H   0  0  0  0  0  0  0  0  0  0  0  0
    0.2259   -1.6670   -4.1194 H   0  0  0  0  0  0  0  0  0  0  0  0
    0.2019    0.5893   -0.7269 N   0  0  0  0  0  0  0  0  0  0  0  0
    0.1242    0.9059    0.6756 C   0  0  2  0  0  0  0  0  0  0  0  0
    1.5489    0.8846    1.2204 C   0  0  0  0  0  0  0  0  0  0  0  0
    2.5270    1.2064    0.5489 O   0  0  0  0  0  0  0  0  0  0  0  0
   -0.7537   -0.0876    1.4473 C   0  0  0  0  0  0  0  0  0  0  0  0
   -2.2485   -0.0600    1.0684 C   0  0  0  0  0  0  0  0  0  0  0  0
   -2.9855   -1.1898    1.7930 C   0  0  0  0  0  0  0  0  0  0  0  0
   -2.4698   -0.1848   -0.4396 C   0  0  0  0  0  0  0  0  0  0  0  0
   -0.5975    0.8179   -1.3140 H   0  0  0  0  0  0  0  0  0  0  0  0
   -0.2664    1.9257    0.7517 H   0  0  0  0  0  0  0  0  0  0  0  0
   -0.6599    0.1177    2.5230 H   0  0  0  0  0  0  0  0  0  0  0  0
   -0.3657   -1.1047    1.3026 H   0  0  0  0  0  0  0  0  0  0  0  0
   -2.6871    0.8881    1.4029 H   0  0  0  0  0  0  0  0  0  0  0  0
   -2.5882   -2.1665    1.4970 H   0  0  0  0  0  0  0  0  0  0  0  0
   -4.0531   -1.1775    1.5487 H   0  0  0  0  0  0  0  0  0  0  0  0
   -2.8849   -1.0981    2.8799 H   0  0  0  0  0  0  0  0  0  0  0  0
   -2.0488   -1.1188   -0.8267 H   0  0  0  0  0  0  0  0  0  0  0  0
   -3.5391   -0.1727   -0.6772 H   0  0  0  0  0  0  0  0  0  0  0  0
   -2.0103    0.6477   -0.9805 H   0  0  0  0  0  0  0  0  0  0  0  0
    1.5895    0.5131    2.5571 N   0  0  0  0  0  0  0  0  0  0  0  0
    2.8134    0.4384    3.3221 C   0  0  2  0  0  0  0  0  0  0  0  0
    3.6936    1.6135    2.9172 C   0  0  0  0  0  0  0  0  0  0  0  0
    3.5755    2.2016    1.8442 O   0  0  0  0  0  0  0  0  0  0  0  0
    3.5304   -0.8827    3.0913 C   0  0  0  0  0  0  0  0  0  0  0  0
    0.7229    0.2894    3.0373 H   0  0  0  0  0  0  0  0  0  0  0  0
    2.5338    0.5372    4.3767 H   0  0  0  0  0  0  0  0  0  0  0  0
    3.8185   -0.9996    2.0402 H   0  0  0  0  0  0  0  0  0  0  0  0
    4.4426   -0.9495    3.6934 H   0  0  0  0  0  0  0  0  0  0  0  0
    2.8851   -1.7276    3.3550 H   0  0  0  0  0  0  0  0  0  0  0  0
    4.6547    1.9005    3.8764 N   0  0  0  0  0  0  0  0  0  0  0  0
    5.6189    2.9644    3.7199 C   0  0  0  0  0  0  0  0  0  0  0  0
    4.6672    1.3734    4.7446 H   0  0  0  0  0  0  0  0  0  0  0  0
    6.5363    2.5643    3.2634 H   0  0  0  0  0  0  0  0  0  0  0  0
    5.1986    3.7477    3.0720 H   0  0  0  0  0  0  0  0  0  0  0  0
    5.8562    3.3918    4.7053 H   0  0  0  0  0  0  0  0  0  0  0  0
  1  3  1  0  0  0  0
  1  7  1  0  0  0  0
  1  2  2  0  0  0  0
 37 38  1  0  0  0  0
 38 46  1  0  0  0  0
 38 39  2  0  0  0  0
  8  9  1  0  0  0  0
  9 17  1  0  0  0  0
  9 10  2  0  0  0  0
 18 19  1  0  0  0  0
 19 36  1  0  0  0  0
 19 20  2  0  0  0  0
 37 40  1  0  0  0  0
  8 11  1  0  0  0  0
 22 23  1  0  0  0  0
 22 24  1  0  0  0  0
 46 47  1  0  0  0  0
 18 21  1  0  0  0  0
 21 22  1  0  0  0  0
 36 37  1  0  0  0  0
  7  8  1  0  0  0  0
 17 18  1  0  0  0  0
  3  4  1  0  0  0  0
  3  5  1  0  0  0  0
  3  6  1  0  0  0  0
 40 43  1  0  0  0  0
 40 44  1  0  0  0  0
 40 45  1  0  0  0  0
 11 14  1  0  0  0  0
 11 15  1  0  0  0  0
 11 16  1  0  0  0  0
 23 30  1  0  0  0  0
 23 31  1  0  0  0  0
 23 32  1  0  0  0  0
 24 33  1  0  0  0  0
 24 34  1  0  0  0  0
 24 35  1  0  0  0  0
 47 49  1  0  0  0  0
 47 50  1  0  0  0  0
 47 51  1  0  0  0  0
 21 27  1  0  0  0  0
 21 28  1  0  0  0  0
 37 42  1  0  0  0  0
  8 13  1  0  0  0  0
 18 26  1  0  0  0  0
 22 29  1  0  0  0  0
 46 48  1  0  0  0  0
  7 12  1  0  0  0  0
 36 41  1  0  0  0  0
 17 25  1  0  0  0  0
M  END
$$$$

  -OEChem-05262214473D

 51 50  0     1  0  0  0  0  0999 V2000
    3.4018   -1.2440   -3.0186 C   0  0  0  0  0  0  0  0  0  0  0  0
    3.2697   -2.0909   -2.1427 O   0  0  0  0  0  0  0  0  0  0  0  0
    4.6845   -1.1645   -3.7779 C   0  0  0  0  0  0  0  0  0  0  0  0
    5.4123   -0.4862   -3.3041 H   0  0  0  0  0  0  0  0  0  0  0  0
    5.1949   -2.1387   -3.8443 H   0  0  0  0  0  0  0  0  0  0  0  0
    4.5953   -0.8128   -4.8182 H   0  0  0  0  0  0  0  0  0  0  0  0
    2.4540   -0.3103   -3.4040 N   0  0  0  0  0  0  0  0  0  0  0  0
    1.1494   -0.2128   -2.8039 C   0  0  2  0  0  0  0  0  0  0  0  0
    1.3350    0.0367   -1.3130 C   0  0  0  0  0  0  0  0  0  0  0  0
    2.3625   -0.2586   -0.7063 O   0  0  0  0  0  0  0  0  0  0  0  0
    0.3331   -1.4728   -3.0467 C   0  0  0  0  0  0  0  0  0  0  0  0
    2.6924    0.3404   -4.1502 H   0  0  0  0  0  0  0  0  0  0  0  0
    0.6550    0.6514   -3.2607 H   0  0  0  0  0  0  0  0  0  0  0  0
    0.8129   -2.3494   -2.5963 H   0  0  0  0  0  0  0  0  0  0  0  0
   -0.6690   -1.3857   -2.6142 H   0  0  0  0  0  0  0  0  0  0  0  0
    0.2259   -1.6670   -4.1194 H   0  0  0  0  0  0  0  0  0  0  0  0
    0.2019    0.5893   -0.7269 N   0  0  0  0  0  0  0  0  0  0  0  0
    0.1242    0.9059    0.6756 C   0  0  2  0  0  0  0  0  0  0  0  0
    1.5489    0.8846    1.2204 C   0  0  0  0  0  0  0  0  0  0  0  0
    2.4877    1.4478    0.6613 O   0  0  0  0  0  0  0  0  0  0  0  0
   -0.7537   -0.0876    1.4473 C   0  0  0  0  0  0  0  0  0  0  0  0
   -2.2485   -0.0600    1.0684 C   0  0  0  0  0  0  0  0  0  0  0  0
   -2.9855   -1.1898    1.7930 C   0  0  0  0  0  0  0  0  0  0  0  0
   -2.4698   -0.1848   -0.4396 C   0  0  0  0  0  0  0  0  0  0  0  0
   -0.5975    0.8179   -1.3140 H   0  0  0  0  0  0  0  0  0  0  0  0
   -0.2664    1.9257    0.7517 H   0  0  0  0  0  0  0  0  0  0  0  0
   -0.6599    0.1177    2.5230 H   0  0  0  0  0  0  0  0  0  0  0  0
   -0.3657   -1.1047    1.3026 H   0  0  0  0  0  0  0  0  0  0  0  0
   -2.6871    0.8881    1.4029 H   0  0  0  0  0  0  0  0  0  0  0  0
   -2.5882   -2.1665    1.4970 H   0  0  0  0  0  0  0  0  0  0  0  0
   -4.0531   -1.1775    1.5487 H   0  0  0  0  0  0  0  0  0  0  0  0
   -2.8849   -1.0981    2.8799 H   0  0  0  0  0  0  0  0  0  0  0  0
   -2.0488   -1.1188   -0.8267 H   0  0  0  0  0  0  0  0  0  0  0  0
   -3.5391   -0.1727   -0.6772 H   0  0  0  0  0  0  0  0  0  0  0  0
   -2.0103    0.6477   -0.9805 H   0  0  0  0  0  0  0  0  0  0  0  0
    1.6342    0.2062    2.4283 N   0  0  0  0  0  0  0  0  0  0  0  0
    2.8656    0.0615    3.1708 C   0  0  2  0  0  0  0  0  0  0  0  0
    3.6297    1.3755    3.0749 C   0  0  0  0  0  0  0  0  0  0  0  0
    3.4492    2.1922    2.1742 O   0  0  0  0  0  0  0  0  0  0  0  0
    3.7004   -1.0928    2.6385 C   0  0  0  0  0  0  0  0  0  0  0  0
    0.7959   -0.2058    2.8272 H   0  0  0  0  0  0  0  0  0  0  0  0
    2.5862   -0.1238    4.2137 H   0  0  0  0  0  0  0  0  0  0  0  0
    3.9899   -0.9249    1.5947 H   0  0  0  0  0  0  0  0  0  0  0  0
    4.6196   -1.2190    3.2202 H   0  0  0  0  0  0  0  0  0  0  0  0
    3.1385   -2.0321    2.6806 H   0  0  0  0  0  0  0  0  0  0  0  0
    4.5674    1.5091    4.0894 N   0  0  0  0  0  0  0  0  0  0  0  0
    5.4274    2.6633    4.2090 C   0  0  0  0  0  0  0  0  0  0  0  0
    4.6355    0.7912    4.8046 H   0  0  0  0  0  0  0  0  0  0  0  0
    6.3744    2.4717    3.6831 H   0  0  0  0  0  0  0  0  0  0  0  0
    4.9311    3.5380    3.7633 H   0  0  0  0  0  0  0  0  0  0  0  0
    5.6316    2.8597    5.2719 H   0  0  0  0  0  0  0  0  0  0  0  0
  1  3  1  0  0  0  0
  1  7  1  0  0  0  0
  1  2  2  0  0  0  0
 37 38  1  0  0  0  0
 38 46  1  0  0  0  0
 38 39  2  0  0  0  0
  8  9  1  0  0  0  0
  9 17  1  0  0  0  0
  9 10  2  0  0  0  0
 18 19  1  0  0  0  0
 19 36  1  0  0  0  0
 19 20  2  0  0  0  0
 37 40  1  0  0  0  0
  8 11  1  0  0  0  0
 22 23  1  0  0  0  0
 22 24  1  0  0  0  0
 46 47  1  0  0  0  0
 18 21  1  0  0  0  0
 21 22  1  0  0  0  0
 36 37  1  0  0  0  0
  7  8  1  0  0  0  0
 17 18  1  0  0  0  0
  3  4  1  0  0  0  0
  3  5  1  0  0  0  0
  3  6  1  0  0  0  0
 40 43  1  0  0  0  0
 40 44  1  0  0  0  0
 40 45  1  0  0  0  0
 11 14  1  0  0  0  0
 11 15  1  0  0  0  0
 11 16  1  0  0  0  0
 23 30  1  0  0  0  0
 23 31  1  0  0  0  0
 23 32  1  0  0  0  0
 24 33  1  0  0  0  0
 24 34  1  0  0  0  0
 24 35  1  0  0  0  0
 47 49  1  0  0  0  0
 47 50  1  0  0  0  0
 47 51  1  0  0  0  0
 21 27  1  0  0  0  0
 21 28  1  0  0  0  0
 37 42  1  0  0  0  0
  8 13  1  0  0  0  0
 18 26  1  0  0  0  0
 22 29  1  0  0  0  0
 46 48  1  0  0  0  0
  7 12  1  0  0  0  0
 36 41  1  0  0  0  0
 17 25  1  0  0  0  0
M  END
$$$$

  -OEChem-05262214473D

 51 50  0     1  0  0  0  0  0999 V2000
    3.4018   -1.2440   -3.0186 C   0  0  0  0  0  0  0  0  0  0  0  0
    3.2697   -2.0909   -2.1427 O   0  0  0  0  0  0  0  0  0  0  0  0
    4.6845   -1.1645   -3.7779 C   0  0  0  0  0  0  0  0  0  0  0  0
    5.4123   -0.4862   -3.3041 H   0  0  0  0  0  0  0  0  0  0  0  0
    5.1949   -2.1387   -3.8443 H   0  0  0  0  0  0  0  0  0  0  0  0
    4.5953   -0.8128   -4.8182 H   0  0  0  0  0  0  0  0  0  0  0  0
    2.4540   -0.3103   -3.4040 N   0  0  0  0  0  0  0  0  0  0  0  0
    1.1494   -0.2128   -2.8039 C   0  0  2  0  0  0  0  0  0  0  0  0
    1.3350    0.0367   -1.3130 C   0  0  0  0  0  0  0  0  0  0  0  0
    2.3625   -0.2586   -0.7063 O   0  0  0  0  0  0  0  0  0  0  0  0
    0.3331   -1.4728   -3.0467 C   0  0  0  0  0  0  0  0  0  0  0  0
    2.6924    0.3404   -4.1502 H   0  0  0  0  0  0  0  0  0  0  0  0
    0.6550    0.6514   -3.2607 H   0  0  0  0  0  0  0  0  0  0  0  0
    0.8129   -2.3494   -2.5963 H   0  0  0  0  0  0  0  0  0  0  0  0
   -0.6690   -1.3857   -2.6142 H   0  0  0  0  0  0  0  0  0  0  0  0
    0.2259   -1.6670   -4.1194 H   0  0  0  0  0  0  0  0  0  0  0  0
    0.2019    0.5893   -0.7269 N   0  0  0  0  0  0  0  0  0  0  0  0
    0.1242    0.9059    0.6756 C   0  0  2  0  0  0  0  0  0  0  0  0
    1.5489    0.8846    1.2204 C   0  0  0  0  0  0  0  0  0  0  0  0
    2.4270    1.6502    0.8281 O   0  0  0  0  0  0  0  0  0  0  0  0
   -0.7537   -0.0876    1.4473 C   0  0  0  0  0  0  0  0  0  0  0  0
   -2.2485   -0.0600    1.0684 C   0  0  0  0  0  0  0  0  0  0  0  0
   -2.9855   -1.1898    1.7930 C   0  0  0  0  0  0  0  0  0  0  0  0
   -2.4698   -0.1848   -0.4396 C   0  0  0  0  0  0  0  0  0  0  0  0
   -0.5975    0.8179   -1.3140 H   0  0  0  0  0  0  0  0  0  0  0  0
   -0.2664    1.9257    0.7517 H   0  0  0  0  0  0  0  0  0  0  0  0
   -0.6599    0.1177    2.5230 H   0  0  0  0  0  0  0  0  0  0  0  0
   -0.3657   -1.1047    1.3026 H   0  0  0  0  0  0  0  0  0  0  0  0
   -2.6871    0.8881    1.4029 H   0  0  0  0  0  0  0  0  0  0  0  0
   -2.5882   -2.1665    1.4970 H   0  0  0  0  0  0  0  0  0  0  0  0
   -4.0531   -1.1775    1.5487 H   0  0  0  0  0  0  0  0  0  0  0  0
   -2.8849   -1.0981    2.8799 H   0  0  0  0  0  0  0  0  0  0  0  0
   -2.0488   -1.1188   -0.8267 H   0  0  0  0  0  0  0  0  0  0  0  0
   -3.5391   -0.1727   -0.6772 H   0  0  0  0  0  0  0  0  0  0  0  0
   -2.0103    0.6477   -0.9805 H   0  0  0  0  0  0  0  0  0  0  0  0
    1.7062   -0.0551    2.2298 N   0  0  0  0  0  0  0  0  0  0  0  0
    2.9515   -0.2611    2.9338 C   0  0  2  0  0  0  0  0  0  0  0  0
    3.5894    1.1016    3.1696 C   0  0  0  0  0  0  0  0  0  0  0  0
    3.3268    2.0918    2.4902 O   0  0  0  0  0  0  0  0  0  0  0  0
    3.8857   -1.1705    2.1510 C   0  0  0  0  0  0  0  0  0  0  0  0
    0.9129   -0.6266    2.5047 H   0  0  0  0  0  0  0  0  0  0  0  0
    2.6985   -0.7181    3.8967 H   0  0  0  0  0  0  0  0  0  0  0  0
    4.1503   -0.7293    1.1831 H   0  0  0  0  0  0  0  0  0  0  0  0
    4.8171   -1.3486    2.6986 H   0  0  0  0  0  0  0  0  0  0  0  0
    3.4138   -2.1397    1.9565 H   0  0  0  0  0  0  0  0  0  0  0  0
    4.5185    1.0716    4.2002 N   0  0  0  0  0  0  0  0  0  0  0  0
    5.2685    2.2366    4.6079 C   0  0  0  0  0  0  0  0  0  0  0  0
    4.6586    0.2113    4.7218 H   0  0  0  0  0  0  0  0  0  0  0  0
    6.2251    2.2658    4.0656 H   0  0  0  0  0  0  0  0  0  0  0  0
    4.6897    3.1436    4.3793 H   0  0  0  0  0  0  0  0  0  0  0  0
    5.4618    2.1879    5.6897 H   0  0  0  0  0  0  0  0  0  0  0  0
  1  3  1  0  0  0  0
  1  7  1  0  0  0  0
  1  2  2  0  0  0  0
 37 38  1  0  0  0  0
 38 46  1  0  0  0  0
 38 39  2  0  0  0  0
  8  9  1  0  0  0  0
  9 17  1  0  0  0  0
  9 10  2  0  0  0  0
 18 19  1  0  0  0  0
 19 36  1  0  0  0  0
 19 20  2  0  0  0  0
 37 40  1  0  0  0  0
  8 11  1  0  0  0  0
 22 23  1  0  0  0  0
 22 24  1  0  0  0  0
 46 47  1  0  0  0  0
 18 21  1  0  0  0  0
 21 22  1  0  0  0  0
 36 37  1  0  0  0  0
  7  8  1  0  0  0  0
 17 18  1  0  0  0  0
  3  4  1  0  0  0  0
  3  5  1  0  0  0  0
  3  6  1  0  0  0  0
 40 43  1  0  0  0  0
 40 44  1  0  0  0  0
 40 45  1  0  0  0  0
 11 14  1  0  0  0  0
 11 15  1  0  0  0  0
 11 16  1  0  0  0  0
 23 30  1  0  0  0  0
 23 31  1  0  0  0  0
 23 32  1  0  0  0  0
 24 33  1  0  0  0  0
 24 34  1  0  0  0  0
 24 35  1  0  0  0  0
 47 49  1  0  0  0  0
 47 50  1  0  0  0  0
 47 51  1  0  0  0  0
 21 27  1  0  0  0  0
 21 28  1  0  0  0  0
 37 42  1  0  0  0  0
  8 13  1  0  0  0  0
 18 26  1  0  0  0  0
 22 29  1  0  0  0  0
 46 48  1  0  0  0  0
  7 12  1  0  0  0  0
 36 41  1  0  0  0  0
 17 25  1  0  0  0  0
M  END
$$$$

  -OEChem-05262214473D

 51 50  0     1  0  0  0  0  0999 V2000
    3.4018   -1.2440   -3.0186 C   0  0  0  0  0  0  0  0  0  0  0  0
    3.2697   -2.0909   -2.1427 O   0  0  0  0  0  0  0  0  0  0  0  0
    4.6845   -1.1645   -3.7779 C   0  0  0  0  0  0  0  0  0  0  0  0
    5.4123   -0.4862   -3.3041 H   0  0  0  0  0  0  0  0  0  0  0  0
    5.1949   -2.1387   -3.8443 H   0  0  0  0  0  0  0  0  0  0  0  0
    4.5953   -0.8128   -4.8182 H   0  0  0  0  0  0  0  0  0  0  0  0
    2.4540   -0.3103   -3.4040 N   0  0  0  0  0  0  0  0  0  0  0  0
    1.1494   -0.2128   -2.8039 C   0  0  2  0  0  0  0  0  0  0  0  0
    1.3350    0.0367   -1.3130 C   0  0  0  0  0  0  0  0  0  0  0  0
    2.3625   -0.2586   -0.7063 O   0  0  0  0  0  0  0  0  0  0  0  0
    0.3331   -1.4728   -3.0467 C   0  0  0  0  0  0  0  0  0  0  0  0
    2.6924    0.3404   -4.1502 H   0  0  0  0  0  0  0  0  0  0  0  0
    0.6550    0.6514   -3.2607 H   0  0  0  0  0  0  0  0  0  0  0  0
    0.8129   -2.3494   -2.5963 H   0  0  0  0  0  0  0  0  0  0  0  0
   -0.6690   -1.3857   -2.6142 H   0  0  0  0  0  0  0  0  0  0  0  0
    0.2259   -1.6670   -4.1194 H   0  0  0  0  0  0  0  0  0  0  0  0
    0.2019    0.5893   -0.7269 N   0  0  0  0  0  0  0  0  0  0  0  0
    0.1242    0.9059    0.6756 C   0  0  2  0  0  0  0  0  0  0  0  0
    1.5489    0.8846    1.2204 C   0  0  0  0  0  0  0  0  0  0  0  0
    2.3490    1.7998    1.0378 O   0  0  0  0  0  0  0  0  0  0  0  0
   -0.7537   -0.0876    1.4473 C   0  0  0  0  0  0  0  0  0  0  0  0
   -2.2485   -0.0600    1.0684 C   0  0  0  0  0  0  0  0  0  0  0  0
   -2.9855   -1.1898    1.7930 C   0  0  0  0  0  0  0  0  0  0  0  0
   -2.4698   -0.1848   -0.4396 C   0  0  0  0  0  0  0  0  0  0  0  0
   -0.5975    0.8179   -1.3140 H   0  0  0  0  0  0  0  0  0  0  0  0
   -0.2664    1.9257    0.7517 H   0  0  0  0  0  0  0  0  0  0  0  0
   -0.6599    0.1177    2.5230 H   0  0  0  0  0  0  0  0  0  0  0  0
   -0.3657   -1.1047    1.3026 H   0  0  0  0  0  0  0  0  0  0  0  0
   -2.6871    0.8881    1.4029 H   0  0  0  0  0  0  0  0  0  0  0  0
   -2.5882   -2.1665    1.4970 H   0  0  0  0  0  0  0  0  0  0  0  0
   -4.0531   -1.1775    1.5487 H   0  0  0  0  0  0  0  0  0  0  0  0
   -2.8849   -1.0981    2.8799 H   0  0  0  0  0  0  0  0  0  0  0  0
   -2.0488   -1.1188   -0.8267 H   0  0  0  0  0  0  0  0  0  0  0  0
   -3.5391   -0.1727   -0.6772 H   0  0  0  0  0  0  0  0  0  0  0  0
   -2.0103    0.6477   -0.9805 H   0  0  0  0  0  0  0  0  0  0  0  0
    1.8006   -0.2527    1.9752 N   0  0  0  0  0  0  0  0  0  0  0  0
    3.0650   -0.5075    2.6271 C   0  0  2  0  0  0  0  0  0  0  0  0
    3.5755    0.8104    3.1946 C   0  0  0  0  0  0  0  0  0  0  0  0
    3.2168    1.9071    2.7707 O   0  0  0  0  0  0  0  0  0  0  0  0
    4.0736   -1.1106    1.6619 C   0  0  0  0  0  0  0  0  0  0  0  0
    1.0659   -0.9443    2.0920 H   0  0  0  0  0  0  0  0  0  0  0  0
    2.8631   -1.2051    3.4472 H   0  0  0  0  0  0  0  0  0  0  0  0
    4.2886   -0.4260    0.8334 H   0  0  0  0  0  0  0  0  0  0  0  0
    5.0217   -1.3295    2.1642 H   0  0  0  0  0  0  0  0  0  0  0  0
    3.6923   -2.0432    1.2321 H   0  0  0  0  0  0  0  0  0  0  0  0
    4.5113    0.6176    4.2013 N   0  0  0  0  0  0  0  0  0  0  0  0
    5.1530    1.7133    4.8895 C   0  0  0  0  0  0  0  0  0  0  0  0
    4.7347   -0.3267    4.5016 H   0  0  0  0  0  0  0  0  0  0  0  0
    6.0984    1.9607    4.3847 H   0  0  0  0  0  0  0  0  0  0  0  0
    4.4906    2.5915    4.8781 H   0  0  0  0  0  0  0  0  0  0  0  0
    5.3583    1.4224    5.9303 H   0  0  0  0  0  0  0  0  0  0  0  0
  1  3  1  0  0  0  0
  1  7  1  0  0  0  0
  1  2  2  0  0  0  0
 37 38  1  0  0  0  0
 38 46  1  0  0  0  0
 38 39  2  0  0  0  0
  8  9  1  0  0  0  0
  9 17  1  0  0  0  0
  9 10  2  0  0  0  0
 18 19  1  0  0  0  0
 19 36  1  0  0  0  0
 19 20  2  0  0  0  0
 37 40  1  0  0  0  0
  8 11  1  0  0  0  0
 22 23  1  0  0  0  0
 22 24  1  0  0  0  0
 46 47  1  0  0  0  0
 18 21  1  0  0  0  0
 21 22  1  0  0  0  0
 36 37  1  0  0  0  0
  7  8  1  0  0  0  0
 17 18  1  0  0  0  0
  3  4  1  0  0  0  0
  3  5  1  0  0  0  0
  3  6  1  0  0  0  0
 40 43  1  0  0  0  0
 40 44  1  0  0  0  0
 40 45  1  0  0  0  0
 11 14  1  0  0  0  0
 11 15  1  0  0  0  0
 11 16  1  0  0  0  0
 23 30  1  0  0  0  0
 23 31  1  0  0  0  0
 23 32  1  0  0  0  0
 24 33  1  0  0  0  0
 24 34  1  0  0  0  0
 24 35  1  0  0  0  0
 47 49  1  0  0  0  0
 47 50  1  0  0  0  0
 47 51  1  0  0  0  0
 21 27  1  0  0  0  0
 21 28  1  0  0  0  0
 37 42  1  0  0  0  0
  8 13  1  0  0  0  0
 18 26  1  0  0  0  0
 22 29  1  0  0  0  0
 46 48  1  0  0  0  0
  7 12  1  0  0  0  0
 36 41  1  0  0  0  0
 17 25  1  0  0  0  0
M  END
$$$$

  -OEChem-05262214473D

 51 50  0     1  0  0  0  0  0999 V2000
    3.4018   -1.2440   -3.0186 C   0  0  0  0  0  0  0  0  0  0  0  0
    3.2697   -2.0909   -2.1427 O   0  0  0  0  0  0  0  0  0  0  0  0
    4.6845   -1.1645   -3.7779 C   0  0  0  0  0  0  0  0  0  0  0  0
    5.4123   -0.4862   -3.3041 H   0  0  0  0  0  0  0  0  0  0  0  0
    5.1949   -2.1387   -3.8443 H   0  0  0  0  0  0  0  0  0  0  0  0
    4.5953   -0.8128   -4.8182 H   0  0  0  0  0  0  0  0  0  0  0  0
    2.4540   -0.3103   -3.4040 N   0  0  0  0  0  0  0  0  0  0  0  0
    1.1494   -0.2128   -2.8039 C   0  0  2  0  0  0  0  0  0  0  0  0
    1.3350    0.0367   -1.3130 C   0  0  0  0  0  0  0  0  0  0  0  0
    2.3625   -0.2586   -0.7063 O   0  0  0  0  0  0  0  0  0  0  0  0
    0.3331   -1.4728   -3.0467 C   0  0  0  0  0  0  0  0  0  0  0  0
    2.6924    0.3404   -4.1502 H   0  0  0  0  0  0  0  0  0  0  0  0
    0.6550    0.6514   -3.2607 H   0  0  0  0  0  0  0  0  0  0  0  0
    0.8129   -2.3494   -2.5963 H   0  0  0  0  0  0  0  0  0  0  0  0
   -0.6690   -1.3857   -2.6142 H   0  0  0  0  0  0  0  0  0  0  0  0
    0.2259   -1.6670   -4.1194 H   0  0  0  0  0  0  0  0  0  0  0  0
    0.2019    0.5893   -0.7269 N   0  0  0  0  0  0  0  0  0  0  0  0
    0.1242    0.9059    0.6756 C   0  0  2  0  0  0  0  0  0  0  0  0
    1.5489    0.8846    1.2204 C   0  0  0  0  0  0  0  0  0  0  0  0
    2.2591    1.8864    1.2763 O   0  0  0  0  0  0  0  0  0  0  0  0
   -0.7537   -0.0876    1.4473 C   0  0  0  0  0  0  0  0  0  0  0  0
   -2.2485   -0.0600    1.0684 C   0  0  0  0  0  0  0  0  0  0  0  0
   -2.9855   -1.1898    1.7930 C   0  0  0  0  0  0  0  0  0  0  0  0
   -2.4698   -0.1848   -0.4396 C   0  0  0  0  0  0  0  0  0  0  0  0
   -0.5975    0.8179   -1.3140 H   0  0  0  0  0  0  0  0  0  0  0  0
   -0.2664    1.9257    0.7517 H   0  0  0  0  0  0  0  0  0  0  0  0
   -0.6599    0.1177    2.5230 H   0  0  0  0  0  0  0  0  0  0  0  0
   -0.3657   -1.1047    1.3026 H   0  0  0  0  0  0  0  0  0  0  0  0
   -2.6871    0.8881    1.4029 H   0  0  0  0  0  0  0  0  0  0  0  0
   -2.5882   -2.1665    1.4970 H   0  0  0  0  0  0  0  0  0  0  0  0
   -4.0531   -1.1775    1.5487 H   0  0  0  0  0  0  0  0  0  0  0  0
   -2.8849   -1.0981    2.8799 H   0  0  0  0  0  0  0  0  0  0  0  0
   -2.0488   -1.1188   -0.8267 H   0  0  0  0  0  0  0  0  0  0  0  0
   -3.5391   -0.1727   -0.6772 H   0  0  0  0  0  0  0  0  0  0  0  0
   -2.0103    0.6477   -0.9805 H   0  0  0  0  0  0  0  0  0  0  0  0
    1.9110   -0.3734    1.6818 N   0  0  0  0  0  0  0  0  0  0  0  0
    3.1986   -0.6609    2.2718 C   0  0  2  0  0  0  0  0  0  0  0  0
    3.5889    0.5218    3.1484 C   0  0  0  0  0  0  0  0  0  0  0  0
    3.1266    1.6507    2.9966 O   0  0  0  0  0  0  0  0  0  0  0  0
    4.2514   -0.9172    1.2047 C   0  0  0  0  0  0  0  0  0  0  0  0
    1.2447   -1.1372    1.6171 H   0  0  0  0  0  0  0  0  0  0  0  0
    3.0688   -1.5517    2.8959 H   0  0  0  0  0  0  0  0  0  0  0  0
    4.3954   -0.0357    0.5694 H   0  0  0  0  0  0  0  0  0  0  0  0
    5.2196   -1.1629    1.6534 H   0  0  0  0  0  0  0  0  0  0  0  0
    3.9550   -1.7491    0.5566 H   0  0  0  0  0  0  0  0  0  0  0  0
    4.5463    0.1782    4.0925 N   0  0  0  0  0  0  0  0  0  0  0  0
    5.0887    1.1291    5.0346 C   0  0  0  0  0  0  0  0  0  0  0  0
    4.8587   -0.7860    4.1592 H   0  0  0  0  0  0  0  0  0  0  0  0
    6.0032    1.5771    4.6188 H   0  0  0  0  0  0  0  0  0  0  0  0
    4.3476    1.9192    5.2258 H   0  0  0  0  0  0  0  0  0  0  0  0
    5.3283    0.6152    5.9773 H   0  0  0  0  0  0  0  0  0  0  0  0
  1  3  1  0  0  0  0
  1  7  1  0  0  0  0
  1  2  2  0  0  0  0
 37 38  1  0  0  0  0
 38 46  1  0  0  0  0
 38 39  2  0  0  0  0
  8  9  1  0  0  0  0
  9 17  1  0  0  0  0
  9 10  2  0  0  0  0
 18 19  1  0  0  0  0
 19 36  1  0  0  0  0
 19 20  2  0  0  0  0
 37 40  1  0  0  0  0
  8 11  1  0  0  0  0
 22 23  1  0  0  0  0
 22 24  1  0  0  0  0
 46 47  1  0  0  0  0
 18 21  1  0  0  0  0
 21 22  1  0  0  0  0
 36 37  1  0  0  0  0
  7  8  1  0  0  0  0
 17 18  1  0  0  0  0
  3  4  1  0  0  0  0
  3  5  1  0  0  0  0
  3  6  1  0  0  0  0
 40 43  1  0  0  0  0
 40 44  1  0  0  0  0
 40 45  1  0  0  0  0
 11 14  1  0  0  0  0
 11 15  1  0  0  0  0
 11 16  1  0  0  0  0
 23 30  1  0  0  0  0
 23 31  1  0  0  0  0
 23 32  1  0  0  0  0
 24 33  1  0  0  0  0
 24 34  1  0  0  0  0
 24 35  1  0  0  0  0
 47 49  1  0  0  0  0
 47 50  1  0  0  0  0
 47 51  1  0  0  0  0
 21 27  1  0  0  0  0
 21 28  1  0  0  0  0
 37 42  1  0  0  0  0
  8 13  1  0  0  0  0
 18 26  1  0  0  0  0
 22 29  1  0  0  0  0
 46 48  1  0  0  0  0
  7 12  1  0  0  0  0
 36 41  1  0  0  0  0
 17 25  1  0  0  0  0
M  END
$$$$

  -OEChem-05262214473D

 51 50  0     1  0  0  0  0  0999 V2000
    3.4018   -1.2440   -3.0186 C   0  0  0  0  0  0  0  0  0  0  0  0
    3.2697   -2.0909   -2.1427 O   0  0  0  0  0  0  0  0  0  0  0  0
    4.6845   -1.1645   -3.7779 C   0  0  0  0  0  0  0  0  0  0  0  0
    5.4123   -0.4862   -3.3041 H   0  0  0  0  0  0  0  0  0  0  0  0
    5.1949   -2.1387   -3.8443 H   0  0  0  0  0  0  0  0  0  0  0  0
    4.5953   -0.8128   -4.8182 H   0  0  0  0  0  0  0  0  0  0  0  0
    2.4540   -0.3103   -3.4040 N   0  0  0  0  0  0  0  0  0  0  0  0
    1.1494   -0.2128   -2.8039 C   0  0  2  0  0  0  0  0  0  0  0  0
    1.3350    0.0367   -1.3130 C   0  0  0  0  0  0  0  0  0  0  0  0
    2.3625   -0.2586   -0.7063 O   0  0  0  0  0  0  0  0  0  0  0  0
    0.3331   -1.4728   -3.0467 C   0  0  0  0  0  0  0  0  0  0  0  0
    2.6924    0.3404   -4.1502 H   0  0  0  0  0  0  0  0  0  0  0  0
    0.6550    0.6514   -3.2607 H   0  0  0  0  0  0  0  0  0  0  0  0
    0.8129   -2.3494   -2.5963 H   0  0  0  0  0  0  0  0  0  0  0  0
   -0.6690   -1.3857   -2.6142 H   0  0  0  0  0  0  0  0  0  0  0  0
    0.2259   -1.6670   -4.1194 H   0  0  0  0  0  0  0  0  0  0  0  0
    0.2019    0.5893   -0.7269 N   0  0  0  0  0  0  0  0  0  0  0  0
    0.1242    0.9059    0.6756 C   0  0  2  0  0  0  0  0  0  0  0  0
    1.5489    0.8846    1.2204 C   0  0  0  0  0  0  0  0  0  0  0  0
    2.1633    1.9041    1.5273 O   0  0  0  0  0  0  0  0  0  0  0  0
   -0.7537   -0.0876    1.4473 C   0  0  0  0  0  0  0  0  0  0  0  0
   -2.2485   -0.0600    1.0684 C   0  0  0  0  0  0  0  0  0  0  0  0
   -2.9855   -1.1898    1.7930 C   0  0  0  0  0  0  0  0  0  0  0  0
   -2.4698   -0.1848   -0.4396 C   0  0  0  0  0  0  0  0  0  0  0  0
   -0.5975    0.8179   -1.3140 H   0  0  0  0  0  0  0  0  0  0  0  0
   -0.2664    1.9257    0.7517 H   0  0  0  0  0  0  0  0  0  0  0  0
   -0.6599    0.1177    2.5230 H   0  0  0  0  0  0  0  0  0  0  0  0
   -0.3657   -1.1047    1.3026 H   0  0  0  0  0  0  0  0  0  0  0  0
   -2.6871    0.8881    1.4029 H   0  0  0  0  0  0  0  0  0  0  0  0
   -2.5882   -2.1665    1.4970 H   0  0  0  0  0  0  0  0  0  0  0  0
   -4.0531   -1.1775    1.5487 H   0  0  0  0  0  0  0  0  0  0  0  0
   -2.8849   -1.0981    2.8799 H   0  0  0  0  0  0  0  0  0  0  0  0
   -2.0488   -1.1188   -0.8267 H   0  0  0  0  0  0  0  0  0  0  0  0
   -3.5391   -0.1727   -0.6772 H   0  0  0  0  0  0  0  0  0  0  0  0
   -2.0103    0.6477   -0.9805 H   0  0  0  0  0  0  0  0  0  0  0  0
    2.0299   -0.4089    1.3696 N   0  0  0  0  0  0  0  0  0  0  0  0
    3.3431   -0.7108    1.8919 C   0  0  2  0  0  0  0  0  0  0  0  0
    3.6286    0.2555    3.0340 C   0  0  0  0  0  0  0  0  0  0  0  0
    3.0623    1.3401    3.1525 O   0  0  0  0  0  0  0  0  0  0  0  0
    4.4069   -0.6034    0.8104 C   0  0  0  0  0  0  0  0  0  0  0  0
    1.4369   -1.1923    1.1124 H   0  0  0  0  0  0  0  0  0  0  0  0
    3.3014   -1.7342    2.2804 H   0  0  0  0  0  0  0  0  0  0  0  0
    4.4634    0.4150    0.4091 H   0  0  0  0  0  0  0  0  0  0  0  0
    5.3971   -0.8602    1.2009 H   0  0  0  0  0  0  0  0  0  0  0  0
    4.1840   -1.2774   -0.0237 H   0  0  0  0  0  0  0  0  0  0  0  0
    4.6211   -0.2168    3.8814 N   0  0  0  0  0  0  0  0  0  0  0  0
    5.0801    0.5237    5.0333 C   0  0  0  0  0  0  0  0  0  0  0  0
    5.0223   -1.1355    3.7179 H   0  0  0  0  0  0  0  0  0  0  0  0
    5.9458    1.1413    4.7518 H   0  0  0  0  0  0  0  0  0  0  0  0
    4.2704    1.1725    5.3986 H   0  0  0  0  0  0  0  0  0  0  0  0
    5.3737   -0.1786    5.8274 H   0  0  0  0  0  0  0  0  0  0  0  0
  1  3  1  0  0  0  0
  1  7  1  0  0  0  0
  1  2  2  0  0  0  0
 37 38  1  0  0  0  0
 38 46  1  0  0  0  0
 38 39  2  0  0  0  0
  8  9  1  0  0  0  0
  9 17  1  0  0  0  0
  9 10  2  0  0  0  0
 18 19  1  0  0  0  0
 19 36  1  0  0  0  0
 19 20  2  0  0  0  0
 37 40  1  0  0  0  0
  8 11  1  0  0  0  0
 22 23  1  0  0  0  0
 22 24  1  0  0  0  0
 46 47  1  0  0  0  0
 18 21  1  0  0  0  0
 21 22  1  0  0  0  0
 36 37  1  0  0  0  0
  7  8  1  0  0  0  0
 17 18  1  0  0  0  0
  3  4  1  0  0  0  0
  3  5  1  0  0  0  0
  3  6  1  0  0  0  0
 40 43  1  0  0  0  0
 40 44  1  0  0  0  0
 40 45  1  0  0  0  0
 11 14  1  0  0  0  0
 11 15  1  0  0  0  0
 11 16  1  0  0  0  0
 23 30  1  0  0  0  0
 23 31  1  0  0  0  0
 23 32  1  0  0  0  0
 24 33  1  0  0  0  0
 24 34  1  0  0  0  0
 24 35  1  0  0  0  0
 47 49  1  0  0  0  0
 47 50  1  0  0  0  0
 47 51  1  0  0  0  0
 21 27  1  0  0  0  0
 21 28  1  0  0  0  0
 37 42  1  0  0  0  0
  8 13  1  0  0  0  0
 18 26  1  0  0  0  0
 22 29  1  0  0  0  0
 46 48  1  0  0  0  0
  7 12  1  0  0  0  0
 36 41  1  0  0  0  0
 17 25  1  0  0  0  0
M  END
$$$$

  -OEChem-05262214473D

 51 50  0     1  0  0  0  0  0999 V2000
    3.4018   -1.2440   -3.0186 C   0  0  0  0  0  0  0  0  0  0  0  0
    3.2697   -2.0909   -2.1427 O   0  0  0  0  0  0  0  0  0  0  0  0
    4.6845   -1.1645   -3.7779 C   0  0  0  0  0  0  0  0  0  0  0  0
    5.4123   -0.4862   -3.3041 H   0  0  0  0  0  0  0  0  0  0  0  0
    5.1949   -2.1387   -3.8443 H   0  0  0  0  0  0  0  0  0  0  0  0
    4.5953   -0.8128   -4.8182 H   0  0  0  0  0  0  0  0  0  0  0  0
    2.4540   -0.3103   -3.4040 N   0  0  0  0  0  0  0  0  0  0  0  0
    1.1494   -0.2128   -2.8039 C   0  0  2  0  0  0  0  0  0  0  0  0
    1.3350    0.0367   -1.3130 C   0  0  0  0  0  0  0  0  0  0  0  0
    2.3625   -0.2586   -0.7063 O   0  0  0  0  0  0  0  0  0  0  0  0
    0.3331   -1.4728   -3.0467 C   0  0  0  0  0  0  0  0  0  0  0  0
    2.6924    0.3404   -4.1502 H   0  0  0  0  0  0  0  0  0  0  0  0
    0.6550    0.6514   -3.2607 H   0  0  0  0  0  0  0  0  0  0  0  0
    0.8129   -2.3494   -2.5963 H   0  0  0  0  0  0  0  0  0  0  0  0
   -0.6690   -1.3857   -2.6142 H   0  0  0  0  0  0  0  0  0  0  0  0
    0.2259   -1.6670   -4.1194 H   0  0  0  0  0  0  0  0  0  0  0  0
    0.2019    0.5893   -0.7269 N   0  0  0  0  0  0  0  0  0  0  0  0
    0.1242    0.9059    0.6756 C   0  0  2  0  0  0  0  0  0  0  0  0
    1.5489    0.8846    1.2204 C   0  0  0  0  0  0  0  0  0  0  0  0
    2.0684    1.8516    1.7737 O   0  0  0  0  0  0  0  0  0  0  0  0
   -0.7537   -0.0876    1.4473 C   0  0  0  0  0  0  0  0  0  0  0  0
   -2.2485   -0.0600    1.0684 C   0  0  0  0  0  0  0  0  0  0  0  0
   -2.9855   -1.1898    1.7930 C   0  0  0  0  0  0  0  0  0  0  0  0
   -2.4698   -0.1848   -0.4396 C   0  0  0  0  0  0  0  0  0  0  0  0
   -0.5975    0.8179   -1.3140 H   0  0  0  0  0  0  0  0  0  0  0  0
   -0.2664    1.9257    0.7517 H   0  0  0  0  0  0  0  0  0  0  0  0
   -0.6599    0.1177    2.5230 H   0  0  0  0  0  0  0  0  0  0  0  0
   -0.3657   -1.1047    1.3026 H   0  0  0  0  0  0  0  0  0  0  0  0
   -2.6871    0.8881    1.4029 H   0  0  0  0  0  0  0  0  0  0  0  0
   -2.5882   -2.1665    1.4970 H   0  0  0  0  0  0  0  0  0  0  0  0
   -4.0531   -1.1775    1.5487 H   0  0  0  0  0  0  0  0  0  0  0  0
   -2.8849   -1.0981    2.8799 H   0  0  0  0  0  0  0  0  0  0  0  0
   -2.0488   -1.1188   -0.8267 H   0  0  0  0  0  0  0  0  0  0  0  0
   -3.5391   -0.1727   -0.6772 H   0  0  0  0  0  0  0  0  0  0  0  0
   -2.0103    0.6477   -0.9805 H   0  0  0  0  0  0  0  0  0  0  0  0
    2.1491   -0.3566    1.0600 N   0  0  0  0  0  0  0  0  0  0  0  0
    3.4887   -0.6538    1.5135 C   0  0  2  0  0  0  0  0  0  0  0  0
    3.6920    0.0295    2.8593 C   0  0  0  0  0  0  0  0  0  0  0  0
    3.0284    0.9964    3.2277 O   0  0  0  0  0  0  0  0  0  0  0  0
    4.5294   -0.1906    0.5060 C   0  0  0  0  0  0  0  0  0  0  0  0
    1.6294   -1.1057    0.6123 H   0  0  0  0  0  0  0  0  0  0  0  0
    3.5452   -1.7402    1.6426 H   0  0  0  0  0  0  0  0  0  0  0  0
    4.4880    0.8954    0.3634 H   0  0  0  0  0  0  0  0  0  0  0  0
    5.5423   -0.4420    0.8377 H   0  0  0  0  0  0  0  0  0  0  0  0
    4.3637   -0.6604   -0.4695 H   0  0  0  0  0  0  0  0  0  0  0  0
    4.7306   -0.5403    3.5823 N   0  0  0  0  0  0  0  0  0  0  0  0
    5.1278   -0.0615    4.8857 C   0  0  0  0  0  0  0  0  0  0  0  0
    5.2141   -1.3513    3.2078 H   0  0  0  0  0  0  0  0  0  0  0  0
    5.9302    0.6828    4.7747 H   0  0  0  0  0  0  0  0  0  0  0  0
    4.2642    0.4024    5.3847 H   0  0  0  0  0  0  0  0  0  0  0  0
    5.4915   -0.9049    5.4910 H   0  0  0  0  0  0  0  0  0  0  0  0
  1  3  1  0  0  0  0
  1  7  1  0  0  0  0
  1  2  2  0  0  0  0
 37 38  1  0  0  0  0
 38 46  1  0  0  0  0
 38 39  2  0  0  0  0
  8  9  1  0  0  0  0
  9 17  1  0  0  0  0
  9 10  2  0  0  0  0
 18 19  1  0  0  0  0
 19 36  1  0  0  0  0
 19 20  2  0  0  0  0
 37 40  1  0  0  0  0
  8 11  1  0  0  0  0
 22 23  1  0  0  0  0
 22 24  1  0  0  0  0
 46 47  1  0  0  0  0
 18 21  1  0  0  0  0
 21 22  1  0  0  0  0
 36 37  1  0  0  0  0
  7  8  1  0  0  0  0
 17 18  1  0  0  0  0
  3  4  1  0  0  0  0
  3  5  1  0  0  0  0
  3  6  1  0  0  0  0
 40 43  1  0  0  0  0
 40 44  1  0  0  0  0
 40 45  1  0  0  0  0
 11 14  1  0  0  0  0
 11 15  1  0  0  0  0
 11 16  1  0  0  0  0
 23 30  1  0  0  0  0
 23 31  1  0  0  0  0
 23 32  1  0  0  0  0
 24 33  1  0  0  0  0
 24 34  1  0  0  0  0
 24 35  1  0  0  0  0
 47 49  1  0  0  0  0
 47 50  1  0  0  0  0
 47 51  1  0  0  0  0
 21 27  1  0  0  0  0
 21 28  1  0  0  0  0
 37 42  1  0  0  0  0
  8 13  1  0  0  0  0
 18 26  1  0  0  0  0
 22 29  1  0  0  0  0
 46 48  1  0  0  0  0
  7 12  1  0  0  0  0
 36 41  1  0  0  0  0
 17 25  1  0  0  0  0
M  END
$$$$

  -OEChem-05262214473D

 51 50  0     1  0  0  0  0  0999 V2000
    3.4018   -1.2440   -3.0186 C   0  0  0  0  0  0  0  0  0  0  0  0
    3.2697   -2.0909   -2.1427 O   0  0  0  0  0  0  0  0  0  0  0  0
    4.6845   -1.1645   -3.7779 C   0  0  0  0  0  0  0  0  0  0  0  0
    5.4123   -0.4862   -3.3041 H   0  0  0  0  0  0  0  0  0  0  0  0
    5.1949   -2.1387   -3.8443 H   0  0  0  0  0  0  0  0  0  0  0  0
    4.5953   -0.8128   -4.8182 H   0  0  0  0  0  0  0  0  0  0  0  0
    2.4540   -0.3103   -3.4040 N   0  0  0  0  0  0  0  0  0  0  0  0
    1.1494   -0.2128   -2.8039 C   0  0  2  0  0  0  0  0  0  0  0  0
    1.3350    0.0367   -1.3130 C   0  0  0  0  0  0  0  0  0  0  0  0
    2.3625   -0.2586   -0.7063 O   0  0  0  0  0  0  0  0  0  0  0  0
    0.3331   -1.4728   -3.0467 C   0  0  0  0  0  0  0  0  0  0  0  0
    2.6924    0.3404   -4.1502 H   0  0  0  0  0  0  0  0  0  0  0  0
    0.6550    0.6514   -3.2607 H   0  0  0  0  0  0  0  0  0  0  0  0
    0.8129   -2.3494   -2.5963 H   0  0  0  0  0  0  0  0  0  0  0  0
   -0.6690   -1.3857   -2.6142 H   0  0  0  0  0  0  0  0  0  0  0  0
    0.2259   -1.6670   -4.1194 H   0  0  0  0  0  0  0  0  0  0  0  0
    0.2019    0.5893   -0.7269 N   0  0  0  0  0  0  0  0  0  0  0  0
    0.1242    0.9059    0.6756 C   0  0  2  0  0  0  0  0  0  0  0  0
    1.5489    0.8846    1.2204 C   0  0  0  0  0  0  0  0  0  0  0  0
    1.9806    1.7327    1.9986 O   0  0  0  0  0  0  0  0  0  0  0  0
   -0.7537   -0.0876    1.4473 C   0  0  0  0  0  0  0  0  0  0  0  0
   -2.2485   -0.0600    1.0684 C   0  0  0  0  0  0  0  0  0  0  0  0
   -2.9855   -1.1898    1.7930 C   0  0  0  0  0  0  0  0  0  0  0  0
   -2.4698   -0.1848   -0.4396 C   0  0  0  0  0  0  0  0  0  0  0  0
   -0.5975    0.8179   -1.3140 H   0  0  0  0  0  0  0  0  0  0  0  0
   -0.2664    1.9257    0.7517 H   0  0  0  0  0  0  0  0  0  0  0  0
   -0.6599    0.1177    2.5230 H   0  0  0  0  0  0  0  0  0  0  0  0
   -0.3657   -1.1047    1.3026 H   0  0  0  0  0  0  0  0  0  0  0  0
   -2.6871    0.8881    1.4029 H   0  0  0  0  0  0  0  0  0  0  0  0
   -2.5882   -2.1665    1.4970 H   0  0  0  0  0  0  0  0  0  0  0  0
   -4.0531   -1.1775    1.5487 H   0  0  0  0  0  0  0  0  0  0  0  0
   -2.8849   -1.0981    2.8799 H   0  0  0  0  0  0  0  0  0  0  0  0
   -2.0488   -1.1188   -0.8267 H   0  0  0  0  0  0  0  0  0  0  0  0
   -3.5391   -0.1727   -0.6772 H   0  0  0  0  0  0  0  0  0  0  0  0
   -2.0103    0.6477   -0.9805 H   0  0  0  0  0  0  0  0  0  0  0  0
    2.2605   -0.2204    0.7739 N   0  0  0  0  0  0  0  0  0  0  0  0
    3.6254   -0.4938    1.1623 C   0  0  2  0  0  0  0  0  0  0  0  0
    3.7748   -0.1406    2.6362 C   0  0  0  0  0  0  0  0  0  0  0  0
    3.0271    0.6432    3.2172 O   0  0  0  0  0  0  0  0  0  0  0  0
    4.6108    0.2930    0.3122 C   0  0  0  0  0  0  0  0  0  0  0  0
    1.8092   -0.8834    0.1508 H   0  0  0  0  0  0  0  0  0  0  0  0
    3.7836   -1.5692    1.0260 H   0  0  0  0  0  0  0  0  0  0  0  0
    4.4676    1.3727    0.4356 H   0  0  0  0  0  0  0  0  0  0  0  0
    5.6451    0.0631    0.5885 H   0  0  0  0  0  0  0  0  0  0  0  0
    4.4818    0.0599   -0.7503 H   0  0  0  0  0  0  0  0  0  0  0  0
    4.8674   -0.7704    3.2156 N   0  0  0  0  0  0  0  0  0  0  0  0
    5.2285   -0.5866    4.6019 C   0  0  0  0  0  0  0  0  0  0  0  0
    5.4212   -1.4187    2.6635 H   0  0  0  0  0  0  0  0  0  0  0  0
    5.9574    0.2329    4.6859 H   0  0  0  0  0  0  0  0  0  0  0  0
    4.3294   -0.3387    5.1851 H   0  0  0  0  0  0  0  0  0  0  0  0
    5.6736   -1.5143    4.9909 H   0  0  0  0  0  0  0  0  0  0  0  0
  1  3  1  0  0  0  0
  1  7  1  0  0  0  0
  1  2  2  0  0  0  0
 37 38  1  0  0  0  0
 38 46  1  0  0  0  0
 38 39  2  0  0  0  0
  8  9  1  0  0  0  0
  9 17  1  0  0  0  0
  9 10  2  0  0  0  0
 18 19  1  0  0  0  0
 19 36  1  0  0  0  0
 19 20  2  0  0  0  0
 37 40  1  0  0  0  0
  8 11  1  0  0  0  0
 22 23  1  0  0  0  0
 22 24  1  0  0  0  0
 46 47  1  0  0  0  0
 18 21  1  0  0  0  0
 21 22  1  0  0  0  0
 36 37  1  0  0  0  0
  7  8  1  0  0  0  0
 17 18  1  0  0  0  0
  3  4  1  0  0  0  0
  3  5  1  0  0  0  0
  3  6  1  0  0  0  0
 40 43  1  0  0  0  0
 40 44  1  0  0  0  0
 40 45  1  0  0  0  0
 11 14  1  0  0  0  0
 11 15  1  0  0  0  0
 11 16  1  0  0  0  0
 23 30  1  0  0  0  0
 23 31  1  0  0  0  0
 23 32  1  0  0  0  0
 24 33  1  0  0  0  0
 24 34  1  0  0  0  0
 24 35  1  0  0  0  0
 47 49  1  0  0  0  0
 47 50  1  0  0  0  0
 47 51  1  0  0  0  0
 21 27  1  0  0  0  0
 21 28  1  0  0  0  0
 37 42  1  0  0  0  0
  8 13  1  0  0  0  0
 18 26  1  0  0  0  0
 22 29  1  0  0  0  0
 46 48  1  0  0  0  0
  7 12  1  0  0  0  0
 36 41  1  0  0  0  0
 17 25  1  0  0  0  0
M  END
$$$$

  -OEChem-05262214473D

 51 50  0     1  0  0  0  0  0999 V2000
    3.4018   -1.2440   -3.0186 C   0  0  0  0  0  0  0  0  0  0  0  0
    3.2697   -2.0909   -2.1427 O   0  0  0  0  0  0  0  0  0  0  0  0
    4.6845   -1.1645   -3.7779 C   0  0  0  0  0  0  0  0  0  0  0  0
    5.4123   -0.4862   -3.3041 H   0  0  0  0  0  0  0  0  0  0  0  0
    5.1949   -2.1387   -3.8443 H   0  0  0  0  0  0  0  0  0  0  0  0
    4.5953   -0.8128   -4.8182 H   0  0  0  0  0  0  0  0  0  0  0  0
    2.4540   -0.3103   -3.4040 N   0  0  0  0  0  0  0  0  0  0  0  0
    1.1494   -0.2128   -2.8039 C   0  0  2  0  0  0  0  0  0  0  0  0
    1.3350    0.0367   -1.3130 C   0  0  0  0  0  0  0  0  0  0  0  0
    2.3625   -0.2586   -0.7063 O   0  0  0  0  0  0  0  0  0  0  0  0
    0.3331   -1.4728   -3.0467 C   0  0  0  0  0  0  0  0  0  0  0  0
    2.6924    0.3404   -4.1502 H   0  0  0  0  0  0  0  0  0  0  0  0
    0.6550    0.6514   -3.2607 H   0  0  0  0  0  0  0  0  0  0  0  0
    0.8129   -2.3494   -2.5963 H   0  0  0  0  0  0  0  0  0  0  0  0
   -0.6690   -1.3857   -2.6142 H   0  0  0  0  0  0  0  0  0  0  0  0
    0.2259   -1.6670   -4.1194 H   0  0  0  0  0  0  0  0  0  0  0  0
    0.2019    0.5893   -0.7269 N   0  0  0  0  0  0  0  0  0  0  0  0
    0.1242    0.9059    0.6756 C   0  0  2  0  0  0  0  0  0  0  0  0
    1.5489    0.8846    1.2204 C   0  0  0  0  0  0  0  0  0  0  0  0
    1.9059    1.5552    2.1868 O   0  0  0  0  0  0  0  0  0  0  0  0
   -0.7537   -0.0876    1.4473 C   0  0  0  0  0  0  0  0  0  0  0  0
   -2.2485   -0.0600    1.0684 C   0  0  0  0  0  0  0  0  0  0  0  0
   -2.9855   -1.1898    1.7930 C   0  0  0  0  0  0  0  0  0  0  0  0
   -2.4698   -0.1848   -0.4396 C   0  0  0  0  0  0  0  0  0  0  0  0
   -0.5975    0.8179   -1.3140 H   0  0  0  0  0  0  0  0  0  0  0  0
   -0.2664    1.9257    0.7517 H   0  0  0  0  0  0  0  0  0  0  0  0
   -0.6599    0.1177    2.5230 H   0  0  0  0  0  0  0  0  0  0  0  0
   -0.3657   -1.1047    1.3026 H   0  0  0  0  0  0  0  0  0  0  0  0
   -2.6871    0.8881    1.4029 H   0  0  0  0  0  0  0  0  0  0  0  0
   -2.5882   -2.1665    1.4970 H   0  0  0  0  0  0  0  0  0  0  0  0
   -4.0531   -1.1775    1.5487 H   0  0  0  0  0  0  0  0  0  0  0  0
   -2.8849   -1.0981    2.8799 H   0  0  0  0  0  0  0  0  0  0  0  0
   -2.0488   -1.1188   -0.8267 H   0  0  0  0  0  0  0  0  0  0  0  0
   -3.5391   -0.1727   -0.6772 H   0  0  0  0  0  0  0  0  0  0  0  0
   -2.0103    0.6477   -0.9805 H   0  0  0  0  0  0  0  0  0  0  0  0
    2.3566   -0.0093    0.5310 N   0  0  0  0  0  0  0  0  0  0  0  0
    3.7440   -0.2418    0.8621 C   0  0  2  0  0  0  0  0  0  0  0  0
    3.8713   -0.2434    2.3798 C   0  0  0  0  0  0  0  0  0  0  0  0
    3.0586    0.3044    3.1217 O   0  0  0  0  0  0  0  0  0  0  0  0
    4.6454    0.8145    0.2422 C   0  0  0  0  0  0  0  0  0  0  0  0
    1.9640   -0.5405   -0.2406 H   0  0  0  0  0  0  0  0  0  0  0  0
    4.0003   -1.2330    0.4725 H   0  0  0  0  0  0  0  0  0  0  0  0
    4.4035    1.8144    0.6205 H   0  0  0  0  0  0  0  0  0  0  0  0
    5.6987    0.6207    0.4702 H   0  0  0  0  0  0  0  0  0  0  0  0
    4.5304    0.8345   -0.8470 H   0  0  0  0  0  0  0  0  0  0  0  0
    5.0222   -0.8914    2.8062 N   0  0  0  0  0  0  0  0  0  0  0  0
    5.3753   -1.0160    4.2011 C   0  0  0  0  0  0  0  0  0  0  0  0
    5.6295   -1.3331    2.1223 H   0  0  0  0  0  0  0  0  0  0  0  0
    6.0256   -0.1776    4.4916 H   0  0  0  0  0  0  0  0  0  0  0  0
    4.4616   -1.0003    4.8134 H   0  0  0  0  0  0  0  0  0  0  0  0
    5.9077   -1.9652    4.3611 H   0  0  0  0  0  0  0  0  0  0  0  0
  1  3  1  0  0  0  0
  1  7  1  0  0  0  0
  1  2  2  0  0  0  0
 37 38  1  0  0  0  0
 38 46  1  0  0  0  0
 38 39  2  0  0  0  0
  8  9  1  0  0  0  0
  9 17  1  0  0  0  0
  9 10  2  0  0  0  0
 18 19  1  0  0  0  0
 19 36  1  0  0  0  0
 19 20  2  0  0  0  0
 37 40  1  0  0  0  0
  8 11  1  0  0  0  0
 22 23  1  0  0  0  0
 22 24  1  0  0  0  0
 46 47  1  0  0  0  0
 18 21  1  0  0  0  0
 21 22  1  0  0  0  0
 36 37  1  0  0  0  0
  7  8  1  0  0  0  0
 17 18  1  0  0  0  0
  3  4  1  0  0  0  0
  3  5  1  0  0  0  0
  3  6  1  0  0  0  0
 40 43  1  0  0  0  0
 40 44  1  0  0  0  0
 40 45  1  0  0  0  0
 11 14  1  0  0  0  0
 11 15  1  0  0  0  0
 11 16  1  0  0  0  0
 23 30  1  0  0  0  0
 23 31  1  0  0  0  0
 23 32  1  0  0  0  0
 24 33  1  0  0  0  0
 24 34  1  0  0  0  0
 24 35  1  0  0  0  0
 47 49  1  0  0  0  0
 47 50  1  0  0  0  0
 47 51  1  0  0  0  0
 21 27  1  0  0  0  0
 21 28  1  0  0  0  0
 37 42  1  0  0  0  0
  8 13  1  0  0  0  0
 18 26  1  0  0  0  0
 22 29  1  0  0  0  0
 46 48  1  0  0  0  0
  7 12  1  0  0  0  0
 36 41  1  0  0  0  0
 17 25  1  0  0  0  0
M  END
$$$$

  -OEChem-05262214473D

 51 50  0     1  0  0  0  0  0999 V2000
    3.4018   -1.2440   -3.0186 C   0  0  0  0  0  0  0  0  0  0  0  0
    3.2697   -2.0909   -2.1427 O   0  0  0  0  0  0  0  0  0  0  0  0
    4.6845   -1.1645   -3.7779 C   0  0  0  0  0  0  0  0  0  0  0  0
    5.4123   -0.4862   -3.3041 H   0  0  0  0  0  0  0  0  0  0  0  0
    5.1949   -2.1387   -3.8443 H   0  0  0  0  0  0  0  0  0  0  0  0
    4.5953   -0.8128   -4.8182 H   0  0  0  0  0  0  0  0  0  0  0  0
    2.4540   -0.3103   -3.4040 N   0  0  0  0  0  0  0  0  0  0  0  0
    1.1494   -0.2128   -2.8039 C   0  0  2  0  0  0  0  0  0  0  0  0
    1.3350    0.0367   -1.3130 C   0  0  0  0  0  0  0  0  0  0  0  0
    2.3625   -0.2586   -0.7063 O   0  0  0  0  0  0  0  0  0  0  0  0
    0.3331   -1.4728   -3.0467 C   0  0  0  0  0  0  0  0  0  0  0  0
    2.6924    0.3404   -4.1502 H   0  0  0  0  0  0  0  0  0  0  0  0
    0.6550    0.6514   -3.2607 H   0  0  0  0  0  0  0  0  0  0  0  0
    0.8129   -2.3494   -2.5963 H   0  0  0  0  0  0  0  0  0  0  0  0
   -0.6690   -1.3857   -2.6142 H   0  0  0  0  0  0  0  0  0  0  0  0
    0.2259   -1.6670   -4.1194 H   0  0  0  0  0  0  0  0  0  0  0  0
    0.2019    0.5893   -0.7269 N   0  0  0  0  0  0  0  0  0  0  0  0
    0.1242    0.9059    0.6756 C   0  0  2  0  0  0  0  0  0  0  0  0
    1.5489    0.8846    1.2204 C   0  0  0  0  0  0  0  0  0  0  0  0
    1.8496    1.3315    2.3254 O   0  0  0  0  0  0  0  0  0  0  0  0
   -0.7537   -0.0876    1.4473 C   0  0  0  0  0  0  0  0  0  0  0  0
   -2.2485   -0.0600    1.0684 C   0  0  0  0  0  0  0  0  0  0  0  0
   -2.9855   -1.1898    1.7930 C   0  0  0  0  0  0  0  0  0  0  0  0
   -2.4698   -0.1848   -0.4396 C   0  0  0  0  0  0  0  0  0  0  0  0
   -0.5975    0.8179   -1.3140 H   0  0  0  0  0  0  0  0  0  0  0  0
   -0.2664    1.9257    0.7517 H   0  0  0  0  0  0  0  0  0  0  0  0
   -0.6599    0.1177    2.5230 H   0  0  0  0  0  0  0  0  0  0  0  0
   -0.3657   -1.1047    1.3026 H   0  0  0  0  0  0  0  0  0  0  0  0
   -2.6871    0.8881    1.4029 H   0  0  0  0  0  0  0  0  0  0  0  0
   -2.5882   -2.1665    1.4970 H   0  0  0  0  0  0  0  0  0  0  0  0
   -4.0531   -1.1775    1.5487 H   0  0  0  0  0  0  0  0  0  0  0  0
   -2.8849   -1.0981    2.8799 H   0  0  0  0  0  0  0  0  0  0  0  0
   -2.0488   -1.1188   -0.8267 H   0  0  0  0  0  0  0  0  0  0  0  0
   -3.5391   -0.1727   -0.6772 H   0  0  0  0  0  0  0  0  0  0  0  0
   -2.0103    0.6477   -0.9805 H   0  0  0  0  0  0  0  0  0  0  0  0
    2.4307    0.2623    0.3477 N   0  0  0  0  0  0  0  0  0  0  0  0
    3.8363    0.0852    0.6336 C   0  0  2  0  0  0  0  0  0  0  0  0
    3.9750   -0.2718    2.1077 C   0  0  0  0  0  0  0  0  0  0  0  0
    3.1206    0.0031    2.9477 O   0  0  0  0  0  0  0  0  0  0  0  0
    4.6308    1.3384    0.3007 C   0  0  0  0  0  0  0  0  0  0  0  0
    2.0832   -0.1004   -0.5352 H   0  0  0  0  0  0  0  0  0  0  0  0
    4.1805   -0.7545    0.0200 H   0  0  0  0  0  0  0  0  0  0  0  0
    4.3000    2.1904    0.9057 H   0  0  0  0  0  0  0  0  0  0  0  0
    5.6993    1.1929    0.4910 H   0  0  0  0  0  0  0  0  0  0  0  0
    4.5060    1.6106   -0.7529 H   0  0  0  0  0  0  0  0  0  0  0  0
    5.1843   -0.8950    2.3822 N   0  0  0  0  0  0  0  0  0  0  0  0
    5.5583   -1.3202    3.7108 C   0  0  0  0  0  0  0  0  0  0  0  0
    5.8247   -1.1003    1.6210 H   0  0  0  0  0  0  0  0  0  0  0  0
    6.1301   -0.5209    4.2048 H   0  0  0  0  0  0  0  0  0  0  0  0
    4.6518   -1.5372    4.2950 H   0  0  0  0  0  0  0  0  0  0  0  0
    6.1777   -2.2268    3.6447 H   0  0  0  0  0  0  0  0  0  0  0  0
  1  3  1  0  0  0  0
  1  7  1  0  0  0  0
  1  2  2  0  0  0  0
 37 38  1  0  0  0  0
 38 46  1  0  0  0  0
 38 39  2  0  0  0  0
  8  9  1  0  0  0  0
  9 17  1  0  0  0  0
  9 10  2  0  0  0  0
 18 19  1  0  0  0  0
 19 36  1  0  0  0  0
 19 20  2  0  0  0  0
 37 40  1  0  0  0  0
  8 11  1  0  0  0  0
 22 23  1  0  0  0  0
 22 24  1  0  0  0  0
 46 47  1  0  0  0  0
 18 21  1  0  0  0  0
 21 22  1  0  0  0  0
 36 37  1  0  0  0  0
  7  8  1  0  0  0  0
 17 18  1  0  0  0  0
  3  4  1  0  0  0  0
  3  5  1  0  0  0  0
  3  6  1  0  0  0  0
 40 43  1  0  0  0  0
 40 44  1  0  0  0  0
 40 45  1  0  0  0  0
 11 14  1  0  0  0  0
 11 15  1  0  0  0  0
 11 16  1  0  0  0  0
 23 30  1  0  0  0  0
 23 31  1  0  0  0  0
 23 32  1  0  0  0  0
 24 33  1  0  0  0  0
 24 34  1  0  0  0  0
 24 35  1  0  0  0  0
 47 49  1  0  0  0  0
 47 50  1  0  0  0  0
 47 51  1  0  0  0  0
 21 27  1  0  0  0  0
 21 28  1  0  0  0  0
 37 42  1  0  0  0  0
  8 13  1  0  0  0  0
 18 26  1  0  0  0  0
 22 29  1  0  0  0  0
 46 48  1  0  0  0  0
  7 12  1  0  0  0  0
 36 41  1  0  0  0  0
 17 25  1  0  0  0  0
M  END
$$$$

  -OEChem-05262214473D

 51 50  0     1  0  0  0  0  0999 V2000
    3.4018   -1.2440   -3.0186 C   0  0  0  0  0  0  0  0  0  0  0  0
    3.2697   -2.0909   -2.1427 O   0  0  0  0  0  0  0  0  0  0  0  0
    4.6845   -1.1645   -3.7779 C   0  0  0  0  0  0  0  0  0  0  0  0
    5.4123   -0.4862   -3.3041 H   0  0  0  0  0  0  0  0  0  0  0  0
    5.1949   -2.1387   -3.8443 H   0  0  0  0  0  0  0  0  0  0  0  0
    4.5953   -0.8128   -4.8182 H   0  0  0  0  0  0  0  0  0  0  0  0
    2.4540   -0.3103   -3.4040 N   0  0  0  0  0  0  0  0  0  0  0  0
    1.1494   -0.2128   -2.8039 C   0  0  2  0  0  0  0  0  0  0  0  0
    1.3350    0.0367   -1.3130 C   0  0  0  0  0  0  0  0  0  0  0  0
    2.3625   -0.2586   -0.7063 O   0  0  0  0  0  0  0  0  0  0  0  0
    0.3331   -1.4728   -3.0467 C   0  0  0  0  0  0  0  0  0  0  0  0
    2.6924    0.3404   -4.1502 H   0  0  0  0  0  0  0  0  0  0  0  0
    0.6550    0.6514   -3.2607 H   0  0  0  0  0  0  0  0  0  0  0  0
    0.8129   -2.3494   -2.5963 H   0  0  0  0  0  0  0  0  0  0  0  0
   -0.6690   -1.3857   -2.6142 H   0  0  0  0  0  0  0  0  0  0  0  0
    0.2259   -1.6670   -4.1194 H   0  0  0  0  0  0  0  0  0  0  0  0
    0.2019    0.5893   -0.7269 N   0  0  0  0  0  0  0  0  0  0  0  0
    0.1242    0.9059    0.6756 C   0  0  2  0  0  0  0  0  0  0  0  0
    1.5489    0.8846    1.2204 C   0  0  0  0  0  0  0  0  0  0  0  0
    1.8153    1.0766    2.4050 O   0  0  0  0  0  0  0  0  0  0  0  0
   -0.7537   -0.0876    1.4473 C   0  0  0  0  0  0  0  0  0  0  0  0
   -2.2485   -0.0600    1.0684 C   0  0  0  0  0  0  0  0  0  0  0  0
   -2.9855   -1.1898    1.7930 C   0  0  0  0  0  0  0  0  0  0  0  0
   -2.4698   -0.1848   -0.4396 C   0  0  0  0  0  0  0  0  0  0  0  0
   -0.5975    0.8179   -1.3140 H   0  0  0  0  0  0  0  0  0  0  0  0
   -0.2664    1.9257    0.7517 H   0  0  0  0  0  0  0  0  0  0  0  0
   -0.6599    0.1177    2.5230 H   0  0  0  0  0  0  0  0  0  0  0  0
   -0.3657   -1.1047    1.3026 H   0  0  0  0  0  0  0  0  0  0  0  0
   -2.6871    0.8881    1.4029 H   0  0  0  0  0  0  0  0  0  0  0  0
   -2.5882   -2.1665    1.4970 H   0  0  0  0  0  0  0  0  0  0  0  0
   -4.0531   -1.1775    1.5487 H   0  0  0  0  0  0  0  0  0  0  0  0
   -2.8849   -1.0981    2.8799 H   0  0  0  0  0  0  0  0  0  0  0  0
   -2.0488   -1.1188   -0.8267 H   0  0  0  0  0  0  0  0  0  0  0  0
   -3.5391   -0.1727   -0.6772 H   0  0  0  0  0  0  0  0  0  0  0  0
   -2.0103    0.6477   -0.9805 H   0  0  0  0  0  0  0  0  0  0  0  0
    2.4779    0.5757    0.2365 N   0  0  0  0  0  0  0  0  0  0  0  0
    3.8960    0.4648    0.4922 C   0  0  2  0  0  0  0  0  0  0  0  0
    4.0787   -0.2238    1.8383 C   0  0  0  0  0  0  0  0  0  0  0  0
    3.2090   -0.2401    2.7070 O   0  0  0  0  0  0  0  0  0  0  0  0
    4.5681    1.8289    0.4838 C   0  0  0  0  0  0  0  0  0  0  0  0
    2.1588    0.4070   -0.7129 H   0  0  0  0  0  0  0  0  0  0  0  0
    4.3120   -0.1662   -0.3008 H   0  0  0  0  0  0  0  0  0  0  0  0
    4.1643    2.4751    1.2718 H   0  0  0  0  0  0  0  0  0  0  0  0
    5.6470    1.7407    0.6494 H   0  0  0  0  0  0  0  0  0  0  0  0
    4.4104    2.3352   -0.4746 H   0  0  0  0  0  0  0  0  0  0  0  0
    5.3427   -0.7810    1.9722 N   0  0  0  0  0  0  0  0  0  0  0  0
    5.7649   -1.4787    3.1643 C   0  0  0  0  0  0  0  0  0  0  0  0
    5.9936   -0.7363    1.1937 H   0  0  0  0  0  0  0  0  0  0  0  0
    6.2638   -0.7734    3.8453 H   0  0  0  0  0  0  0  0  0  0  0  0
    4.8871   -1.9130    3.6651 H   0  0  0  0  0  0  0  0  0  0  0  0
    6.4654   -2.2814    2.8904 H   0  0  0  0  0  0  0  0  0  0  0  0
  1  3  1  0  0  0  0
  1  7  1  0  0  0  0
  1  2  2  0  0  0  0
 37 38  1  0  0  0  0
 38 46  1  0  0  0  0
 38 39  2  0  0  0  0
  8  9  1  0  0  0  0
  9 17  1  0  0  0  0
  9 10  2  0  0  0  0
 18 19  1  0  0  0  0
 19 36  1  0  0  0  0
 19 20  2  0  0  0  0
 37 40  1  0  0  0  0
  8 11  1  0  0  0  0
 22 23  1  0  0  0  0
 22 24  1  0  0  0  0
 46 47  1  0  0  0  0
 18 21  1  0  0  0  0
 21 22  1  0  0  0  0
 36 37  1  0  0  0  0
  7  8  1  0  0  0  0
 17 18  1  0  0  0  0
  3  4  1  0  0  0  0
  3  5  1  0  0  0  0
  3  6  1  0  0  0  0
 40 43  1  0  0  0  0
 40 44  1  0  0  0  0
 40 45  1  0  0  0  0
 11 14  1  0  0  0  0
 11 15  1  0  0  0  0
 11 16  1  0  0  0  0
 23 30  1  0  0  0  0
 23 31  1  0  0  0  0
 23 32  1  0  0  0  0
 24 33  1  0  0  0  0
 24 34  1  0  0  0  0
 24 35  1  0  0  0  0
 47 49  1  0  0  0  0
 47 50  1  0  0  0  0
 47 51  1  0  0  0  0
 21 27  1  0  0  0  0
 21 28  1  0  0  0  0
 37 42  1  0  0  0  0
  8 13  1  0  0  0  0
 18 26  1  0  0  0  0
 22 29  1  0  0  0  0
 46 48  1  0  0  0  0
  7 12  1  0  0  0  0
 36 41  1  0  0  0  0
 17 25  1  0  0  0  0
M  END
$$$$

  -OEChem-05262214473D

 51 50  0     1  0  0  0  0  0999 V2000
    3.4018   -1.2440   -3.0186 C   0  0  0  0  0  0  0  0  0  0  0  0
    3.2697   -2.0909   -2.1427 O   0  0  0  0  0  0  0  0  0  0  0  0
    4.6845   -1.1645   -3.7779 C   0  0  0  0  0  0  0  0  0  0  0  0
    5.4123   -0.4862   -3.3041 H   0  0  0  0  0  0  0  0  0  0  0  0
    5.1949   -2.1387   -3.8443 H   0  0  0  0  0  0  0  0  0  0  0  0
    4.5953   -0.8128   -4.8182 H   0  0  0  0  0  0  0  0  0  0  0  0
    2.4540   -0.3103   -3.4040 N   0  0  0  0  0  0  0  0  0  0  0  0
    1.1494   -0.2128   -2.8039 C   0  0  2  0  0  0  0  0  0  0  0  0
    1.3350    0.0367   -1.3130 C   0  0  0  0  0  0  0  0  0  0  0  0
    2.3625   -0.2586   -0.7063 O   0  0  0  0  0  0  0  0  0  0  0  0
    0.3331   -1.4728   -3.0467 C   0  0  0  0  0  0  0  0  0  0  0  0
    2.6924    0.3404   -4.1502 H   0  0  0  0  0  0  0  0  0  0  0  0
    0.6550    0.6514   -3.2607 H   0  0  0  0  0  0  0  0  0  0  0  0
    0.8129   -2.3494   -2.5963 H   0  0  0  0  0  0  0  0  0  0  0  0
   -0.6690   -1.3857   -2.6142 H   0  0  0  0  0  0  0  0  0  0  0  0
    0.2259   -1.6670   -4.1194 H   0  0  0  0  0  0  0  0  0  0  0  0
    0.2019    0.5893   -0.7269 N   0  0  0  0  0  0  0  0  0  0  0  0
    0.1242    0.9059    0.6756 C   0  0  2  0  0  0  0  0  0  0  0  0
    1.5489    0.8846    1.2204 C   0  0  0  0  0  0  0  0  0  0  0  0
    1.8055    0.8080    2.4202 O   0  0  0  0  0  0  0  0  0  0  0  0
   -0.7537   -0.0876    1.4473 C   0  0  0  0  0  0  0  0  0  0  0  0
   -2.2485   -0.0600    1.0684 C   0  0  0  0  0  0  0  0  0  0  0  0
   -2.9855   -1.1898    1.7930 C   0  0  0  0  0  0  0  0  0  0  0  0
   -2.4698   -0.1848   -0.4396 C   0  0  0  0  0  0  0  0  0  0  0  0
   -0.5975    0.8179   -1.3140 H   0  0  0  0  0  0  0  0  0  0  0  0
   -0.2664    1.9257    0.7517 H   0  0  0  0  0  0  0  0  0  0  0  0
   -0.6599    0.1177    2.5230 H   0  0  0  0  0  0  0  0  0  0  0  0
   -0.3657   -1.1047    1.3026 H   0  0  0  0  0  0  0  0  0  0  0  0
   -2.6871    0.8881    1.4029 H   0  0  0  0  0  0  0  0  0  0  0  0
   -2.5882   -2.1665    1.4970 H   0  0  0  0  0  0  0  0  0  0  0  0
   -4.0531   -1.1775    1.5487 H   0  0  0  0  0  0  0  0  0  0  0  0
   -2.8849   -1.0981    2.8799 H   0  0  0  0  0  0  0  0  0  0  0  0
   -2.0488   -1.1188   -0.8267 H   0  0  0  0  0  0  0  0  0  0  0  0
   -3.5391   -0.1727   -0.6772 H   0  0  0  0  0  0  0  0  0  0  0  0
   -2.0103    0.6477   -0.9805 H   0  0  0  0  0  0  0  0  0  0  0  0
    2.4949    0.9097    0.2051 N   0  0  0  0  0  0  0  0  0  0  0  0
    3.9191    0.8711    0.4476 C   0  0  2  0  0  0  0  0  0  0  0  0
    4.1754   -0.1028    1.5901 C   0  0  0  0  0  0  0  0  0  0  0  0
    3.3178   -0.4087    2.4160 O   0  0  0  0  0  0  0  0  0  0  0  0
    4.4616    2.2526    0.7791 C   0  0  0  0  0  0  0  0  0  0  0  0
    2.1855    0.9470   -0.7616 H   0  0  0  0  0  0  0  0  0  0  0  0
    4.3858    0.4918   -0.4680 H   0  0  0  0  0  0  0  0  0  0  0  0
    4.0056    2.6491    1.6936 H   0  0  0  0  0  0  0  0  0  0  0  0
    5.5452    2.2266    0.9345 H   0  0  0  0  0  0  0  0  0  0  0  0
    4.2501    2.9590   -0.0309 H   0  0  0  0  0  0  0  0  0  0  0  0
    5.4868   -0.5571    1.6044 N   0  0  0  0  0  0  0  0  0  0  0  0
    5.9811   -1.4805    2.5988 C   0  0  0  0  0  0  0  0  0  0  0  0
    6.1245   -0.2657    0.8695 H   0  0  0  0  0  0  0  0  0  0  0  0
    6.4176   -0.9182    3.4374 H   0  0  0  0  0  0  0  0  0  0  0  0
    5.1514   -2.1020    2.9666 H   0  0  0  0  0  0  0  0  0  0  0  0
    6.7510   -2.1253    2.1497 H   0  0  0  0  0  0  0  0  0  0  0  0
  1  3  1  0  0  0  0
  1  7  1  0  0  0  0
  1  2  2  0  0  0  0
 37 38  1  0  0  0  0
 38 46  1  0  0  0  0
 38 39  2  0  0  0  0
  8  9  1  0  0  0  0
  9 17  1  0  0  0  0
  9 10  2  0  0  0  0
 18 19  1  0  0  0  0
 19 36  1  0  0  0  0
 19 20  2  0  0  0  0
 37 40  1  0  0  0  0
  8 11  1  0  0  0  0
 22 23  1  0  0  0  0
 22 24  1  0  0  0  0
 46 47  1  0  0  0  0
 18 21  1  0  0  0  0
 21 22  1  0  0  0  0
 36 37  1  0  0  0  0
  7  8  1  0  0  0  0
 17 18  1  0  0  0  0
  3  4  1  0  0  0  0
  3  5  1  0  0  0  0
  3  6  1  0  0  0  0
 40 43  1  0  0  0  0
 40 44  1  0  0  0  0
 40 45  1  0  0  0  0
 11 14  1  0  0  0  0
 11 15  1  0  0  0  0
 11 16  1  0  0  0  0
 23 30  1  0  0  0  0
 23 31  1  0  0  0  0
 23 32  1  0  0  0  0
 24 33  1  0  0  0  0
 24 34  1  0  0  0  0
 24 35  1  0  0  0  0
 47 49  1  0  0  0  0
 47 50  1  0  0  0  0
 47 51  1  0  0  0  0
 21 27  1  0  0  0  0
 21 28  1  0  0  0  0
 37 42  1  0  0  0  0
  8 13  1  0  0  0  0
 18 26  1  0  0  0  0
 22 29  1  0  0  0  0
 46 48  1  0  0  0  0
  7 12  1  0  0  0  0
 36 41  1  0  0  0  0
 17 25  1  0  0  0  0
M  END
$$$$

  -OEChem-05262214473D

 51 50  0     1  0  0  0  0  0999 V2000
    3.4018   -1.2440   -3.0186 C   0  0  0  0  0  0  0  0  0  0  0  0
    3.2697   -2.0909   -2.1427 O   0  0  0  0  0  0  0  0  0  0  0  0
    4.6845   -1.1645   -3.7779 C   0  0  0  0  0  0  0  0  0  0  0  0
    5.4123   -0.4862   -3.3041 H   0  0  0  0  0  0  0  0  0  0  0  0
    5.1949   -2.1387   -3.8443 H   0  0  0  0  0  0  0  0  0  0  0  0
    4.5953   -0.8128   -4.8182 H   0  0  0  0  0  0  0  0  0  0  0  0
    2.4540   -0.3103   -3.4040 N   0  0  0  0  0  0  0  0  0  0  0  0
    1.1494   -0.2128   -2.8039 C   0  0  2  0  0  0  0  0  0  0  0  0
    1.3350    0.0367   -1.3130 C   0  0  0  0  0  0  0  0  0  0  0  0
    2.3625   -0.2586   -0.7063 O   0  0  0  0  0  0  0  0  0  0  0  0
    0.3331   -1.4728   -3.0467 C   0  0  0  0  0  0  0  0  0  0  0  0
    2.6924    0.3404   -4.1502 H   0  0  0  0  0  0  0  0  0  0  0  0
    0.6550    0.6514   -3.2607 H   0  0  0  0  0  0  0  0  0  0  0  0
    0.8129   -2.3494   -2.5963 H   0  0  0  0  0  0  0  0  0  0  0  0
   -0.6690   -1.3857   -2.6142 H   0  0  0  0  0  0  0  0  0  0  0  0
    0.2259   -1.6670   -4.1194 H   0  0  0  0  0  0  0  0  0  0  0  0
    0.2019    0.5893   -0.7269 N   0  0  0  0  0  0  0  0  0  0  0  0
    0.1242    0.9059    0.6756 C   0  0  2  0  0  0  0  0  0  0  0  0
    1.5489    0.8846    1.2204 C   0  0  0  0  0  0  0  0  0  0  0  0
    1.8208    0.5440    2.3699 O   0  0  0  0  0  0  0  0  0  0  0  0
   -0.7537   -0.0876    1.4473 C   0  0  0  0  0  0  0  0  0  0  0  0
   -2.2485   -0.0600    1.0684 C   0  0  0  0  0  0  0  0  0  0  0  0
   -2.9855   -1.1898    1.7930 C   0  0  0  0  0  0  0  0  0  0  0  0
   -2.4698   -0.1848   -0.4396 C   0  0  0  0  0  0  0  0  0  0  0  0
   -0.5975    0.8179   -1.3140 H   0  0  0  0  0  0  0  0  0  0  0  0
   -0.2664    1.9257    0.7517 H   0  0  0  0  0  0  0  0  0  0  0  0
   -0.6599    0.1177    2.5230 H   0  0  0  0  0  0  0  0  0  0  0  0
   -0.3657   -1.1047    1.3026 H   0  0  0  0  0  0  0  0  0  0  0  0
   -2.6871    0.8881    1.4029 H   0  0  0  0  0  0  0  0  0  0  0  0
   -2.5882   -2.1665    1.4970 H   0  0  0  0  0  0  0  0  0  0  0  0
   -4.0531   -1.1775    1.5487 H   0  0  0  0  0  0  0  0  0  0  0  0
   -2.8849   -1.0981    2.8799 H   0  0  0  0  0  0  0  0  0  0  0  0
   -2.0488   -1.1188   -0.8267 H   0  0  0  0  0  0  0  0  0  0  0  0
   -3.5391   -0.1727   -0.6772 H   0  0  0  0  0  0  0  0  0  0  0  0
   -2.0103    0.6477   -0.9805 H   0  0  0  0  0  0  0  0  0  0  0  0
    2.4806    1.2414    0.2555 N   0  0  0  0  0  0  0  0  0  0  0  0
    3.9041    1.2765    0.5029 C   0  0  2  0  0  0  0  0  0  0  0  0
    4.2586    0.0830    1.3800 C   0  0  0  0  0  0  0  0  0  0  0  0
    3.4395   -0.4911    2.0945 O   0  0  0  0  0  0  0  0  0  0  0  0
    4.3184    2.5807    1.1663 C   0  0  0  0  0  0  0  0  0  0  0  0
    2.1616    1.4829   -0.6781 H   0  0  0  0  0  0  0  0  0  0  0  0
    4.3968    1.1745   -0.4702 H   0  0  0  0  0  0  0  0  0  0  0  0
    3.8347    2.7005    2.1426 H   0  0  0  0  0  0  0  0  0  0  0  0
    5.4009    2.6177    1.3271 H   0  0  0  0  0  0  0  0  0  0  0  0
    4.0360    3.4395    0.5478 H   0  0  0  0  0  0  0  0  0  0  0  0
    5.6065   -0.2386    1.3038 N   0  0  0  0  0  0  0  0  0  0  0  0
    6.1922   -1.3257    2.0529 C   0  0  0  0  0  0  0  0  0  0  0  0
    6.2087    0.2793    0.6707 H   0  0  0  0  0  0  0  0  0  0  0  0
    6.5810   -0.9451    3.0090 H   0  0  0  0  0  0  0  0  0  0  0  0
    5.4266   -2.0912    2.2473 H   0  0  0  0  0  0  0  0  0  0  0  0
    7.0151   -1.7690    1.4730 H   0  0  0  0  0  0  0  0  0  0  0  0
  1  3  1  0  0  0  0
  1  7  1  0  0  0  0
  1  2  2  0  0  0  0
 37 38  1  0  0  0  0
 38 46  1  0  0  0  0
 38 39  2  0  0  0  0
  8  9  1  0  0  0  0
  9 17  1  0  0  0  0
  9 10  2  0  0  0  0
 18 19  1  0  0  0  0
 19 36  1  0  0  0  0
 19 20  2  0  0  0  0
 37 40  1  0  0  0  0
  8 11  1  0  0  0  0
 22 23  1  0  0  0  0
 22 24  1  0  0  0  0
 46 47  1  0  0  0  0
 18 21  1  0  0  0  0
 21 22  1  0  0  0  0
 36 37  1  0  0  0  0
  7  8  1  0  0  0  0
 17 18  1  0  0  0  0
  3  4  1  0  0  0  0
  3  5  1  0  0  0  0
  3  6  1  0  0  0  0
 40 43  1  0  0  0  0
 40 44  1  0  0  0  0
 40 45  1  0  0  0  0
 11 14  1  0  0  0  0
 11 15  1  0  0  0  0
 11 16  1  0  0  0  0
 23 30  1  0  0  0  0
 23 31  1  0  0  0  0
 23 32  1  0  0  0  0
 24 33  1  0  0  0  0
 24 34  1  0  0  0  0
 24 35  1  0  0  0  0
 47 49  1  0  0  0  0
 47 50  1  0  0  0  0
 47 51  1  0  0  0  0
 21 27  1  0  0  0  0
 21 28  1  0  0  0  0
 37 42  1  0  0  0  0
  8 13  1  0  0  0  0
 18 26  1  0  0  0  0
 22 29  1  0  0  0  0
 46 48  1  0  0  0  0
  7 12  1  0  0  0  0
 36 41  1  0  0  0  0
 17 25  1  0  0  0  0
M  END
$$$$

  -OEChem-05262214473D

 51 50  0     1  0  0  0  0  0999 V2000
    3.4018   -1.2440   -3.0186 C   0  0  0  0  0  0  0  0  0  0  0  0
    3.2697   -2.0909   -2.1427 O   0  0  0  0  0  0  0  0  0  0  0  0
    4.6845   -1.1645   -3.7779 C   0  0  0  0  0  0  0  0  0  0  0  0
    5.4123   -0.4862   -3.3041 H   0  0  0  0  0  0  0  0  0  0  0  0
    5.1949   -2.1387   -3.8443 H   0  0  0  0  0  0  0  0  0  0  0  0
    4.5953   -0.8128   -4.8182 H   0  0  0  0  0  0  0  0  0  0  0  0
    2.4540   -0.3103   -3.4040 N   0  0  0  0  0  0  0  0  0  0  0  0
    1.1494   -0.2128   -2.8039 C   0  0  2  0  0  0  0  0  0  0  0  0
    1.3350    0.0367   -1.3130 C   0  0  0  0  0  0  0  0  0  0  0  0
    2.3625   -0.2586   -0.7063 O   0  0  0  0  0  0  0  0  0  0  0  0
    0.3331   -1.4728   -3.0467 C   0  0  0  0  0  0  0  0  0  0  0  0
    2.6924    0.3404   -4.1502 H   0  0  0  0  0  0  0  0  0  0  0  0
    0.6550    0.6514   -3.2607 H   0  0  0  0  0  0  0  0  0  0  0  0
    0.8129   -2.3494   -2.5963 H   0  0  0  0  0  0  0  0  0  0  0  0
   -0.6690   -1.3857   -2.6142 H   0  0  0  0  0  0  0  0  0  0  0  0
    0.2259   -1.6670   -4.1194 H   0  0  0  0  0  0  0  0  0  0  0  0
    0.2019    0.5893   -0.7269 N   0  0  0  0  0  0  0  0  0  0  0  0
    0.1242    0.9059    0.6756 C   0  0  2  0  0  0  0  0  0  0  0  0
    1.5489    0.8846    1.2204 C   0  0  0  0  0  0  0  0  0  0  0  0
    1.8601    0.3026    2.2575 O   0  0  0  0  0  0  0  0  0  0  0  0
   -0.7537   -0.0876    1.4473 C   0  0  0  0  0  0  0  0  0  0  0  0
   -2.2485   -0.0600    1.0684 C   0  0  0  0  0  0  0  0  0  0  0  0
   -2.9855   -1.1898    1.7930 C   0  0  0  0  0  0  0  0  0  0  0  0
   -2.4698   -0.1848   -0.4396 C   0  0  0  0  0  0  0  0  0  0  0  0
   -0.5975    0.8179   -1.3140 H   0  0  0  0  0  0  0  0  0  0  0  0
   -0.2664    1.9257    0.7517 H   0  0  0  0  0  0  0  0  0  0  0  0
   -0.6599    0.1177    2.5230 H   0  0  0  0  0  0  0  0  0  0  0  0
   -0.3657   -1.1047    1.3026 H   0  0  0  0  0  0  0  0  0  0  0  0
   -2.6871    0.8881    1.4029 H   0  0  0  0  0  0  0  0  0  0  0  0
   -2.5882   -2.1665    1.4970 H   0  0  0  0  0  0  0  0  0  0  0  0
   -4.0531   -1.1775    1.5487 H   0  0  0  0  0  0  0  0  0  0  0  0
   -2.8849   -1.0981    2.8799 H   0  0  0  0  0  0  0  0  0  0  0  0
   -2.0488   -1.1188   -0.8267 H   0  0  0  0  0  0  0  0  0  0  0  0
   -3.5391   -0.1727   -0.6772 H   0  0  0  0  0  0  0  0  0  0  0  0
   -2.0103    0.6477   -0.9805 H   0  0  0  0  0  0  0  0  0  0  0  0
    2.4359    1.5484    0.3843 N   0  0  0  0  0  0  0  0  0  0  0  0
    3.8519    1.6534    0.6542 C   0  0  2  0  0  0  0  0  0  0  0  0
    4.3224    0.3210    1.2222 C   0  0  0  0  0  0  0  0  0  0  0  0
    3.5658   -0.4817    1.7646 O   0  0  0  0  0  0  0  0  0  0  0  0
    4.1484    2.7908    1.6191 C   0  0  0  0  0  0  0  0  0  0  0  0
    2.0886    1.9781   -0.4679 H   0  0  0  0  0  0  0  0  0  0  0  0
    4.3444    1.8356   -0.3072 H   0  0  0  0  0  0  0  0  0  0  0  0
    3.6632    2.6259    2.5881 H   0  0  0  0  0  0  0  0  0  0  0  0
    5.2240    2.8872    1.8003 H   0  0  0  0  0  0  0  0  0  0  0  0
    3.7826    3.7439    1.2223 H   0  0  0  0  0  0  0  0  0  0  0  0
    5.6938    0.1528    1.0908 N   0  0  0  0  0  0  0  0  0  0  0  0
    6.3837   -1.0246    1.5639 C   0  0  0  0  0  0  0  0  0  0  0  0
    6.2404    0.8615    0.6106 H   0  0  0  0  0  0  0  0  0  0  0  0
    6.7429   -0.8525    2.5892 H   0  0  0  0  0  0  0  0  0  0  0  0
    5.6941   -1.8815    1.5561 H   0  0  0  0  0  0  0  0  0  0  0  0
    7.2397   -1.2368    0.9064 H   0  0  0  0  0  0  0  0  0  0  0  0
  1  3  1  0  0  0  0
  1  7  1  0  0  0  0
  1  2  2  0  0  0  0
 37 38  1  0  0  0  0
 38 46  1  0  0  0  0
 38 39  2  0  0  0  0
  8  9  1  0  0  0  0
  9 17  1  0  0  0  0
  9 10  2  0  0  0  0
 18 19  1  0  0  0  0
 19 36  1  0  0  0  0
 19 20  2  0  0  0  0
 37 40  1  0  0  0  0
  8 11  1  0  0  0  0
 22 23  1  0  0  0  0
 22 24  1  0  0  0  0
 46 47  1  0  0  0  0
 18 21  1  0  0  0  0
 21 22  1  0  0  0  0
 36 37  1  0  0  0  0
  7  8  1  0  0  0  0
 17 18  1  0  0  0  0
  3  4  1  0  0  0  0
  3  5  1  0  0  0  0
  3  6  1  0  0  0  0
 40 43  1  0  0  0  0
 40 44  1  0  0  0  0
 40 45  1  0  0  0  0
 11 14  1  0  0  0  0
 11 15  1  0  0  0  0
 11 16  1  0  0  0  0
 23 30  1  0  0  0  0
 23 31  1  0  0  0  0
 23 32  1  0  0  0  0
 24 33  1  0  0  0  0
 24 34  1  0  0  0  0
 24 35  1  0  0  0  0
 47 49  1  0  0  0  0
 47 50  1  0  0  0  0
 47 51  1  0  0  0  0
 21 27  1  0  0  0  0
 21 28  1  0  0  0  0
 37 42  1  0  0  0  0
  8 13  1  0  0  0  0
 18 26  1  0  0  0  0
 22 29  1  0  0  0  0
 46 48  1  0  0  0  0
  7 12  1  0  0  0  0
 36 41  1  0  0  0  0
 17 25  1  0  0  0  0
M  END
$$$$

  -OEChem-05262214473D

 51 50  0     1  0  0  0  0  0999 V2000
    3.4018   -1.2440   -3.0186 C   0  0  0  0  0  0  0  0  0  0  0  0
    3.2697   -2.0909   -2.1427 O   0  0  0  0  0  0  0  0  0  0  0  0
    4.6845   -1.1645   -3.7779 C   0  0  0  0  0  0  0  0  0  0  0  0
    5.4123   -0.4862   -3.3041 H   0  0  0  0  0  0  0  0  0  0  0  0
    5.1949   -2.1387   -3.8443 H   0  0  0  0  0  0  0  0  0  0  0  0
    4.5953   -0.8128   -4.8182 H   0  0  0  0  0  0  0  0  0  0  0  0
    2.4540   -0.3103   -3.4040 N   0  0  0  0  0  0  0  0  0  0  0  0
    1.1494   -0.2128   -2.8039 C   0  0  2  0  0  0  0  0  0  0  0  0
    1.3350    0.0367   -1.3130 C   0  0  0  0  0  0  0  0  0  0  0  0
    2.3625   -0.2586   -0.7063 O   0  0  0  0  0  0  0  0  0  0  0  0
    0.3331   -1.4728   -3.0467 C   0  0  0  0  0  0  0  0  0  0  0  0
    2.6924    0.3404   -4.1502 H   0  0  0  0  0  0  0  0  0  0  0  0
    0.6550    0.6514   -3.2607 H   0  0  0  0  0  0  0  0  0  0  0  0
    0.8129   -2.3494   -2.5963 H   0  0  0  0  0  0  0  0  0  0  0  0
   -0.6690   -1.3857   -2.6142 H   0  0  0  0  0  0  0  0  0  0  0  0
    0.2259   -1.6670   -4.1194 H   0  0  0  0  0  0  0  0  0  0  0  0
    0.2019    0.5893   -0.7269 N   0  0  0  0  0  0  0  0  0  0  0  0
    0.1242    0.9059    0.6756 C   0  0  2  0  0  0  0  0  0  0  0  0
    1.5489    0.8846    1.2204 C   0  0  0  0  0  0  0  0  0  0  0  0
    1.9209    0.1002    2.0908 O   0  0  0  0  0  0  0  0  0  0  0  0
   -0.7537   -0.0876    1.4473 C   0  0  0  0  0  0  0  0  0  0  0  0
   -2.2485   -0.0600    1.0684 C   0  0  0  0  0  0  0  0  0  0  0  0
   -2.9855   -1.1898    1.7930 C   0  0  0  0  0  0  0  0  0  0  0  0
   -2.4698   -0.1848   -0.4396 C   0  0  0  0  0  0  0  0  0  0  0  0
   -0.5975    0.8179   -1.3140 H   0  0  0  0  0  0  0  0  0  0  0  0
   -0.2664    1.9257    0.7517 H   0  0  0  0  0  0  0  0  0  0  0  0
   -0.6599    0.1177    2.5230 H   0  0  0  0  0  0  0  0  0  0  0  0
   -0.3657   -1.1047    1.3026 H   0  0  0  0  0  0  0  0  0  0  0  0
   -2.6871    0.8881    1.4029 H   0  0  0  0  0  0  0  0  0  0  0  0
   -2.5882   -2.1665    1.4970 H   0  0  0  0  0  0  0  0  0  0  0  0
   -4.0531   -1.1775    1.5487 H   0  0  0  0  0  0  0  0  0  0  0  0
   -2.8849   -1.0981    2.8799 H   0  0  0  0  0  0  0  0  0  0  0  0
   -2.0488   -1.1188   -0.8267 H   0  0  0  0  0  0  0  0  0  0  0  0
   -3.5391   -0.1727   -0.6772 H   0  0  0  0  0  0  0  0  0  0  0  0
   -2.0103    0.6477   -0.9805 H   0  0  0  0  0  0  0  0  0  0  0  0
    2.3639    1.8096    0.5828 N   0  0  0  0  0  0  0  0  0  0  0  0
    3.7660    1.9760    0.8912 C   0  0  2  0  0  0  0  0  0  0  0  0
    4.3627    0.5949    1.1276 C   0  0  0  0  0  0  0  0  0  0  0  0
    3.6881   -0.3813    1.4486 O   0  0  0  0  0  0  0  0  0  0  0  0
    3.9631    2.8685    2.1067 C   0  0  0  0  0  0  0  0  0  0  0  0
    1.9716    2.3989   -0.1455 H   0  0  0  0  0  0  0  0  0  0  0  0
    4.2320    2.4299    0.0098 H   0  0  0  0  0  0  0  0  0  0  0  0
    3.5029    2.4302    2.9997 H   0  0  0  0  0  0  0  0  0  0  0  0
    5.0265    3.0168    2.3218 H   0  0  0  0  0  0  0  0  0  0  0  0
    3.5073    3.8516    1.9464 H   0  0  0  0  0  0  0  0  0  0  0  0
    5.7427    0.5903    0.9800 N   0  0  0  0  0  0  0  0  0  0  0  0
    6.5427   -0.5979    1.1650 C   0  0  0  0  0  0  0  0  0  0  0  0
    6.2174    1.4414    0.6935 H   0  0  0  0  0  0  0  0  0  0  0  0
    6.8923   -0.6467    2.2068 H   0  0  0  0  0  0  0  0  0  0  0  0
    5.9355   -1.4872    0.9401 H   0  0  0  0  0  0  0  0  0  0  0  0
    7.4095   -0.5651    0.4886 H   0  0  0  0  0  0  0  0  0  0  0  0
  1  3  1  0  0  0  0
  1  7  1  0  0  0  0
  1  2  2  0  0  0  0
 37 38  1  0  0  0  0
 38 46  1  0  0  0  0
 38 39  2  0  0  0  0
  8  9  1  0  0  0  0
  9 17  1  0  0  0  0
  9 10  2  0  0  0  0
 18 19  1  0  0  0  0
 19 36  1  0  0  0  0
 19 20  2  0  0  0  0
 37 40  1  0  0  0  0
  8 11  1  0  0  0  0
 22 23  1  0  0  0  0
 22 24  1  0  0  0  0
 46 47  1  0  0  0  0
 18 21  1  0  0  0  0
 21 22  1  0  0  0  0
 36 37  1  0  0  0  0
  7  8  1  0  0  0  0
 17 18  1  0  0  0  0
  3  4  1  0  0  0  0
  3  5  1  0  0  0  0
  3  6  1  0  0  0  0
 40 43  1  0  0  0  0
 40 44  1  0  0  0  0
 40 45  1  0  0  0  0
 11 14  1  0  0  0  0
 11 15  1  0  0  0  0
 11 16  1  0  0  0  0
 23 30  1  0  0  0  0
 23 31  1  0  0  0  0
 23 32  1  0  0  0  0
 24 33  1  0  0  0  0
 24 34  1  0  0  0  0
 24 35  1  0  0  0  0
 47 49  1  0  0  0  0
 47 50  1  0  0  0  0
 47 51  1  0  0  0  0
 21 27  1  0  0  0  0
 21 28  1  0  0  0  0
 37 42  1  0  0  0  0
  8 13  1  0  0  0  0
 18 26  1  0  0  0  0
 22 29  1  0  0  0  0
 46 48  1  0  0  0  0
  7 12  1  0  0  0  0
 36 41  1  0  0  0  0
 17 25  1  0  0  0  0
M  END
$$$$

  -OEChem-05262214473D

 51 50  0     1  0  0  0  0  0999 V2000
    3.4018   -1.2440   -3.0186 C   0  0  0  0  0  0  0  0  0  0  0  0
    3.2697   -2.0909   -2.1427 O   0  0  0  0  0  0  0  0  0  0  0  0
    4.6845   -1.1645   -3.7779 C   0  0  0  0  0  0  0  0  0  0  0  0
    5.4123   -0.4862   -3.3041 H   0  0  0  0  0  0  0  0  0  0  0  0
    5.1949   -2.1387   -3.8443 H   0  0  0  0  0  0  0  0  0  0  0  0
    4.5953   -0.8128   -4.8182 H   0  0  0  0  0  0  0  0  0  0  0  0
    2.4540   -0.3103   -3.4040 N   0  0  0  0  0  0  0  0  0  0  0  0
    1.1494   -0.2128   -2.8039 C   0  0  2  0  0  0  0  0  0  0  0  0
    1.3350    0.0367   -1.3130 C   0  0  0  0  0  0  0  0  0  0  0  0
    2.3625   -0.2586   -0.7063 O   0  0  0  0  0  0  0  0  0  0  0  0
    0.3331   -1.4728   -3.0467 C   0  0  0  0  0  0  0  0  0  0  0  0
    2.6924    0.3404   -4.1502 H   0  0  0  0  0  0  0  0  0  0  0  0
    0.6550    0.6514   -3.2607 H   0  0  0  0  0  0  0  0  0  0  0  0
    0.8129   -2.3494   -2.5963 H   0  0  0  0  0  0  0  0  0  0  0  0
   -0.6690   -1.3857   -2.6142 H   0  0  0  0  0  0  0  0  0  0  0  0
    0.2259   -1.6670   -4.1194 H   0  0  0  0  0  0  0  0  0  0  0  0
    0.2019    0.5893   -0.7269 N   0  0  0  0  0  0  0  0  0  0  0  0
    0.1242    0.9059    0.6756 C   0  0  2  0  0  0  0  0  0  0  0  0
    1.5489    0.8846    1.2204 C   0  0  0  0  0  0  0  0  0  0  0  0
    1.9989   -0.0494    1.8810 O   0  0  0  0  0  0  0  0  0  0  0  0
   -0.7537   -0.0876    1.4473 C   0  0  0  0  0  0  0  0  0  0  0  0
   -2.2485   -0.0600    1.0684 C   0  0  0  0  0  0  0  0  0  0  0  0
   -2.9855   -1.1898    1.7930 C   0  0  0  0  0  0  0  0  0  0  0  0
   -2.4698   -0.1848   -0.4396 C   0  0  0  0  0  0  0  0  0  0  0  0
   -0.5975    0.8179   -1.3140 H   0  0  0  0  0  0  0  0  0  0  0  0
   -0.2664    1.9257    0.7517 H   0  0  0  0  0  0  0  0  0  0  0  0
   -0.6599    0.1177    2.5230 H   0  0  0  0  0  0  0  0  0  0  0  0
   -0.3657   -1.1047    1.3026 H   0  0  0  0  0  0  0  0  0  0  0  0
   -2.6871    0.8881    1.4029 H   0  0  0  0  0  0  0  0  0  0  0  0
   -2.5882   -2.1665    1.4970 H   0  0  0  0  0  0  0  0  0  0  0  0
   -4.0531   -1.1775    1.5487 H   0  0  0  0  0  0  0  0  0  0  0  0
   -2.8849   -1.0981    2.8799 H   0  0  0  0  0  0  0  0  0  0  0  0
   -2.0488   -1.1188   -0.8267 H   0  0  0  0  0  0  0  0  0  0  0  0
   -3.5391   -0.1727   -0.6772 H   0  0  0  0  0  0  0  0  0  0  0  0
   -2.0103    0.6477   -0.9805 H   0  0  0  0  0  0  0  0  0  0  0  0
    2.2695    2.0073    0.8375 N   0  0  0  0  0  0  0  0  0  0  0  0
    3.6525    2.2224    1.1979 C   0  0  2  0  0  0  0  0  0  0  0  0
    4.3767    0.8860    1.1025 C   0  0  0  0  0  0  0  0  0  0  0  0
    3.7982   -0.1966    1.1681 O   0  0  0  0  0  0  0  0  0  0  0  0
    3.7752    2.8087    2.5957 C   0  0  0  0  0  0  0  0  0  0  0  0
    1.8186    2.7166    0.2672 H   0  0  0  0  0  0  0  0  0  0  0  0
    4.0674    2.9169    0.4593 H   0  0  0  0  0  0  0  0  0  0  0  0
    3.3646    2.1269    3.3495 H   0  0  0  0  0  0  0  0  0  0  0  0
    4.8218    2.9976    2.8562 H   0  0  0  0  0  0  0  0  0  0  0  0
    3.2289    3.7551    2.6708 H   0  0  0  0  0  0  0  0  0  0  0  0
    5.7499    1.0443    0.9789 N   0  0  0  0  0  0  0  0  0  0  0  0
    6.6582   -0.0746    0.8833 C   0  0  0  0  0  0  0  0  0  0  0  0
    6.1413    1.9794    0.9136 H   0  0  0  0  0  0  0  0  0  0  0  0
    7.0189   -0.3415    1.8877 H   0  0  0  0  0  0  0  0  0  0  0  0
    6.1346   -0.9350    0.4412 H   0  0  0  0  0  0  0  0  0  0  0  0
    7.5130    0.2004    0.2480 H   0  0  0  0  0  0  0  0  0  0  0  0
  1  3  1  0  0  0  0
  1  7  1  0  0  0  0
  1  2  2  0  0  0  0
 37 38  1  0  0  0  0
 38 46  1  0  0  0  0
 38 39  2  0  0  0  0
  8  9  1  0  0  0  0
  9 17  1  0  0  0  0
  9 10  2  0  0  0  0
 18 19  1  0  0  0  0
 19 36  1  0  0  0  0
 19 20  2  0  0  0  0
 37 40  1  0  0  0  0
  8 11  1  0  0  0  0
 22 23  1  0  0  0  0
 22 24  1  0  0  0  0
 46 47  1  0  0  0  0
 18 21  1  0  0  0  0
 21 22  1  0  0  0  0
 36 37  1  0  0  0  0
  7  8  1  0  0  0  0
 17 18  1  0  0  0  0
  3  4  1  0  0  0  0
  3  5  1  0  0  0  0
  3  6  1  0  0  0  0
 40 43  1  0  0  0  0
 40 44  1  0  0  0  0
 40 45  1  0  0  0  0
 11 14  1  0  0  0  0
 11 15  1  0  0  0  0
 11 16  1  0  0  0  0
 23 30  1  0  0  0  0
 23 31  1  0  0  0  0
 23 32  1  0  0  0  0
 24 33  1  0  0  0  0
 24 34  1  0  0  0  0
 24 35  1  0  0  0  0
 47 49  1  0  0  0  0
 47 50  1  0  0  0  0
 47 51  1  0  0  0  0
 21 27  1  0  0  0  0
 21 28  1  0  0  0  0
 37 42  1  0  0  0  0
  8 13  1  0  0  0  0
 18 26  1  0  0  0  0
 22 29  1  0  0  0  0
 46 48  1  0  0  0  0
  7 12  1  0  0  0  0
 36 41  1  0  0  0  0
 17 25  1  0  0  0  0
M  END
$$$$

  -OEChem-05262214473D

 51 50  0     1  0  0  0  0  0999 V2000
    3.4018   -1.2440   -3.0186 C   0  0  0  0  0  0  0  0  0  0  0  0
    3.2697   -2.0909   -2.1427 O   0  0  0  0  0  0  0  0  0  0  0  0
    4.6845   -1.1645   -3.7779 C   0  0  0  0  0  0  0  0  0  0  0  0
    5.4123   -0.4862   -3.3041 H   0  0  0  0  0  0  0  0  0  0  0  0
    5.1949   -2.1387   -3.8443 H   0  0  0  0  0  0  0  0  0  0  0  0
    4.5953   -0.8128   -4.8182 H   0  0  0  0  0  0  0  0  0  0  0  0
    2.4540   -0.3103   -3.4040 N   0  0  0  0  0  0  0  0  0  0  0  0
    1.1494   -0.2128   -2.8039 C   0  0  2  0  0  0  0  0  0  0  0  0
    1.3350    0.0367   -1.3130 C   0  0  0  0  0  0  0  0  0  0  0  0
    2.3625   -0.2586   -0.7063 O   0  0  0  0  0  0  0  0  0  0  0  0
    0.3331   -1.4728   -3.0467 C   0  0  0  0  0  0  0  0  0  0  0  0
    2.6924    0.3404   -4.1502 H   0  0  0  0  0  0  0  0  0  0  0  0
    0.6550    0.6514   -3.2607 H   0  0  0  0  0  0  0  0  0  0  0  0
    0.8129   -2.3494   -2.5963 H   0  0  0  0  0  0  0  0  0  0  0  0
   -0.6690   -1.3857   -2.6142 H   0  0  0  0  0  0  0  0  0  0  0  0
    0.2259   -1.6670   -4.1194 H   0  0  0  0  0  0  0  0  0  0  0  0
    0.2019    0.5893   -0.7269 N   0  0  0  0  0  0  0  0  0  0  0  0
    0.1242    0.9059    0.6756 C   0  0  2  0  0  0  0  0  0  0  0  0
    1.5489    0.8846    1.2204 C   0  0  0  0  0  0  0  0  0  0  0  0
    2.0888   -0.1360    1.6425 O   0  0  0  0  0  0  0  0  0  0  0  0
   -0.7537   -0.0876    1.4473 C   0  0  0  0  0  0  0  0  0  0  0  0
   -2.2485   -0.0600    1.0684 C   0  0  0  0  0  0  0  0  0  0  0  0
   -2.9855   -1.1898    1.7930 C   0  0  0  0  0  0  0  0  0  0  0  0
   -2.4698   -0.1848   -0.4396 C   0  0  0  0  0  0  0  0  0  0  0  0
   -0.5975    0.8179   -1.3140 H   0  0  0  0  0  0  0  0  0  0  0  0
   -0.2664    1.9257    0.7517 H   0  0  0  0  0  0  0  0  0  0  0  0
   -0.6599    0.1177    2.5230 H   0  0  0  0  0  0  0  0  0  0  0  0
   -0.3657   -1.1047    1.3026 H   0  0  0  0  0  0  0  0  0  0  0  0
   -2.6871    0.8881    1.4029 H   0  0  0  0  0  0  0  0  0  0  0  0
   -2.5882   -2.1665    1.4970 H   0  0  0  0  0  0  0  0  0  0  0  0
   -4.0531   -1.1775    1.5487 H   0  0  0  0  0  0  0  0  0  0  0  0
   -2.8849   -1.0981    2.8799 H   0  0  0  0  0  0  0  0  0  0  0  0
   -2.0488   -1.1188   -0.8267 H   0  0  0  0  0  0  0  0  0  0  0  0
   -3.5391   -0.1727   -0.6772 H   0  0  0  0  0  0  0  0  0  0  0  0
   -2.0103    0.6477   -0.9805 H   0  0  0  0  0  0  0  0  0  0  0  0
    2.1592    2.1280    1.1308 N   0  0  0  0  0  0  0  0  0  0  0  0
    3.5189    2.3758    1.5532 C   0  0  2  0  0  0  0  0  0  0  0  0
    4.3633    1.1746    1.1488 C   0  0  0  0  0  0  0  0  0  0  0  0
    3.8884    0.0598    0.9422 O   0  0  0  0  0  0  0  0  0  0  0  0
    3.5974    2.6152    3.0530 C   0  0  0  0  0  0  0  0  0  0  0  0
    1.6399    2.9095    0.7421 H   0  0  0  0  0  0  0  0  0  0  0  0
    3.8618    3.2634    1.0106 H   0  0  0  0  0  0  0  0  0  0  0  0
    3.2578    1.7366    3.6135 H   0  0  0  0  0  0  0  0  0  0  0  0
    4.6240    2.8310    3.3671 H   0  0  0  0  0  0  0  0  0  0  0  0
    2.9662    3.4610    3.3462 H   0  0  0  0  0  0  0  0  0  0  0  0
    5.7149    1.4837    1.0876 N   0  0  0  0  0  0  0  0  0  0  0  0
    6.7224    0.5096    0.7382 C   0  0  0  0  0  0  0  0  0  0  0  0
    6.0172    2.4387    1.2560 H   0  0  0  0  0  0  0  0  0  0  0  0
    7.1141    0.0420    1.6536 H   0  0  0  0  0  0  0  0  0  0  0  0
    6.2776   -0.2627    0.0936 H   0  0  0  0  0  0  0  0  0  0  0  0
    7.5430    1.0076    0.2010 H   0  0  0  0  0  0  0  0  0  0  0  0
  1  3  1  0  0  0  0
  1  7  1  0  0  0  0
  1  2  2  0  0  0  0
 37 38  1  0  0  0  0
 38 46  1  0  0  0  0
 38 39  2  0  0  0  0
  8  9  1  0  0  0  0
  9 17  1  0  0  0  0
  9 10  2  0  0  0  0
 18 19  1  0  0  0  0
 19 36  1  0  0  0  0
 19 20  2  0  0  0  0
 37 40  1  0  0  0  0
  8 11  1  0  0  0  0
 22 23  1  0  0  0  0
 22 24  1  0  0  0  0
 46 47  1  0  0  0  0
 18 21  1  0  0  0  0
 21 22  1  0  0  0  0
 36 37  1  0  0  0  0
  7  8  1  0  0  0  0
 17 18  1  0  0  0  0
  3  4  1  0  0  0  0
  3  5  1  0  0  0  0
  3  6  1  0  0  0  0
 40 43  1  0  0  0  0
 40 44  1  0  0  0  0
 40 45  1  0  0  0  0
 11 14  1  0  0  0  0
 11 15  1  0  0  0  0
 11 16  1  0  0  0  0
 23 30  1  0  0  0  0
 23 31  1  0  0  0  0
 23 32  1  0  0  0  0
 24 33  1  0  0  0  0
 24 34  1  0  0  0  0
 24 35  1  0  0  0  0
 47 49  1  0  0  0  0
 47 50  1  0  0  0  0
 47 51  1  0  0  0  0
 21 27  1  0  0  0  0
 21 28  1  0  0  0  0
 37 42  1  0  0  0  0
  8 13  1  0  0  0  0
 18 26  1  0  0  0  0
 22 29  1  0  0  0  0
 46 48  1  0  0  0  0
  7 12  1  0  0  0  0
 36 41  1  0  0  0  0
 17 25  1  0  0  0  0
M  END
$$$$

  -OEChem-05262214473D

 51 50  0     1  0  0  0  0  0999 V2000
    3.4018   -1.2440   -3.0186 C   0  0  0  0  0  0  0  0  0  0  0  0
    3.2697   -2.0909   -2.1427 O   0  0  0  0  0  0  0  0  0  0  0  0
    4.6845   -1.1645   -3.7779 C   0  0  0  0  0  0  0  0  0  0  0  0
    5.4123   -0.4862   -3.3041 H   0  0  0  0  0  0  0  0  0  0  0  0
    5.1949   -2.1387   -3.8443 H   0  0  0  0  0  0  0  0  0  0  0  0
    4.5953   -0.8128   -4.8182 H   0  0  0  0  0  0  0  0  0  0  0  0
    2.4540   -0.3103   -3.4040 N   0  0  0  0  0  0  0  0  0  0  0  0
    1.1494   -0.2128   -2.8039 C   0  0  2  0  0  0  0  0  0  0  0  0
    1.3350    0.0367   -1.3130 C   0  0  0  0  0  0  0  0  0  0  0  0
    2.3625   -0.2586   -0.7063 O   0  0  0  0  0  0  0  0  0  0  0  0
    0.3331   -1.4728   -3.0467 C   0  0  0  0  0  0  0  0  0  0  0  0
    2.6924    0.3404   -4.1502 H   0  0  0  0  0  0  0  0  0  0  0  0
    0.6550    0.6514   -3.2607 H   0  0  0  0  0  0  0  0  0  0  0  0
    0.8129   -2.3494   -2.5963 H   0  0  0  0  0  0  0  0  0  0  0  0
   -0.6690   -1.3857   -2.6142 H   0  0  0  0  0  0  0  0  0  0  0  0
    0.2259   -1.6670   -4.1194 H   0  0  0  0  0  0  0  0  0  0  0  0
    0.2019    0.5893   -0.7269 N   0  0  0  0  0  0  0  0  0  0  0  0
    0.1242    0.9059    0.6756 C   0  0  2  0  0  0  0  0  0  0  0  0
    1.5489    0.8846    1.2204 C   0  0  0  0  0  0  0  0  0  0  0  0
    2.1845   -0.1537    1.3915 O   0  0  0  0  0  0  0  0  0  0  0  0
   -0.7537   -0.0876    1.4473 C   0  0  0  0  0  0  0  0  0  0  0  0
   -2.2485   -0.0600    1.0684 C   0  0  0  0  0  0  0  0  0  0  0  0
   -2.9855   -1.1898    1.7930 C   0  0  0  0  0  0  0  0  0  0  0  0
   -2.4698   -0.1848   -0.4396 C   0  0  0  0  0  0  0  0  0  0  0  0
   -0.5975    0.8179   -1.3140 H   0  0  0  0  0  0  0  0  0  0  0  0
   -0.2664    1.9257    0.7517 H   0  0  0  0  0  0  0  0  0  0  0  0
   -0.6599    0.1177    2.5230 H   0  0  0  0  0  0  0  0  0  0  0  0
   -0.3657   -1.1047    1.3026 H   0  0  0  0  0  0  0  0  0  0  0  0
   -2.6871    0.8881    1.4029 H   0  0  0  0  0  0  0  0  0  0  0  0
   -2.5882   -2.1665    1.4970 H   0  0  0  0  0  0  0  0  0  0  0  0
   -4.0531   -1.1775    1.5487 H   0  0  0  0  0  0  0  0  0  0  0  0
   -2.8849   -1.0981    2.8799 H   0  0  0  0  0  0  0  0  0  0  0  0
   -2.0488   -1.1188   -0.8267 H   0  0  0  0  0  0  0  0  0  0  0  0
   -3.5391   -0.1727   -0.6772 H   0  0  0  0  0  0  0  0  0  0  0  0
   -2.0103    0.6477   -0.9805 H   0  0  0  0  0  0  0  0  0  0  0  0
    2.0403    2.1634    1.4430 N   0  0  0  0  0  0  0  0  0  0  0  0
    3.3744    2.4257    1.9331 C   0  0  2  0  0  0  0  0  0  0  0  0
    4.3236    1.4410    1.2631 C   0  0  0  0  0  0  0  0  0  0  0  0
    3.9526    0.3704    0.7863 O   0  0  0  0  0  0  0  0  0  0  0  0
    3.4420    2.3014    3.4472 C   0  0  0  0  0  0  0  0  0  0  0  0
    1.4477    2.9646    1.2468 H   0  0  0  0  0  0  0  0  0  0  0  0
    3.6292    3.4459    1.6261 H   0  0  0  0  0  0  0  0  0  0  0  0
    3.1897    1.2859    3.7737 H   0  0  0  0  0  0  0  0  0  0  0  0
    4.4465    2.5283    3.8195 H   0  0  0  0  0  0  0  0  0  0  0  0
    2.7372    2.9893    3.9266 H   0  0  0  0  0  0  0  0  0  0  0  0
    5.6401    1.8787    1.2987 N   0  0  0  0  0  0  0  0  0  0  0  0
    6.7310    1.1150    0.7395 C   0  0  0  0  0  0  0  0  0  0  0  0
    5.8537    2.7882    1.6973 H   0  0  0  0  0  0  0  0  0  0  0  0
    7.1715    0.4779    1.5206 H   0  0  0  0  0  0  0  0  0  0  0  0
    6.3548    0.4839   -0.0792 H   0  0  0  0  0  0  0  0  0  0  0  0
    7.4976    1.8014    0.3509 H   0  0  0  0  0  0  0  0  0  0  0  0
  1  3  1  0  0  0  0
  1  7  1  0  0  0  0
  1  2  2  0  0  0  0
 37 38  1  0  0  0  0
 38 46  1  0  0  0  0
 38 39  2  0  0  0  0
  8  9  1  0  0  0  0
  9 17  1  0  0  0  0
  9 10  2  0  0  0  0
 18 19  1  0  0  0  0
 19 36  1  0  0  0  0
 19 20  2  0  0  0  0
 37 40  1  0  0  0  0
  8 11  1  0  0  0  0
 22 23  1  0  0  0  0
 22 24  1  0  0  0  0
 46 47  1  0  0  0  0
 18 21  1  0  0  0  0
 21 22  1  0  0  0  0
 36 37  1  0  0  0  0
  7  8  1  0  0  0  0
 17 18  1  0  0  0  0
  3  4  1  0  0  0  0
  3  5  1  0  0  0  0
  3  6  1  0  0  0  0
 40 43  1  0  0  0  0
 40 44  1  0  0  0  0
 40 45  1  0  0  0  0
 11 14  1  0  0  0  0
 11 15  1  0  0  0  0
 11 16  1  0  0  0  0
 23 30  1  0  0  0  0
 23 31  1  0  0  0  0
 23 32  1  0  0  0  0
 24 33  1  0  0  0  0
 24 34  1  0  0  0  0
 24 35  1  0  0  0  0
 47 49  1  0  0  0  0
 47 50  1  0  0  0  0
 47 51  1  0  0  0  0
 21 27  1  0  0  0  0
 21 28  1  0  0  0  0
 37 42  1  0  0  0  0
  8 13  1  0  0  0  0
 18 26  1  0  0  0  0
 22 29  1  0  0  0  0
 46 48  1  0  0  0  0
  7 12  1  0  0  0  0
 36 41  1  0  0  0  0
 17 25  1  0  0  0  0
M  END
$$$$

  -OEChem-05262214473D

 51 50  0     1  0  0  0  0  0999 V2000
    3.4018   -1.2440   -3.0186 C   0  0  0  0  0  0  0  0  0  0  0  0
    3.2697   -2.0909   -2.1427 O   0  0  0  0  0  0  0  0  0  0  0  0
    4.6845   -1.1645   -3.7779 C   0  0  0  0  0  0  0  0  0  0  0  0
    5.4123   -0.4862   -3.3041 H   0  0  0  0  0  0  0  0  0  0  0  0
    5.1949   -2.1387   -3.8443 H   0  0  0  0  0  0  0  0  0  0  0  0
    4.5953   -0.8128   -4.8182 H   0  0  0  0  0  0  0  0  0  0  0  0
    2.4540   -0.3103   -3.4040 N   0  0  0  0  0  0  0  0  0  0  0  0
    1.1494   -0.2128   -2.8039 C   0  0  2  0  0  0  0  0  0  0  0  0
    1.3350    0.0367   -1.3130 C   0  0  0  0  0  0  0  0  0  0  0  0
    2.3625   -0.2586   -0.7063 O   0  0  0  0  0  0  0  0  0  0  0  0
    0.3331   -1.4728   -3.0467 C   0  0  0  0  0  0  0  0  0  0  0  0
    2.6924    0.3404   -4.1502 H   0  0  0  0  0  0  0  0  0  0  0  0
    0.6550    0.6514   -3.2607 H   0  0  0  0  0  0  0  0  0  0  0  0
    0.8129   -2.3494   -2.5963 H   0  0  0  0  0  0  0  0  0  0  0  0
   -0.6690   -1.3857   -2.6142 H   0  0  0  0  0  0  0  0  0  0  0  0
    0.2259   -1.6670   -4.1194 H   0  0  0  0  0  0  0  0  0  0  0  0
    0.2019    0.5893   -0.7269 N   0  0  0  0  0  0  0  0  0  0  0  0
    0.1242    0.9059    0.6756 C   0  0  2  0  0  0  0  0  0  0  0  0
    1.5489    0.8846    1.2204 C   0  0  0  0  0  0  0  0  0  0  0  0
    2.2795   -0.1012    1.1452 O   0  0  0  0  0  0  0  0  0  0  0  0
   -0.7537   -0.0876    1.4473 C   0  0  0  0  0  0  0  0  0  0  0  0
   -2.2485   -0.0600    1.0684 C   0  0  0  0  0  0  0  0  0  0  0  0
   -2.9855   -1.1898    1.7930 C   0  0  0  0  0  0  0  0  0  0  0  0
   -2.4698   -0.1848   -0.4396 C   0  0  0  0  0  0  0  0  0  0  0  0
   -0.5975    0.8179   -1.3140 H   0  0  0  0  0  0  0  0  0  0  0  0
   -0.2664    1.9257    0.7517 H   0  0  0  0  0  0  0  0  0  0  0  0
   -0.6599    0.1177    2.5230 H   0  0  0  0  0  0  0  0  0  0  0  0
   -0.3657   -1.1047    1.3026 H   0  0  0  0  0  0  0  0  0  0  0  0
   -2.6871    0.8881    1.4029 H   0  0  0  0  0  0  0  0  0  0  0  0
   -2.5882   -2.1665    1.4970 H   0  0  0  0  0  0  0  0  0  0  0  0
   -4.0531   -1.1775    1.5487 H   0  0  0  0  0  0  0  0  0  0  0  0
   -2.8849   -1.0981    2.8799 H   0  0  0  0  0  0  0  0  0  0  0  0
   -2.0488   -1.1188   -0.8267 H   0  0  0  0  0  0  0  0  0  0  0  0
   -3.5391   -0.1727   -0.6772 H   0  0  0  0  0  0  0  0  0  0  0  0
   -2.0103    0.6477   -0.9805 H   0  0  0  0  0  0  0  0  0  0  0  0
    1.9211    2.1112    1.7527 N   0  0  0  0  0  0  0  0  0  0  0  0
    3.2288    2.3687    2.3115 C   0  0  2  0  0  0  0  0  0  0  0  0
    4.2601    1.6669    1.4378 C   0  0  0  0  0  0  0  0  0  0  0  0
    3.9866    0.7141    0.7110 O   0  0  0  0  0  0  0  0  0  0  0  0
    3.3194    1.8887    3.7516 C   0  0  0  0  0  0  0  0  0  0  0  0
    1.2551    2.8780    1.7470 H   0  0  0  0  0  0  0  0  0  0  0  0
    3.3854    3.4519    2.2639 H   0  0  0  0  0  0  0  0  0  0  0  0
    3.1651    0.8056    3.8194 H   0  0  0  0  0  0  0  0  0  0  0  0
    4.3013    2.1102    4.1827 H   0  0  0  0  0  0  0  0  0  0  0  0
    2.5575    2.3723    4.3724 H   0  0  0  0  0  0  0  0  0  0  0  0
    5.5306    2.2022    1.5978 N   0  0  0  0  0  0  0  0  0  0  0  0
    6.6833    1.7002    0.8871 C   0  0  0  0  0  0  0  0  0  0  0  0
    5.6618    3.0040    2.2075 H   0  0  0  0  0  0  0  0  0  0  0  0
    7.1871    0.9364    1.4977 H   0  0  0  0  0  0  0  0  0  0  0  0
    6.3610    1.2541   -0.0653 H   0  0  0  0  0  0  0  0  0  0  0  0
    7.3798    2.5278    0.6873 H   0  0  0  0  0  0  0  0  0  0  0  0
  1  3  1  0  0  0  0
  1  7  1  0  0  0  0
  1  2  2  0  0  0  0
 37 38  1  0  0  0  0
 38 46  1  0  0  0  0
 38 39  2  0  0  0  0
  8  9  1  0  0  0  0
  9 17  1  0  0  0  0
  9 10  2  0  0  0  0
 18 19  1  0  0  0  0
 19 36  1  0  0  0  0
 19 20  2  0  0  0  0
 37 40  1  0  0  0  0
  8 11  1  0  0  0  0
 22 23  1  0  0  0  0
 22 24  1  0  0  0  0
 46 47  1  0  0  0  0
 18 21  1  0  0  0  0
 21 22  1  0  0  0  0
 36 37  1  0  0  0  0
  7  8  1  0  0  0  0
 17 18  1  0  0  0  0
  3  4  1  0  0  0  0
  3  5  1  0  0  0  0
  3  6  1  0  0  0  0
 40 43  1  0  0  0  0
 40 44  1  0  0  0  0
 40 45  1  0  0  0  0
 11 14  1  0  0  0  0
 11 15  1  0  0  0  0
 11 16  1  0  0  0  0
 23 30  1  0  0  0  0
 23 31  1  0  0  0  0
 23 32  1  0  0  0  0
 24 33  1  0  0  0  0
 24 34  1  0  0  0  0
 24 35  1  0  0  0  0
 47 49  1  0  0  0  0
 47 50  1  0  0  0  0
 47 51  1  0  0  0  0
 21 27  1  0  0  0  0
 21 28  1  0  0  0  0
 37 42  1  0  0  0  0
  8 13  1  0  0  0  0
 18 26  1  0  0  0  0
 22 29  1  0  0  0  0
 46 48  1  0  0  0  0
  7 12  1  0  0  0  0
 36 41  1  0  0  0  0
 17 25  1  0  0  0  0
M  END
$$$$

  -OEChem-05262214473D

 51 50  0     1  0  0  0  0  0999 V2000
    3.4018   -1.2440   -3.0186 C   0  0  0  0  0  0  0  0  0  0  0  0
    3.2697   -2.0909   -2.1427 O   0  0  0  0  0  0  0  0  0  0  0  0
    4.6845   -1.1645   -3.7779 C   0  0  0  0  0  0  0  0  0  0  0  0
    5.4123   -0.4862   -3.3041 H   0  0  0  0  0  0  0  0  0  0  0  0
    5.1949   -2.1387   -3.8443 H   0  0  0  0  0  0  0  0  0  0  0  0
    4.5953   -0.8128   -4.8182 H   0  0  0  0  0  0  0  0  0  0  0  0
    2.4540   -0.3103   -3.4040 N   0  0  0  0  0  0  0  0  0  0  0  0
    1.1494   -0.2128   -2.8039 C   0  0  2  0  0  0  0  0  0  0  0  0
    1.3350    0.0367   -1.3130 C   0  0  0  0  0  0  0  0  0  0  0  0
    2.3625   -0.2586   -0.7063 O   0  0  0  0  0  0  0  0  0  0  0  0
    0.3331   -1.4728   -3.0467 C   0  0  0  0  0  0  0  0  0  0  0  0
    2.6924    0.3404   -4.1502 H   0  0  0  0  0  0  0  0  0  0  0  0
    0.6550    0.6514   -3.2607 H   0  0  0  0  0  0  0  0  0  0  0  0
    0.8129   -2.3494   -2.5963 H   0  0  0  0  0  0  0  0  0  0  0  0
   -0.6690   -1.3857   -2.6142 H   0  0  0  0  0  0  0  0  0  0  0  0
    0.2259   -1.6670   -4.1194 H   0  0  0  0  0  0  0  0  0  0  0  0
    0.2019    0.5893   -0.7269 N   0  0  0  0  0  0  0  0  0  0  0  0
    0.1242    0.9059    0.6756 C   0  0  2  0  0  0  0  0  0  0  0  0
    1.5489    0.8846    1.2204 C   0  0  0  0  0  0  0  0  0  0  0  0
    2.3673    0.0178    0.9202 O   0  0  0  0  0  0  0  0  0  0  0  0
   -0.7537   -0.0876    1.4473 C   0  0  0  0  0  0  0  0  0  0  0  0
   -2.2485   -0.0600    1.0684 C   0  0  0  0  0  0  0  0  0  0  0  0
   -2.9855   -1.1898    1.7930 C   0  0  0  0  0  0  0  0  0  0  0  0
   -2.4698   -0.1848   -0.4396 C   0  0  0  0  0  0  0  0  0  0  0  0
   -0.5975    0.8179   -1.3140 H   0  0  0  0  0  0  0  0  0  0  0  0
   -0.2664    1.9257    0.7517 H   0  0  0  0  0  0  0  0  0  0  0  0
   -0.6599    0.1177    2.5230 H   0  0  0  0  0  0  0  0  0  0  0  0
   -0.3657   -1.1047    1.3026 H   0  0  0  0  0  0  0  0  0  0  0  0
   -2.6871    0.8881    1.4029 H   0  0  0  0  0  0  0  0  0  0  0  0
   -2.5882   -2.1665    1.4970 H   0  0  0  0  0  0  0  0  0  0  0  0
   -4.0531   -1.1775    1.5487 H   0  0  0  0  0  0  0  0  0  0  0  0
   -2.8849   -1.0981    2.8799 H   0  0  0  0  0  0  0  0  0  0  0  0
   -2.0488   -1.1188   -0.8267 H   0  0  0  0  0  0  0  0  0  0  0  0
   -3.5391   -0.1727   -0.6772 H   0  0  0  0  0  0  0  0  0  0  0  0
   -2.0103    0.6477   -0.9805 H   0  0  0  0  0  0  0  0  0  0  0  0
    1.8097    1.9749    2.0387 N   0  0  0  0  0  0  0  0  0  0  0  0
    3.0921    2.2088    2.6628 C   0  0  2  0  0  0  0  0  0  0  0  0
    4.1773    1.8371    1.6610 C   0  0  0  0  0  0  0  0  0  0  0  0
    3.9879    1.0673    0.7215 O   0  0  0  0  0  0  0  0  0  0  0  0
    3.2380    1.4050    3.9455 C   0  0  0  0  0  0  0  0  0  0  0  0
    1.0753    2.6557    2.2085 H   0  0  0  0  0  0  0  0  0  0  0  0
    3.1470    3.2810    2.8805 H   0  0  0  0  0  0  0  0  0  0  0  0
    3.1855    0.3283    3.7472 H   0  0  0  0  0  0  0  0  0  0  0  0
    4.1984    1.6051    4.4319 H   0  0  0  0  0  0  0  0  0  0  0  0
    2.4393    1.6520    4.6532 H   0  0  0  0  0  0  0  0  0  0  0  0
    5.3938    2.4323    1.9646 N   0  0  0  0  0  0  0  0  0  0  0  0
    6.5826    2.2253    1.1710 C   0  0  0  0  0  0  0  0  0  0  0  0
    5.4547    3.0714    2.7517 H   0  0  0  0  0  0  0  0  0  0  0  0
    7.1599    1.3862    1.5865 H   0  0  0  0  0  0  0  0  0  0  0  0
    6.2958    1.9952    0.1343 H   0  0  0  0  0  0  0  0  0  0  0  0
    7.1977    3.1371    1.1874 H   0  0  0  0  0  0  0  0  0  0  0  0
  1  3  1  0  0  0  0
  1  7  1  0  0  0  0
  1  2  2  0  0  0  0
 37 38  1  0  0  0  0
 38 46  1  0  0  0  0
 38 39  2  0  0  0  0
  8  9  1  0  0  0  0
  9 17  1  0  0  0  0
  9 10  2  0  0  0  0
 18 19  1  0  0  0  0
 19 36  1  0  0  0  0
 19 20  2  0  0  0  0
 37 40  1  0  0  0  0
  8 11  1  0  0  0  0
 22 23  1  0  0  0  0
 22 24  1  0  0  0  0
 46 47  1  0  0  0  0
 18 21  1  0  0  0  0
 21 22  1  0  0  0  0
 36 37  1  0  0  0  0
  7  8  1  0  0  0  0
 17 18  1  0  0  0  0
  3  4  1  0  0  0  0
  3  5  1  0  0  0  0
  3  6  1  0  0  0  0
 40 43  1  0  0  0  0
 40 44  1  0  0  0  0
 40 45  1  0  0  0  0
 11 14  1  0  0  0  0
 11 15  1  0  0  0  0
 11 16  1  0  0  0  0
 23 30  1  0  0  0  0
 23 31  1  0  0  0  0
 23 32  1  0  0  0  0
 24 33  1  0  0  0  0
 24 34  1  0  0  0  0
 24 35  1  0  0  0  0
 47 49  1  0  0  0  0
 47 50  1  0  0  0  0
 47 51  1  0  0  0  0
 21 27  1  0  0  0  0
 21 28  1  0  0  0  0
 37 42  1  0  0  0  0
  8 13  1  0  0  0  0
 18 26  1  0  0  0  0
 22 29  1  0  0  0  0
 46 48  1  0  0  0  0
  7 12  1  0  0  0  0
 36 41  1  0  0  0  0
 17 25  1  0  0  0  0
M  END
$$$$

  -OEChem-05262214473D

 51 50  0     1  0  0  0  0  0999 V2000
    3.4018   -1.2440   -3.0186 C   0  0  0  0  0  0  0  0  0  0  0  0
    3.2697   -2.0909   -2.1427 O   0  0  0  0  0  0  0  0  0  0  0  0
    4.6845   -1.1645   -3.7779 C   0  0  0  0  0  0  0  0  0  0  0  0
    5.4123   -0.4862   -3.3041 H   0  0  0  0  0  0  0  0  0  0  0  0
    5.1949   -2.1387   -3.8443 H   0  0  0  0  0  0  0  0  0  0  0  0
    4.5953   -0.8128   -4.8182 H   0  0  0  0  0  0  0  0  0  0  0  0
    2.4540   -0.3103   -3.4040 N   0  0  0  0  0  0  0  0  0  0  0  0
    1.1494   -0.2128   -2.8039 C   0  0  2  0  0  0  0  0  0  0  0  0
    1.3350    0.0367   -1.3130 C   0  0  0  0  0  0  0  0  0  0  0  0
    2.3625   -0.2586   -0.7063 O   0  0  0  0  0  0  0  0  0  0  0  0
    0.3331   -1.4728   -3.0467 C   0  0  0  0  0  0  0  0  0  0  0  0
    2.6924    0.3404   -4.1502 H   0  0  0  0  0  0  0  0  0  0  0  0
    0.6550    0.6514   -3.2607 H   0  0  0  0  0  0  0  0  0  0  0  0
    0.8129   -2.3494   -2.5963 H   0  0  0  0  0  0  0  0  0  0  0  0
   -0.6690   -1.3857   -2.6142 H   0  0  0  0  0  0  0  0  0  0  0  0
    0.2259   -1.6670   -4.1194 H   0  0  0  0  0  0  0  0  0  0  0  0
    0.2019    0.5893   -0.7269 N   0  0  0  0  0  0  0  0  0  0  0  0
    0.1242    0.9059    0.6756 C   0  0  2  0  0  0  0  0  0  0  0  0
    1.5489    0.8846    1.2204 C   0  0  0  0  0  0  0  0  0  0  0  0
    2.4419    0.1952    0.7320 O   0  0  0  0  0  0  0  0  0  0  0  0
   -0.7537   -0.0876    1.4473 C   0  0  0  0  0  0  0  0  0  0  0  0
   -2.2485   -0.0600    1.0684 C   0  0  0  0  0  0  0  0  0  0  0  0
   -2.9855   -1.1898    1.7930 C   0  0  0  0  0  0  0  0  0  0  0  0
   -2.4698   -0.1848   -0.4396 C   0  0  0  0  0  0  0  0  0  0  0  0
   -0.5975    0.8179   -1.3140 H   0  0  0  0  0  0  0  0  0  0  0  0
   -0.2664    1.9257    0.7517 H   0  0  0  0  0  0  0  0  0  0  0  0
   -0.6599    0.1177    2.5230 H   0  0  0  0  0  0  0  0  0  0  0  0
   -0.3657   -1.1047    1.3026 H   0  0  0  0  0  0  0  0  0  0  0  0
   -2.6871    0.8881    1.4029 H   0  0  0  0  0  0  0  0  0  0  0  0
   -2.5882   -2.1665    1.4970 H   0  0  0  0  0  0  0  0  0  0  0  0
   -4.0531   -1.1775    1.5487 H   0  0  0  0  0  0  0  0  0  0  0  0
   -2.8849   -1.0981    2.8799 H   0  0  0  0  0  0  0  0  0  0  0  0
   -2.0488   -1.1188   -0.8267 H   0  0  0  0  0  0  0  0  0  0  0  0
   -3.5391   -0.1727   -0.6772 H   0  0  0  0  0  0  0  0  0  0  0  0
   -2.0103    0.6477   -0.9805 H   0  0  0  0  0  0  0  0  0  0  0  0
    1.7136    1.7638    2.2817 N   0  0  0  0  0  0  0  0  0  0  0  0
    2.9735    1.9567    2.9629 C   0  0  2  0  0  0  0  0  0  0  0  0
    4.0808    1.9399    1.9174 C   0  0  0  0  0  0  0  0  0  0  0  0
    3.9564    1.4061    0.8170 O   0  0  0  0  0  0  0  0  0  0  0  0
    3.2035    0.8835    4.0155 C   0  0  0  0  0  0  0  0  0  0  0  0
    0.9205    2.3128    2.5998 H   0  0  0  0  0  0  0  0  0  0  0  0
    2.9303    2.9448    3.4340 H   0  0  0  0  0  0  0  0  0  0  0  0
    3.2497   -0.1134    3.5623 H   0  0  0  0  0  0  0  0  0  0  0  0
    4.1449    1.0474    4.5502 H   0  0  0  0  0  0  0  0  0  0  0  0
    2.3907    0.8774    4.7498 H   0  0  0  0  0  0  0  0  0  0  0  0
    5.2391    2.5533    2.3739 N   0  0  0  0  0  0  0  0  0  0  0  0
    6.4358    2.6547    1.5717 C   0  0  0  0  0  0  0  0  0  0  0  0
    5.2465    2.9858    3.2930 H   0  0  0  0  0  0  0  0  0  0  0  0
    7.0918    1.7967    1.7808 H   0  0  0  0  0  0  0  0  0  0  0  0
    6.1636    2.6567    0.5059 H   0  0  0  0  0  0  0  0  0  0  0  0
    6.9636    3.5880    1.8172 H   0  0  0  0  0  0  0  0  0  0  0  0
  1  3  1  0  0  0  0
  1  7  1  0  0  0  0
  1  2  2  0  0  0  0
 37 38  1  0  0  0  0
 38 46  1  0  0  0  0
 38 39  2  0  0  0  0
  8  9  1  0  0  0  0
  9 17  1  0  0  0  0
  9 10  2  0  0  0  0
 18 19  1  0  0  0  0
 19 36  1  0  0  0  0
 19 20  2  0  0  0  0
 37 40  1  0  0  0  0
  8 11  1  0  0  0  0
 22 23  1  0  0  0  0
 22 24  1  0  0  0  0
 46 47  1  0  0  0  0
 18 21  1  0  0  0  0
 21 22  1  0  0  0  0
 36 37  1  0  0  0  0
  7  8  1  0  0  0  0
 17 18  1  0  0  0  0
  3  4  1  0  0  0  0
  3  5  1  0  0  0  0
  3  6  1  0  0  0  0
 40 43  1  0  0  0  0
 40 44  1  0  0  0  0
 40 45  1  0  0  0  0
 11 14  1  0  0  0  0
 11 15  1  0  0  0  0
 11 16  1  0  0  0  0
 23 30  1  0  0  0  0
 23 31  1  0  0  0  0
 23 32  1  0  0  0  0
 24 33  1  0  0  0  0
 24 34  1  0  0  0  0
 24 35  1  0  0  0  0
 47 49  1  0  0  0  0
 47 50  1  0  0  0  0
 47 51  1  0  0  0  0
 21 27  1  0  0  0  0
 21 28  1  0  0  0  0
 37 42  1  0  0  0  0
  8 13  1  0  0  0  0
 18 26  1  0  0  0  0
 22 29  1  0  0  0  0
 46 48  1  0  0  0  0
  7 12  1  0  0  0  0
 36 41  1  0  0  0  0
 17 25  1  0  0  0  0
M  END
$$$$

  -OEChem-05262214473D

 51 50  0     1  0  0  0  0  0999 V2000
    3.4018   -1.2440   -3.0186 C   0  0  0  0  0  0  0  0  0  0  0  0
    3.2697   -2.0909   -2.1427 O   0  0  0  0  0  0  0  0  0  0  0  0
    4.6845   -1.1645   -3.7779 C   0  0  0  0  0  0  0  0  0  0  0  0
    5.4123   -0.4862   -3.3041 H   0  0  0  0  0  0  0  0  0  0  0  0
    5.1949   -2.1387   -3.8443 H   0  0  0  0  0  0  0  0  0  0  0  0
    4.5953   -0.8128   -4.8182 H   0  0  0  0  0  0  0  0  0  0  0  0
    2.4540   -0.3103   -3.4040 N   0  0  0  0  0  0  0  0  0  0  0  0
    1.1494   -0.2128   -2.8039 C   0  0  2  0  0  0  0  0  0  0  0  0
    1.3350    0.0367   -1.3130 C   0  0  0  0  0  0  0  0  0  0  0  0
    2.3625   -0.2586   -0.7063 O   0  0  0  0  0  0  0  0  0  0  0  0
    0.3331   -1.4728   -3.0467 C   0  0  0  0  0  0  0  0  0  0  0  0
    2.6924    0.3404   -4.1502 H   0  0  0  0  0  0  0  0  0  0  0  0
    0.6550    0.6514   -3.2607 H   0  0  0  0  0  0  0  0  0  0  0  0
    0.8129   -2.3494   -2.5963 H   0  0  0  0  0  0  0  0  0  0  0  0
   -0.6690   -1.3857   -2.6142 H   0  0  0  0  0  0  0  0  0  0  0  0
    0.2259   -1.6670   -4.1194 H   0  0  0  0  0  0  0  0  0  0  0  0
    0.2019    0.5893   -0.7269 N   0  0  0  0  0  0  0  0  0  0  0  0
    0.1242    0.9059    0.6756 C   0  0  2  0  0  0  0  0  0  0  0  0
    1.5489    0.8846    1.2204 C   0  0  0  0  0  0  0  0  0  0  0  0
    2.4983    0.4189    0.5934 O   0  0  0  0  0  0  0  0  0  0  0  0
   -0.7537   -0.0876    1.4473 C   0  0  0  0  0  0  0  0  0  0  0  0
   -2.2485   -0.0600    1.0684 C   0  0  0  0  0  0  0  0  0  0  0  0
   -2.9855   -1.1898    1.7930 C   0  0  0  0  0  0  0  0  0  0  0  0
   -2.4698   -0.1848   -0.4396 C   0  0  0  0  0  0  0  0  0  0  0  0
   -0.5975    0.8179   -1.3140 H   0  0  0  0  0  0  0  0  0  0  0  0
   -0.2664    1.9257    0.7517 H   0  0  0  0  0  0  0  0  0  0  0  0
   -0.6599    0.1177    2.5230 H   0  0  0  0  0  0  0  0  0  0  0  0
   -0.3657   -1.1047    1.3026 H   0  0  0  0  0  0  0  0  0  0  0  0
   -2.6871    0.8881    1.4029 H   0  0  0  0  0  0  0  0  0  0  0  0
   -2.5882   -2.1665    1.4970 H   0  0  0  0  0  0  0  0  0  0  0  0
   -4.0531   -1.1775    1.5487 H   0  0  0  0  0  0  0  0  0  0  0  0
   -2.8849   -1.0981    2.8799 H   0  0  0  0  0  0  0  0  0  0  0  0
   -2.0488   -1.1188   -0.8267 H   0  0  0  0  0  0  0  0  0  0  0  0
   -3.5391   -0.1727   -0.6772 H   0  0  0  0  0  0  0  0  0  0  0  0
   -2.0103    0.6477   -0.9805 H   0  0  0  0  0  0  0  0  0  0  0  0
    1.6394    1.4923    2.4650 N   0  0  0  0  0  0  0  0  0  0  0  0
    2.8812    1.6298    3.1914 C   0  0  2  0  0  0  0  0  0  0  0  0
    3.9772    1.9683    2.1895 C   0  0  0  0  0  0  0  0  0  0  0  0
    3.8944    1.7074    0.9911 O   0  0  0  0  0  0  0  0  0  0  0  0
    3.2180    0.3596    3.9569 C   0  0  0  0  0  0  0  0  0  0  0  0
    0.8013    1.8727    2.8944 H   0  0  0  0  0  0  0  0  0  0  0  0
    2.7501    2.4662    3.8865 H   0  0  0  0  0  0  0  0  0  0  0  0
    3.3531   -0.4895    3.2771 H   0  0  0  0  0  0  0  0  0  0  0  0
    4.1442    0.4752    4.5295 H   0  0  0  0  0  0  0  0  0  0  0  0
    2.4151    0.1013    4.6558 H   0  0  0  0  0  0  0  0  0  0  0  0
    5.0769    2.5569    2.7980 N   0  0  0  0  0  0  0  0  0  0  0  0
    6.2528    2.9589    2.0621 C   0  0  0  0  0  0  0  0  0  0  0  0
    5.0513    2.7530    3.7943 H   0  0  0  0  0  0  0  0  0  0  0  0
    6.9872    2.1400    2.0675 H   0  0  0  0  0  0  0  0  0  0  0  0
    5.9734    3.1937    1.0244 H   0  0  0  0  0  0  0  0  0  0  0  0
    6.6936    3.8497    2.5336 H   0  0  0  0  0  0  0  0  0  0  0  0
  1  3  1  0  0  0  0
  1  7  1  0  0  0  0
  1  2  2  0  0  0  0
 37 38  1  0  0  0  0
 38 46  1  0  0  0  0
 38 39  2  0  0  0  0
  8  9  1  0  0  0  0
  9 17  1  0  0  0  0
  9 10  2  0  0  0  0
 18 19  1  0  0  0  0
 19 36  1  0  0  0  0
 19 20  2  0  0  0  0
 37 40  1  0  0  0  0
  8 11  1  0  0  0  0
 22 23  1  0  0  0  0
 22 24  1  0  0  0  0
 46 47  1  0  0  0  0
 18 21  1  0  0  0  0
 21 22  1  0  0  0  0
 36 37  1  0  0  0  0
  7  8  1  0  0  0  0
 17 18  1  0  0  0  0
  3  4  1  0  0  0  0
  3  5  1  0  0  0  0
  3  6  1  0  0  0  0
 40 43  1  0  0  0  0
 40 44  1  0  0  0  0
 40 45  1  0  0  0  0
 11 14  1  0  0  0  0
 11 15  1  0  0  0  0
 11 16  1  0  0  0  0
 23 30  1  0  0  0  0
 23 31  1  0  0  0  0
 23 32  1  0  0  0  0
 24 33  1  0  0  0  0
 24 34  1  0  0  0  0
 24 35  1  0  0  0  0
 47 49  1  0  0  0  0
 47 50  1  0  0  0  0
 47 51  1  0  0  0  0
 21 27  1  0  0  0  0
 21 28  1  0  0  0  0
 37 42  1  0  0  0  0
  8 13  1  0  0  0  0
 18 26  1  0  0  0  0
 22 29  1  0  0  0  0
 46 48  1  0  0  0  0
  7 12  1  0  0  0  0
 36 41  1  0  0  0  0
 17 25  1  0  0  0  0
M  END
$$$$

  -OEChem-05262214473D

 51 50  0     1  0  0  0  0  0999 V2000
    3.4018   -1.2440   -3.0186 C   0  0  0  0  0  0  0  0  0  0  0  0
    3.2697   -2.0909   -2.1427 O   0  0  0  0  0  0  0  0  0  0  0  0
    4.6845   -1.1645   -3.7779 C   0  0  0  0  0  0  0  0  0  0  0  0
    5.4123   -0.4862   -3.3041 H   0  0  0  0  0  0  0  0  0  0  0  0
    5.1949   -2.1387   -3.8443 H   0  0  0  0  0  0  0  0  0  0  0  0
    4.5953   -0.8128   -4.8182 H   0  0  0  0  0  0  0  0  0  0  0  0
    2.4540   -0.3103   -3.4040 N   0  0  0  0  0  0  0  0  0  0  0  0
    1.1494   -0.2128   -2.8039 C   0  0  2  0  0  0  0  0  0  0  0  0
    1.3350    0.0367   -1.3130 C   0  0  0  0  0  0  0  0  0  0  0  0
    2.3625   -0.2586   -0.7063 O   0  0  0  0  0  0  0  0  0  0  0  0
    0.3331   -1.4728   -3.0467 C   0  0  0  0  0  0  0  0  0  0  0  0
    2.6924    0.3404   -4.1502 H   0  0  0  0  0  0  0  0  0  0  0  0
    0.6550    0.6514   -3.2607 H   0  0  0  0  0  0  0  0  0  0  0  0
    0.8129   -2.3494   -2.5963 H   0  0  0  0  0  0  0  0  0  0  0  0
   -0.6690   -1.3857   -2.6142 H   0  0  0  0  0  0  0  0  0  0  0  0
    0.2259   -1.6670   -4.1194 H   0  0  0  0  0  0  0  0  0  0  0  0
    0.2019    0.5893   -0.7269 N   0  0  0  0  0  0  0  0  0  0  0  0
    0.1242    0.9059    0.6756 C   0  0  2  0  0  0  0  0  0  0  0  0
    1.5359    1.2554    1.1359 C   0  0  0  0  0  0  0  0  0  0  0  0
    2.5004    1.2841    0.3743 O   0  0  0  0  0  0  0  0  0  0  0  0
   -0.4305   -0.2599    1.5041 C   0  0  0  0  0  0  0  0  0  0  0  0
   -1.9024   -0.6175    1.2135 C   0  0  0  0  0  0  0  0  0  0  0  0
   -2.2891   -1.8808    1.9876 C   0  0  0  0  0  0  0  0  0  0  0  0
   -2.1678   -0.8260   -0.2781 C   0  0  0  0  0  0  0  0  0  0  0  0
   -0.5975    0.8179   -1.3140 H   0  0  0  0  0  0  0  0  0  0  0  0
   -0.5064    1.7959    0.7677 H   0  0  0  0  0  0  0  0  0  0  0  0
   -0.3324   -0.0148    2.5710 H   0  0  0  0  0  0  0  0  0  0  0  0
    0.1932   -1.1494    1.3437 H   0  0  0  0  0  0  0  0  0  0  0  0
   -2.5470    0.1966    1.5668 H   0  0  0  0  0  0  0  0  0  0  0  0
   -1.6750   -2.7321    1.6753 H   0  0  0  0  0  0  0  0  0  0  0  0
   -3.3369   -2.1427    1.8064 H   0  0  0  0  0  0  0  0  0  0  0  0
   -2.1551   -1.7436    3.0661 H   0  0  0  0  0  0  0  0  0  0  0  0
   -1.5465   -1.6320   -0.6830 H   0  0  0  0  0  0  0  0  0  0  0  0
   -3.2169   -1.0886   -0.4525 H   0  0  0  0  0  0  0  0  0  0  0  0
   -1.9639    0.0836   -0.8506 H   0  0  0  0  0  0  0  0  0  0  0  0
    1.5782    1.5800    2.4848 N   0  0  0  0  0  0  0  0  0  0  0  0
    2.7894    1.9745    3.1675 C   0  0  2  0  0  0  0  0  0  0  0  0
    3.5883    2.8690    2.2288 C   0  0  0  0  0  0  0  0  0  0  0  0
    3.4477    2.8552    1.0077 O   0  0  0  0  0  0  0  0  0  0  0  0
    3.6060    0.7631    3.5900 C   0  0  0  0  0  0  0  0  0  0  0  0
    0.7214    1.5528    3.0295 H   0  0  0  0  0  0  0  0  0  0  0  0
    2.4831    2.5494    4.0482 H   0  0  0  0  0  0  0  0  0  0  0  0
    3.9219    0.1747    2.7208 H   0  0  0  0  0  0  0  0  0  0  0  0
    4.5090    1.0628    4.1321 H   0  0  0  0  0  0  0  0  0  0  0  0
    3.0198    0.1057    4.2411 H   0  0  0  0  0  0  0  0  0  0  0  0
    4.5071    3.6536    2.9118 N   0  0  0  0  0  0  0  0  0  0  0  0
    5.3932    4.5773    2.2428 C   0  0  0  0  0  0  0  0  0  0  0  0
    4.5417    3.6139    3.9262 H   0  0  0  0  0  0  0  0  0  0  0  0
    6.3460    4.0754    2.0191 H   0  0  0  0  0  0  0  0  0  0  0  0
    4.9288    4.9169    1.3052 H   0  0  0  0  0  0  0  0  0  0  0  0
    5.5794    5.4437    2.8945 H   0  0  0  0  0  0  0  0  0  0  0  0
  1  3  1  0  0  0  0
  1  7  1  0  0  0  0
  1  2  2  0  0  0  0
 37 38  1  0  0  0  0
 38 46  1  0  0  0  0
 38 39  2  0  0  0  0
  8  9  1  0  0  0  0
  9 17  1  0  0  0  0
  9 10  2  0  0  0  0
 18 19  1  0  0  0  0
 19 36  1  0  0  0  0
 19 20  2  0  0  0  0
 37 40  1  0  0  0  0
  8 11  1  0  0  0  0
 22 23  1  0  0  0  0
 22 24  1  0  0  0  0
 46 47  1  0  0  0  0
 18 21  1  0  0  0  0
 21 22  1  0  0  0  0
 36 37  1  0  0  0  0
  7  8  1  0  0  0  0
 17 18  1  0  0  0  0
  3  4  1  0  0  0  0
  3  5  1  0  0  0  0
  3  6  1  0  0  0  0
 40 43  1  0  0  0  0
 40 44  1  0  0  0  0
 40 45  1  0  0  0  0
 11 14  1  0  0  0  0
 11 15  1  0  0  0  0
 11 16  1  0  0  0  0
 23 30  1  0  0  0  0
 23 31  1  0  0  0  0
 23 32  1  0  0  0  0
 24 33  1  0  0  0  0
 24 34  1  0  0  0  0
 24 35  1  0  0  0  0
 47 49  1  0  0  0  0
 47 50  1  0  0  0  0
 47 51  1  0  0  0  0
 21 27  1  0  0  0  0
 21 28  1  0  0  0  0
 37 42  1  0  0  0  0
  8 13  1  0  0  0  0
 18 26  1  0  0  0  0
 22 29  1  0  0  0  0
 46 48  1  0  0  0  0
  7 12  1  0  0  0  0
 36 41  1  0  0  0  0
 17 25  1  0  0  0  0
M  END
$$$$

  -OEChem-05262214473D

 51 50  0     1  0  0  0  0  0999 V2000
    3.4018   -1.2440   -3.0186 C   0  0  0  0  0  0  0  0  0  0  0  0
    3.2697   -2.0909   -2.1427 O   0  0  0  0  0  0  0  0  0  0  0  0
    4.6845   -1.1645   -3.7779 C   0  0  0  0  0  0  0  0  0  0  0  0
    5.4123   -0.4862   -3.3041 H   0  0  0  0  0  0  0  0  0  0  0  0
    5.1949   -2.1387   -3.8443 H   0  0  0  0  0  0  0  0  0  0  0  0
    4.5953   -0.8128   -4.8182 H   0  0  0  0  0  0  0  0  0  0  0  0
    2.4540   -0.3103   -3.4040 N   0  0  0  0  0  0  0  0  0  0  0  0
    1.1494   -0.2128   -2.8039 C   0  0  2  0  0  0  0  0  0  0  0  0
    1.3350    0.0367   -1.3130 C   0  0  0  0  0  0  0  0  0  0  0  0
    2.3625   -0.2586   -0.7063 O   0  0  0  0  0  0  0  0  0  0  0  0
    0.3331   -1.4728   -3.0467 C   0  0  0  0  0  0  0  0  0  0  0  0
    2.6924    0.3404   -4.1502 H   0  0  0  0  0  0  0  0  0  0  0  0
    0.6550    0.6514   -3.2607 H   0  0  0  0  0  0  0  0  0  0  0  0
    0.8129   -2.3494   -2.5963 H   0  0  0  0  0  0  0  0  0  0  0  0
   -0.6690   -1.3857   -2.6142 H   0  0  0  0  0  0  0  0  0  0  0  0
    0.2259   -1.6670   -4.1194 H   0  0  0  0  0  0  0  0  0  0  0  0
    0.2019    0.5893   -0.7269 N   0  0  0  0  0  0  0  0  0  0  0  0
    0.1242    0.9059    0.6756 C   0  0  2  0  0  0  0  0  0  0  0  0
    1.5359    1.2554    1.1359 C   0  0  0  0  0  0  0  0  0  0  0  0
    2.4412    1.5461    0.3567 O   0  0  0  0  0  0  0  0  0  0  0  0
   -0.4305   -0.2599    1.5041 C   0  0  0  0  0  0  0  0  0  0  0  0
   -1.9024   -0.6175    1.2135 C   0  0  0  0  0  0  0  0  0  0  0  0
   -2.2891   -1.8808    1.9876 C   0  0  0  0  0  0  0  0  0  0  0  0
   -2.1678   -0.8260   -0.2781 C   0  0  0  0  0  0  0  0  0  0  0  0
   -0.5975    0.8179   -1.3140 H   0  0  0  0  0  0  0  0  0  0  0  0
   -0.5064    1.7959    0.7677 H   0  0  0  0  0  0  0  0  0  0  0  0
   -0.3324   -0.0148    2.5710 H   0  0  0  0  0  0  0  0  0  0  0  0
    0.1932   -1.1494    1.3437 H   0  0  0  0  0  0  0  0  0  0  0  0
   -2.5470    0.1966    1.5668 H   0  0  0  0  0  0  0  0  0  0  0  0
   -1.6750   -2.7321    1.6753 H   0  0  0  0  0  0  0  0  0  0  0  0
   -3.3369   -2.1427    1.8064 H   0  0  0  0  0  0  0  0  0  0  0  0
   -2.1551   -1.7436    3.0661 H   0  0  0  0  0  0  0  0  0  0  0  0
   -1.5465   -1.6320   -0.6830 H   0  0  0  0  0  0  0  0  0  0  0  0
   -3.2169   -1.0886   -0.4525 H   0  0  0  0  0  0  0  0  0  0  0  0
   -1.9639    0.0836   -0.8506 H   0  0  0  0  0  0  0  0  0  0  0  0
    1.6478    1.2532    2.5194 N   0  0  0  0  0  0  0  0  0  0  0  0
    2.8721    1.5764    3.2161 C   0  0  2  0  0  0  0  0  0  0  0  0
    3.5391    2.7329    2.4831 C   0  0  0  0  0  0  0  0  0  0  0  0
    3.3161    2.9971    1.3035 O   0  0  0  0  0  0  0  0  0  0  0  0
    3.7997    0.3737    3.2918 C   0  0  0  0  0  0  0  0  0  0  0  0
    0.8346    1.0246    3.0834 H   0  0  0  0  0  0  0  0  0  0  0  0
    2.5872    1.8977    4.2238 H   0  0  0  0  0  0  0  0  0  0  0  0
    4.0959    0.0373    2.2916 H   0  0  0  0  0  0  0  0  0  0  0  0
    4.7143    0.6122    3.8447 H   0  0  0  0  0  0  0  0  0  0  0  0
    3.3077   -0.4670    3.7930 H   0  0  0  0  0  0  0  0  0  0  0  0
    4.4448    3.4085    3.2889 N   0  0  0  0  0  0  0  0  0  0  0  0
    5.2150    4.5367    2.8200 C   0  0  0  0  0  0  0  0  0  0  0  0
    4.5519    3.1325    4.2605 H   0  0  0  0  0  0  0  0  0  0  0  0
    6.1834    4.1854    2.4343 H   0  0  0  0  0  0  0  0  0  0  0  0
    4.6643    5.0481    2.0167 H   0  0  0  0  0  0  0  0  0  0  0  0
    5.3838    5.2365    3.6518 H   0  0  0  0  0  0  0  0  0  0  0  0
  1  3  1  0  0  0  0
  1  7  1  0  0  0  0
  1  2  2  0  0  0  0
 37 38  1  0  0  0  0
 38 46  1  0  0  0  0
 38 39  2  0  0  0  0
  8  9  1  0  0  0  0
  9 17  1  0  0  0  0
  9 10  2  0  0  0  0
 18 19  1  0  0  0  0
 19 36  1  0  0  0  0
 19 20  2  0  0  0  0
 37 40  1  0  0  0  0
  8 11  1  0  0  0  0
 22 23  1  0  0  0  0
 22 24  1  0  0  0  0
 46 47  1  0  0  0  0
 18 21  1  0  0  0  0
 21 22  1  0  0  0  0
 36 37  1  0  0  0  0
  7  8  1  0  0  0  0
 17 18  1  0  0  0  0
  3  4  1  0  0  0  0
  3  5  1  0  0  0  0
  3  6  1  0  0  0  0
 40 43  1  0  0  0  0
 40 44  1  0  0  0  0
 40 45  1  0  0  0  0
 11 14  1  0  0  0  0
 11 15  1  0  0  0  0
 11 16  1  0  0  0  0
 23 30  1  0  0  0  0
 23 31  1  0  0  0  0
 23 32  1  0  0  0  0
 24 33  1  0  0  0  0
 24 34  1  0  0  0  0
 24 35  1  0  0  0  0
 47 49  1  0  0  0  0
 47 50  1  0  0  0  0
 47 51  1  0  0  0  0
 21 27  1  0  0  0  0
 21 28  1  0  0  0  0
 37 42  1  0  0  0  0
  8 13  1  0  0  0  0
 18 26  1  0  0  0  0
 22 29  1  0  0  0  0
 46 48  1  0  0  0  0
  7 12  1  0  0  0  0
 36 41  1  0  0  0  0
 17 25  1  0  0  0  0
M  END
$$$$

  -OEChem-05262214473D

 51 50  0     1  0  0  0  0  0999 V2000
    3.4018   -1.2440   -3.0186 C   0  0  0  0  0  0  0  0  0  0  0  0
    3.2697   -2.0909   -2.1427 O   0  0  0  0  0  0  0  0  0  0  0  0
    4.6845   -1.1645   -3.7779 C   0  0  0  0  0  0  0  0  0  0  0  0
    5.4123   -0.4862   -3.3041 H   0  0  0  0  0  0  0  0  0  0  0  0
    5.1949   -2.1387   -3.8443 H   0  0  0  0  0  0  0  0  0  0  0  0
    4.5953   -0.8128   -4.8182 H   0  0  0  0  0  0  0  0  0  0  0  0
    2.4540   -0.3103   -3.4040 N   0  0  0  0  0  0  0  0  0  0  0  0
    1.1494   -0.2128   -2.8039 C   0  0  2  0  0  0  0  0  0  0  0  0
    1.3350    0.0367   -1.3130 C   0  0  0  0  0  0  0  0  0  0  0  0
    2.3625   -0.2586   -0.7063 O   0  0  0  0  0  0  0  0  0  0  0  0
    0.3331   -1.4728   -3.0467 C   0  0  0  0  0  0  0  0  0  0  0  0
    2.6924    0.3404   -4.1502 H   0  0  0  0  0  0  0  0  0  0  0  0
    0.6550    0.6514   -3.2607 H   0  0  0  0  0  0  0  0  0  0  0  0
    0.8129   -2.3494   -2.5963 H   0  0  0  0  0  0  0  0  0  0  0  0
   -0.6690   -1.3857   -2.6142 H   0  0  0  0  0  0  0  0  0  0  0  0
    0.2259   -1.6670   -4.1194 H   0  0  0  0  0  0  0  0  0  0  0  0
    0.2019    0.5893   -0.7269 N   0  0  0  0  0  0  0  0  0  0  0  0
    0.1242    0.9059    0.6756 C   0  0  2  0  0  0  0  0  0  0  0  0
    1.5359    1.2554    1.1359 C   0  0  0  0  0  0  0  0  0  0  0  0
    2.3625    1.7987    0.4061 O   0  0  0  0  0  0  0  0  0  0  0  0
   -0.4305   -0.2599    1.5041 C   0  0  0  0  0  0  0  0  0  0  0  0
   -1.9024   -0.6175    1.2135 C   0  0  0  0  0  0  0  0  0  0  0  0
   -2.2891   -1.8808    1.9876 C   0  0  0  0  0  0  0  0  0  0  0  0
   -2.1678   -0.8260   -0.2781 C   0  0  0  0  0  0  0  0  0  0  0  0
   -0.5975    0.8179   -1.3140 H   0  0  0  0  0  0  0  0  0  0  0  0
   -0.5064    1.7959    0.7677 H   0  0  0  0  0  0  0  0  0  0  0  0
   -0.3324   -0.0148    2.5710 H   0  0  0  0  0  0  0  0  0  0  0  0
    0.1932   -1.1494    1.3437 H   0  0  0  0  0  0  0  0  0  0  0  0
   -2.5470    0.1966    1.5668 H   0  0  0  0  0  0  0  0  0  0  0  0
   -1.6750   -2.7321    1.6753 H   0  0  0  0  0  0  0  0  0  0  0  0
   -3.3369   -2.1427    1.8064 H   0  0  0  0  0  0  0  0  0  0  0  0
   -2.1551   -1.7436    3.0661 H   0  0  0  0  0  0  0  0  0  0  0  0
   -1.5465   -1.6320   -0.6830 H   0  0  0  0  0  0  0  0  0  0  0  0
   -3.2169   -1.0886   -0.4525 H   0  0  0  0  0  0  0  0  0  0  0  0
   -1.9639    0.0836   -0.8506 H   0  0  0  0  0  0  0  0  0  0  0  0
    1.7426    0.9347    2.4705 N   0  0  0  0  0  0  0  0  0  0  0  0
    2.9860    1.1867    3.1628 C   0  0  2  0  0  0  0  0  0  0  0  0
    3.5172    2.5366    2.6990 C   0  0  0  0  0  0  0  0  0  0  0  0
    3.1955    3.0531    1.6309 O   0  0  0  0  0  0  0  0  0  0  0  0
    3.9995    0.0840    2.8991 C   0  0  0  0  0  0  0  0  0  0  0  0
    0.9884    0.5104    3.0022 H   0  0  0  0  0  0  0  0  0  0  0  0
    2.7490    1.2344    4.2312 H   0  0  0  0  0  0  0  0  0  0  0  0
    4.2493    0.0211    1.8337 H   0  0  0  0  0  0  0  0  0  0  0  0
    4.9308    0.2618    3.4470 H   0  0  0  0  0  0  0  0  0  0  0  0
    3.6040   -0.8903    3.2058 H   0  0  0  0  0  0  0  0  0  0  0  0
    4.4261    3.0767    3.5982 N   0  0  0  0  0  0  0  0  0  0  0  0
    5.0803    4.3454    3.3783 C   0  0  0  0  0  0  0  0  0  0  0  0
    4.6191    2.5883    4.4676 H   0  0  0  0  0  0  0  0  0  0  0  0
    6.0423    4.1794    2.8714 H   0  0  0  0  0  0  0  0  0  0  0  0
    4.4407    4.9837    2.7510 H   0  0  0  0  0  0  0  0  0  0  0  0
    5.2559    4.8396    4.3452 H   0  0  0  0  0  0  0  0  0  0  0  0
  1  3  1  0  0  0  0
  1  7  1  0  0  0  0
  1  2  2  0  0  0  0
 37 38  1  0  0  0  0
 38 46  1  0  0  0  0
 38 39  2  0  0  0  0
  8  9  1  0  0  0  0
  9 17  1  0  0  0  0
  9 10  2  0  0  0  0
 18 19  1  0  0  0  0
 19 36  1  0  0  0  0
 19 20  2  0  0  0  0
 37 40  1  0  0  0  0
  8 11  1  0  0  0  0
 22 23  1  0  0  0  0
 22 24  1  0  0  0  0
 46 47  1  0  0  0  0
 18 21  1  0  0  0  0
 21 22  1  0  0  0  0
 36 37  1  0  0  0  0
  7  8  1  0  0  0  0
 17 18  1  0  0  0  0
  3  4  1  0  0  0  0
  3  5  1  0  0  0  0
  3  6  1  0  0  0  0
 40 43  1  0  0  0  0
 40 44  1  0  0  0  0
 40 45  1  0  0  0  0
 11 14  1  0  0  0  0
 11 15  1  0  0  0  0
 11 16  1  0  0  0  0
 23 30  1  0  0  0  0
 23 31  1  0  0  0  0
 23 32  1  0  0  0  0
 24 33  1  0  0  0  0
 24 34  1  0  0  0  0
 24 35  1  0  0  0  0
 47 49  1  0  0  0  0
 47 50  1  0  0  0  0
 47 51  1  0  0  0  0
 21 27  1  0  0  0  0
 21 28  1  0  0  0  0
 37 42  1  0  0  0  0
  8 13  1  0  0  0  0
 18 26  1  0  0  0  0
 22 29  1  0  0  0  0
 46 48  1  0  0  0  0
  7 12  1  0  0  0  0
 36 41  1  0  0  0  0
 17 25  1  0  0  0  0
M  END
$$$$

  -OEChem-05262214473D

 51 50  0     1  0  0  0  0  0999 V2000
    3.4018   -1.2440   -3.0186 C   0  0  0  0  0  0  0  0  0  0  0  0
    3.2697   -2.0909   -2.1427 O   0  0  0  0  0  0  0  0  0  0  0  0
    4.6845   -1.1645   -3.7779 C   0  0  0  0  0  0  0  0  0  0  0  0
    5.4123   -0.4862   -3.3041 H   0  0  0  0  0  0  0  0  0  0  0  0
    5.1949   -2.1387   -3.8443 H   0  0  0  0  0  0  0  0  0  0  0  0
    4.5953   -0.8128   -4.8182 H   0  0  0  0  0  0  0  0  0  0  0  0
    2.4540   -0.3103   -3.4040 N   0  0  0  0  0  0  0  0  0  0  0  0
    1.1494   -0.2128   -2.8039 C   0  0  2  0  0  0  0  0  0  0  0  0
    1.3350    0.0367   -1.3130 C   0  0  0  0  0  0  0  0  0  0  0  0
    2.3625   -0.2586   -0.7063 O   0  0  0  0  0  0  0  0  0  0  0  0
    0.3331   -1.4728   -3.0467 C   0  0  0  0  0  0  0  0  0  0  0  0
    2.6924    0.3404   -4.1502 H   0  0  0  0  0  0  0  0  0  0  0  0
    0.6550    0.6514   -3.2607 H   0  0  0  0  0  0  0  0  0  0  0  0
    0.8129   -2.3494   -2.5963 H   0  0  0  0  0  0  0  0  0  0  0  0
   -0.6690   -1.3857   -2.6142 H   0  0  0  0  0  0  0  0  0  0  0  0
    0.2259   -1.6670   -4.1194 H   0  0  0  0  0  0  0  0  0  0  0  0
    0.2019    0.5893   -0.7269 N   0  0  0  0  0  0  0  0  0  0  0  0
    0.1242    0.9059    0.6756 C   0  0  2  0  0  0  0  0  0  0  0  0
    1.5359    1.2554    1.1359 C   0  0  0  0  0  0  0  0  0  0  0  0
    2.2698    2.0248    0.5190 O   0  0  0  0  0  0  0  0  0  0  0  0
   -0.4305   -0.2599    1.5041 C   0  0  0  0  0  0  0  0  0  0  0  0
   -1.9024   -0.6175    1.2135 C   0  0  0  0  0  0  0  0  0  0  0  0
   -2.2891   -1.8808    1.9876 C   0  0  0  0  0  0  0  0  0  0  0  0
   -2.1678   -0.8260   -0.2781 C   0  0  0  0  0  0  0  0  0  0  0  0
   -0.5975    0.8179   -1.3140 H   0  0  0  0  0  0  0  0  0  0  0  0
   -0.5064    1.7959    0.7677 H   0  0  0  0  0  0  0  0  0  0  0  0
   -0.3324   -0.0148    2.5710 H   0  0  0  0  0  0  0  0  0  0  0  0
    0.1932   -1.1494    1.3437 H   0  0  0  0  0  0  0  0  0  0  0  0
   -2.5470    0.1966    1.5668 H   0  0  0  0  0  0  0  0  0  0  0  0
   -1.6750   -2.7321    1.6753 H   0  0  0  0  0  0  0  0  0  0  0  0
   -3.3369   -2.1427    1.8064 H   0  0  0  0  0  0  0  0  0  0  0  0
   -2.1551   -1.7436    3.0661 H   0  0  0  0  0  0  0  0  0  0  0  0
   -1.5465   -1.6320   -0.6830 H   0  0  0  0  0  0  0  0  0  0  0  0
   -3.2169   -1.0886   -0.4525 H   0  0  0  0  0  0  0  0  0  0  0  0
   -1.9639    0.0836   -0.8506 H   0  0  0  0  0  0  0  0  0  0  0  0
    1.8562    0.6462    2.3413 N   0  0  0  0  0  0  0  0  0  0  0  0
    3.1232    0.8320    3.0112 C   0  0  2  0  0  0  0  0  0  0  0  0
    3.5243    2.2936    2.8618 C   0  0  0  0  0  0  0  0  0  0  0  0
    3.0940    3.0193    1.9678 O   0  0  0  0  0  0  0  0  0  0  0  0
    4.1918   -0.0861    2.4385 C   0  0  0  0  0  0  0  0  0  0  0  0
    1.1723    0.0451    2.7914 H   0  0  0  0  0  0  0  0  0  0  0  0
    2.9576    0.6045    4.0699 H   0  0  0  0  0  0  0  0  0  0  0  0
    4.3715    0.1270    1.3784 H   0  0  0  0  0  0  0  0  0  0  0  0
    5.1436    0.0355    2.9660 H   0  0  0  0  0  0  0  0  0  0  0  0
    3.8884   -1.1354    2.5198 H   0  0  0  0  0  0  0  0  0  0  0  0
    4.4523    2.6805    3.8185 N   0  0  0  0  0  0  0  0  0  0  0  0
    4.9983    4.0163    3.8798 C   0  0  0  0  0  0  0  0  0  0  0  0
    4.7388    2.0182    4.5333 H   0  0  0  0  0  0  0  0  0  0  0  0
    5.9325    4.0580    3.3005 H   0  0  0  0  0  0  0  0  0  0  0  0
    4.2734    4.7282    3.4581 H   0  0  0  0  0  0  0  0  0  0  0  0
    5.2045    4.2803    4.9275 H   0  0  0  0  0  0  0  0  0  0  0  0
  1  3  1  0  0  0  0
  1  7  1  0  0  0  0
  1  2  2  0  0  0  0
 37 38  1  0  0  0  0
 38 46  1  0  0  0  0
 38 39  2  0  0  0  0
  8  9  1  0  0  0  0
  9 17  1  0  0  0  0
  9 10  2  0  0  0  0
 18 19  1  0  0  0  0
 19 36  1  0  0  0  0
 19 20  2  0  0  0  0
 37 40  1  0  0  0  0
  8 11  1  0  0  0  0
 22 23  1  0  0  0  0
 22 24  1  0  0  0  0
 46 47  1  0  0  0  0
 18 21  1  0  0  0  0
 21 22  1  0  0  0  0
 36 37  1  0  0  0  0
  7  8  1  0  0  0  0
 17 18  1  0  0  0  0
  3  4  1  0  0  0  0
  3  5  1  0  0  0  0
  3  6  1  0  0  0  0
 40 43  1  0  0  0  0
 40 44  1  0  0  0  0
 40 45  1  0  0  0  0
 11 14  1  0  0  0  0
 11 15  1  0  0  0  0
 11 16  1  0  0  0  0
 23 30  1  0  0  0  0
 23 31  1  0  0  0  0
 23 32  1  0  0  0  0
 24 33  1  0  0  0  0
 24 34  1  0  0  0  0
 24 35  1  0  0  0  0
 47 49  1  0  0  0  0
 47 50  1  0  0  0  0
 47 51  1  0  0  0  0
 21 27  1  0  0  0  0
 21 28  1  0  0  0  0
 37 42  1  0  0  0  0
  8 13  1  0  0  0  0
 18 26  1  0  0  0  0
 22 29  1  0  0  0  0
 46 48  1  0  0  0  0
  7 12  1  0  0  0  0
 36 41  1  0  0  0  0
 17 25  1  0  0  0  0
M  END
$$$$

  -OEChem-05262214473D

 51 50  0     1  0  0  0  0  0999 V2000
    3.4018   -1.2440   -3.0186 C   0  0  0  0  0  0  0  0  0  0  0  0
    3.2697   -2.0909   -2.1427 O   0  0  0  0  0  0  0  0  0  0  0  0
    4.6845   -1.1645   -3.7779 C   0  0  0  0  0  0  0  0  0  0  0  0
    5.4123   -0.4862   -3.3041 H   0  0  0  0  0  0  0  0  0  0  0  0
    5.1949   -2.1387   -3.8443 H   0  0  0  0  0  0  0  0  0  0  0  0
    4.5953   -0.8128   -4.8182 H   0  0  0  0  0  0  0  0  0  0  0  0
    2.4540   -0.3103   -3.4040 N   0  0  0  0  0  0  0  0  0  0  0  0
    1.1494   -0.2128   -2.8039 C   0  0  2  0  0  0  0  0  0  0  0  0
    1.3350    0.0367   -1.3130 C   0  0  0  0  0  0  0  0  0  0  0  0
    2.3625   -0.2586   -0.7063 O   0  0  0  0  0  0  0  0  0  0  0  0
    0.3331   -1.4728   -3.0467 C   0  0  0  0  0  0  0  0  0  0  0  0
    2.6924    0.3404   -4.1502 H   0  0  0  0  0  0  0  0  0  0  0  0
    0.6550    0.6514   -3.2607 H   0  0  0  0  0  0  0  0  0  0  0  0
    0.8129   -2.3494   -2.5963 H   0  0  0  0  0  0  0  0  0  0  0  0
   -0.6690   -1.3857   -2.6142 H   0  0  0  0  0  0  0  0  0  0  0  0
    0.2259   -1.6670   -4.1194 H   0  0  0  0  0  0  0  0  0  0  0  0
    0.2019    0.5893   -0.7269 N   0  0  0  0  0  0  0  0  0  0  0  0
    0.1242    0.9059    0.6756 C   0  0  2  0  0  0  0  0  0  0  0  0
    1.5359    1.2554    1.1359 C   0  0  0  0  0  0  0  0  0  0  0  0
    2.1692    2.2089    0.6876 O   0  0  0  0  0  0  0  0  0  0  0  0
   -0.4305   -0.2599    1.5041 C   0  0  0  0  0  0  0  0  0  0  0  0
   -1.9024   -0.6175    1.2135 C   0  0  0  0  0  0  0  0  0  0  0  0
   -2.2891   -1.8808    1.9876 C   0  0  0  0  0  0  0  0  0  0  0  0
   -2.1678   -0.8260   -0.2781 C   0  0  0  0  0  0  0  0  0  0  0  0
   -0.5975    0.8179   -1.3140 H   0  0  0  0  0  0  0  0  0  0  0  0
   -0.5064    1.7959    0.7677 H   0  0  0  0  0  0  0  0  0  0  0  0
   -0.3324   -0.0148    2.5710 H   0  0  0  0  0  0  0  0  0  0  0  0
    0.1932   -1.1494    1.3437 H   0  0  0  0  0  0  0  0  0  0  0  0
   -2.5470    0.1966    1.5668 H   0  0  0  0  0  0  0  0  0  0  0  0
   -1.6750   -2.7321    1.6753 H   0  0  0  0  0  0  0  0  0  0  0  0
   -3.3369   -2.1427    1.8064 H   0  0  0  0  0  0  0  0  0  0  0  0
   -2.1551   -1.7436    3.0661 H   0  0  0  0  0  0  0  0  0  0  0  0
   -1.5465   -1.6320   -0.6830 H   0  0  0  0  0  0  0  0  0  0  0  0
   -3.2169   -1.0886   -0.4525 H   0  0  0  0  0  0  0  0  0  0  0  0
   -1.9639    0.0836   -0.8506 H   0  0  0  0  0  0  0  0  0  0  0  0
    1.9808    0.4074    2.1406 N   0  0  0  0  0  0  0  0  0  0  0  0
    3.2745    0.5364    2.7716 C   0  0  2  0  0  0  0  0  0  0  0  0
    3.5598    2.0205    2.9605 C   0  0  0  0  0  0  0  0  0  0  0  0
    3.0186    2.8980    2.2911 O   0  0  0  0  0  0  0  0  0  0  0  0
    4.3635   -0.1251    1.9414 C   0  0  0  0  0  0  0  0  0  0  0  0
    1.3739   -0.3394    2.4655 H   0  0  0  0  0  0  0  0  0  0  0  0
    3.1987    0.0510    3.7508 H   0  0  0  0  0  0  0  0  0  0  0  0
    4.4543    0.3479    0.9568 H   0  0  0  0  0  0  0  0  0  0  0  0
    5.3384   -0.0513    2.4346 H   0  0  0  0  0  0  0  0  0  0  0  0
    4.1416   -1.1857    1.7815 H   0  0  0  0  0  0  0  0  0  0  0  0
    4.5216    2.2472    3.9349 N   0  0  0  0  0  0  0  0  0  0  0  0
    4.9745    3.5719    4.2902 C   0  0  0  0  0  0  0  0  0  0  0  0
    4.9029    1.4612    4.4531 H   0  0  0  0  0  0  0  0  0  0  0  0
    5.8613    3.8294    3.6924 H   0  0  0  0  0  0  0  0  0  0  0  0
    4.1737    4.2989    4.0899 H   0  0  0  0  0  0  0  0  0  0  0  0
    5.2331    3.5965    5.3590 H   0  0  0  0  0  0  0  0  0  0  0  0
  1  3  1  0  0  0  0
  1  7  1  0  0  0  0
  1  2  2  0  0  0  0
 37 38  1  0  0  0  0
 38 46  1  0  0  0  0
 38 39  2  0  0  0  0
  8  9  1  0  0  0  0
  9 17  1  0  0  0  0
  9 10  2  0  0  0  0
 18 19  1  0  0  0  0
 19 36  1  0  0  0  0
 19 20  2  0  0  0  0
 37 40  1  0  0  0  0
  8 11  1  0  0  0  0
 22 23  1  0  0  0  0
 22 24  1  0  0  0  0
 46 47  1  0  0  0  0
 18 21  1  0  0  0  0
 21 22  1  0  0  0  0
 36 37  1  0  0  0  0
  7  8  1  0  0  0  0
 17 18  1  0  0  0  0
  3  4  1  0  0  0  0
  3  5  1  0  0  0  0
  3  6  1  0  0  0  0
 40 43  1  0  0  0  0
 40 44  1  0  0  0  0
 40 45  1  0  0  0  0
 11 14  1  0  0  0  0
 11 15  1  0  0  0  0
 11 16  1  0  0  0  0
 23 30  1  0  0  0  0
 23 31  1  0  0  0  0
 23 32  1  0  0  0  0
 24 33  1  0  0  0  0
 24 34  1  0  0  0  0
 24 35  1  0  0  0  0
 47 49  1  0  0  0  0
 47 50  1  0  0  0  0
 47 51  1  0  0  0  0
 21 27  1  0  0  0  0
 21 28  1  0  0  0  0
 37 42  1  0  0  0  0
  8 13  1  0  0  0  0
 18 26  1  0  0  0  0
 22 29  1  0  0  0  0
 46 48  1  0  0  0  0
  7 12  1  0  0  0  0
 36 41  1  0  0  0  0
 17 25  1  0  0  0  0
M  END
$$$$

  -OEChem-05262214473D

 51 50  0     1  0  0  0  0  0999 V2000
    3.4018   -1.2440   -3.0186 C   0  0  0  0  0  0  0  0  0  0  0  0
    3.2697   -2.0909   -2.1427 O   0  0  0  0  0  0  0  0  0  0  0  0
    4.6845   -1.1645   -3.7779 C   0  0  0  0  0  0  0  0  0  0  0  0
    5.4123   -0.4862   -3.3041 H   0  0  0  0  0  0  0  0  0  0  0  0
    5.1949   -2.1387   -3.8443 H   0  0  0  0  0  0  0  0  0  0  0  0
    4.5953   -0.8128   -4.8182 H   0  0  0  0  0  0  0  0  0  0  0  0
    2.4540   -0.3103   -3.4040 N   0  0  0  0  0  0  0  0  0  0  0  0
    1.1494   -0.2128   -2.8039 C   0  0  2  0  0  0  0  0  0  0  0  0
    1.3350    0.0367   -1.3130 C   0  0  0  0  0  0  0  0  0  0  0  0
    2.3625   -0.2586   -0.7063 O   0  0  0  0  0  0  0  0  0  0  0  0
    0.3331   -1.4728   -3.0467 C   0  0  0  0  0  0  0  0  0  0  0  0
    2.6924    0.3404   -4.1502 H   0  0  0  0  0  0  0  0  0  0  0  0
    0.6550    0.6514   -3.2607 H   0  0  0  0  0  0  0  0  0  0  0  0
    0.8129   -2.3494   -2.5963 H   0  0  0  0  0  0  0  0  0  0  0  0
   -0.6690   -1.3857   -2.6142 H   0  0  0  0  0  0  0  0  0  0  0  0
    0.2259   -1.6670   -4.1194 H   0  0  0  0  0  0  0  0  0  0  0  0
    0.2019    0.5893   -0.7269 N   0  0  0  0  0  0  0  0  0  0  0  0
    0.1242    0.9059    0.6756 C   0  0  2  0  0  0  0  0  0  0  0  0
    1.5359    1.2554    1.1359 C   0  0  0  0  0  0  0  0  0  0  0  0
    2.0676    2.3385    0.9006 O   0  0  0  0  0  0  0  0  0  0  0  0
   -0.4305   -0.2599    1.5041 C   0  0  0  0  0  0  0  0  0  0  0  0
   -1.9024   -0.6175    1.2135 C   0  0  0  0  0  0  0  0  0  0  0  0
   -2.2891   -1.8808    1.9876 C   0  0  0  0  0  0  0  0  0  0  0  0
   -2.1678   -0.8260   -0.2781 C   0  0  0  0  0  0  0  0  0  0  0  0
   -0.5975    0.8179   -1.3140 H   0  0  0  0  0  0  0  0  0  0  0  0
   -0.5064    1.7959    0.7677 H   0  0  0  0  0  0  0  0  0  0  0  0
   -0.3324   -0.0148    2.5710 H   0  0  0  0  0  0  0  0  0  0  0  0
    0.1932   -1.1494    1.3437 H   0  0  0  0  0  0  0  0  0  0  0  0
   -2.5470    0.1966    1.5668 H   0  0  0  0  0  0  0  0  0  0  0  0
   -1.6750   -2.7321    1.6753 H   0  0  0  0  0  0  0  0  0  0  0  0
   -3.3369   -2.1427    1.8064 H   0  0  0  0  0  0  0  0  0  0  0  0
   -2.1551   -1.7436    3.0661 H   0  0  0  0  0  0  0  0  0  0  0  0
   -1.5465   -1.6320   -0.6830 H   0  0  0  0  0  0  0  0  0  0  0  0
   -3.2169   -1.0886   -0.4525 H   0  0  0  0  0  0  0  0  0  0  0  0
   -1.9639    0.0836   -0.8506 H   0  0  0  0  0  0  0  0  0  0  0  0
    2.1079    0.2344    1.8822 N   0  0  0  0  0  0  0  0  0  0  0  0
    3.4296    0.3201    2.4605 C   0  0  2  0  0  0  0  0  0  0  0  0
    3.6212    1.7358    2.9883 C   0  0  0  0  0  0  0  0  0  0  0  0
    2.9744    2.6976    2.5788 O   0  0  0  0  0  0  0  0  0  0  0  0
    4.5030   -0.0302    1.4418 C   0  0  0  0  0  0  0  0  0  0  0  0
    1.5792   -0.6171    2.0466 H   0  0  0  0  0  0  0  0  0  0  0  0
    3.4559   -0.3883    3.2957 H   0  0  0  0  0  0  0  0  0  0  0  0
    4.4921    0.6687    0.5975 H   0  0  0  0  0  0  0  0  0  0  0  0
    5.5018    0.0074    1.8890 H   0  0  0  0  0  0  0  0  0  0  0  0
    4.3463   -1.0376    1.0413 H   0  0  0  0  0  0  0  0  0  0  0  0
    4.6294    1.8061    3.9395 N   0  0  0  0  0  0  0  0  0  0  0  0
    5.0105    3.0424    4.5816 C   0  0  0  0  0  0  0  0  0  0  0  0
    5.1002    0.9551    4.2325 H   0  0  0  0  0  0  0  0  0  0  0  0
    5.8336    3.5091    4.0205 H   0  0  0  0  0  0  0  0  0  0  0  0
    4.1483    3.7252    4.6032 H   0  0  0  0  0  0  0  0  0  0  0  0
    5.3397    2.8348    5.6104 H   0  0  0  0  0  0  0  0  0  0  0  0
  1  3  1  0  0  0  0
  1  7  1  0  0  0  0
  1  2  2  0  0  0  0
 37 38  1  0  0  0  0
 38 46  1  0  0  0  0
 38 39  2  0  0  0  0
  8  9  1  0  0  0  0
  9 17  1  0  0  0  0
  9 10  2  0  0  0  0
 18 19  1  0  0  0  0
 19 36  1  0  0  0  0
 19 20  2  0  0  0  0
 37 40  1  0  0  0  0
  8 11  1  0  0  0  0
 22 23  1  0  0  0  0
 22 24  1  0  0  0  0
 46 47  1  0  0  0  0
 18 21  1  0  0  0  0
 21 22  1  0  0  0  0
 36 37  1  0  0  0  0
  7  8  1  0  0  0  0
 17 18  1  0  0  0  0
  3  4  1  0  0  0  0
  3  5  1  0  0  0  0
  3  6  1  0  0  0  0
 40 43  1  0  0  0  0
 40 44  1  0  0  0  0
 40 45  1  0  0  0  0
 11 14  1  0  0  0  0
 11 15  1  0  0  0  0
 11 16  1  0  0  0  0
 23 30  1  0  0  0  0
 23 31  1  0  0  0  0
 23 32  1  0  0  0  0
 24 33  1  0  0  0  0
 24 34  1  0  0  0  0
 24 35  1  0  0  0  0
 47 49  1  0  0  0  0
 47 50  1  0  0  0  0
 47 51  1  0  0  0  0
 21 27  1  0  0  0  0
 21 28  1  0  0  0  0
 37 42  1  0  0  0  0
  8 13  1  0  0  0  0
 18 26  1  0  0  0  0
 22 29  1  0  0  0  0
 46 48  1  0  0  0  0
  7 12  1  0  0  0  0
 36 41  1  0  0  0  0
 17 25  1  0  0  0  0
M  END
$$$$

  -OEChem-05262214473D

 51 50  0     1  0  0  0  0  0999 V2000
    3.4018   -1.2440   -3.0186 C   0  0  0  0  0  0  0  0  0  0  0  0
    3.2697   -2.0909   -2.1427 O   0  0  0  0  0  0  0  0  0  0  0  0
    4.6845   -1.1645   -3.7779 C   0  0  0  0  0  0  0  0  0  0  0  0
    5.4123   -0.4862   -3.3041 H   0  0  0  0  0  0  0  0  0  0  0  0
    5.1949   -2.1387   -3.8443 H   0  0  0  0  0  0  0  0  0  0  0  0
    4.5953   -0.8128   -4.8182 H   0  0  0  0  0  0  0  0  0  0  0  0
    2.4540   -0.3103   -3.4040 N   0  0  0  0  0  0  0  0  0  0  0  0
    1.1494   -0.2128   -2.8039 C   0  0  2  0  0  0  0  0  0  0  0  0
    1.3350    0.0367   -1.3130 C   0  0  0  0  0  0  0  0  0  0  0  0
    2.3625   -0.2586   -0.7063 O   0  0  0  0  0  0  0  0  0  0  0  0
    0.3331   -1.4728   -3.0467 C   0  0  0  0  0  0  0  0  0  0  0  0
    2.6924    0.3404   -4.1502 H   0  0  0  0  0  0  0  0  0  0  0  0
    0.6550    0.6514   -3.2607 H   0  0  0  0  0  0  0  0  0  0  0  0
    0.8129   -2.3494   -2.5963 H   0  0  0  0  0  0  0  0  0  0  0  0
   -0.6690   -1.3857   -2.6142 H   0  0  0  0  0  0  0  0  0  0  0  0
    0.2259   -1.6670   -4.1194 H   0  0  0  0  0  0  0  0  0  0  0  0
    0.2019    0.5893   -0.7269 N   0  0  0  0  0  0  0  0  0  0  0  0
    0.1242    0.9059    0.6756 C   0  0  2  0  0  0  0  0  0  0  0  0
    1.5359    1.2554    1.1359 C   0  0  0  0  0  0  0  0  0  0  0  0
    1.9721    2.4047    1.1434 O   0  0  0  0  0  0  0  0  0  0  0  0
   -0.4305   -0.2599    1.5041 C   0  0  0  0  0  0  0  0  0  0  0  0
   -1.9024   -0.6175    1.2135 C   0  0  0  0  0  0  0  0  0  0  0  0
   -2.2891   -1.8808    1.9876 C   0  0  0  0  0  0  0  0  0  0  0  0
   -2.1678   -0.8260   -0.2781 C   0  0  0  0  0  0  0  0  0  0  0  0
   -0.5975    0.8179   -1.3140 H   0  0  0  0  0  0  0  0  0  0  0  0
   -0.5064    1.7959    0.7677 H   0  0  0  0  0  0  0  0  0  0  0  0
   -0.3324   -0.0148    2.5710 H   0  0  0  0  0  0  0  0  0  0  0  0
    0.1932   -1.1494    1.3437 H   0  0  0  0  0  0  0  0  0  0  0  0
   -2.5470    0.1966    1.5668 H   0  0  0  0  0  0  0  0  0  0  0  0
   -1.6750   -2.7321    1.6753 H   0  0  0  0  0  0  0  0  0  0  0  0
   -3.3369   -2.1427    1.8064 H   0  0  0  0  0  0  0  0  0  0  0  0
   -2.1551   -1.7436    3.0661 H   0  0  0  0  0  0  0  0  0  0  0  0
   -1.5465   -1.6320   -0.6830 H   0  0  0  0  0  0  0  0  0  0  0  0
   -3.2169   -1.0886   -0.4525 H   0  0  0  0  0  0  0  0  0  0  0  0
   -1.9639    0.0836   -0.8506 H   0  0  0  0  0  0  0  0  0  0  0  0
    2.2288    0.1392    1.5837 N   0  0  0  0  0  0  0  0  0  0  0  0
    3.5778    0.1977    2.0990 C   0  0  2  0  0  0  0  0  0  0  0  0
    3.7044    1.4589    2.9432 C   0  0  0  0  0  0  0  0  0  0  0  0
    2.9645    2.4316    2.8113 O   0  0  0  0  0  0  0  0  0  0  0  0
    4.6007    0.1920    0.9736 C   0  0  0  0  0  0  0  0  0  0  0  0
    1.7744   -0.7689    1.5633 H   0  0  0  0  0  0  0  0  0  0  0  0
    3.7116   -0.6836    2.7356 H   0  0  0  0  0  0  0  0  0  0  0  0
    4.4821    1.0676    0.3251 H   0  0  0  0  0  0  0  0  0  0  0  0
    5.6227    0.2075    1.3664 H   0  0  0  0  0  0  0  0  0  0  0  0
    4.4886   -0.7013    0.3497 H   0  0  0  0  0  0  0  0  0  0  0  0
    4.7681    1.3875    3.8318 N   0  0  0  0  0  0  0  0  0  0  0  0
    5.1040    2.4641    4.7341 C   0  0  0  0  0  0  0  0  0  0  0  0
    5.3171    0.5346    3.8865 H   0  0  0  0  0  0  0  0  0  0  0  0
    5.8513    3.1190    4.2623 H   0  0  0  0  0  0  0  0  0  0  0  0
    4.1991    3.0461    4.9631 H   0  0  0  0  0  0  0  0  0  0  0  0
    5.5171    2.0473    5.6645 H   0  0  0  0  0  0  0  0  0  0  0  0
  1  3  1  0  0  0  0
  1  7  1  0  0  0  0
  1  2  2  0  0  0  0
 37 38  1  0  0  0  0
 38 46  1  0  0  0  0
 38 39  2  0  0  0  0
  8  9  1  0  0  0  0
  9 17  1  0  0  0  0
  9 10  2  0  0  0  0
 18 19  1  0  0  0  0
 19 36  1  0  0  0  0
 19 20  2  0  0  0  0
 37 40  1  0  0  0  0
  8 11  1  0  0  0  0
 22 23  1  0  0  0  0
 22 24  1  0  0  0  0
 46 47  1  0  0  0  0
 18 21  1  0  0  0  0
 21 22  1  0  0  0  0
 36 37  1  0  0  0  0
  7  8  1  0  0  0  0
 17 18  1  0  0  0  0
  3  4  1  0  0  0  0
  3  5  1  0  0  0  0
  3  6  1  0  0  0  0
 40 43  1  0  0  0  0
 40 44  1  0  0  0  0
 40 45  1  0  0  0  0
 11 14  1  0  0  0  0
 11 15  1  0  0  0  0
 11 16  1  0  0  0  0
 23 30  1  0  0  0  0
 23 31  1  0  0  0  0
 23 32  1  0  0  0  0
 24 33  1  0  0  0  0
 24 34  1  0  0  0  0
 24 35  1  0  0  0  0
 47 49  1  0  0  0  0
 47 50  1  0  0  0  0
 47 51  1  0  0  0  0
 21 27  1  0  0  0  0
 21 28  1  0  0  0  0
 37 42  1  0  0  0  0
  8 13  1  0  0  0  0
 18 26  1  0  0  0  0
 22 29  1  0  0  0  0
 46 48  1  0  0  0  0
  7 12  1  0  0  0  0
 36 41  1  0  0  0  0
 17 25  1  0  0  0  0
M  END
$$$$

  -OEChem-05262214473D

 51 50  0     1  0  0  0  0  0999 V2000
    3.4018   -1.2440   -3.0186 C   0  0  0  0  0  0  0  0  0  0  0  0
    3.2697   -2.0909   -2.1427 O   0  0  0  0  0  0  0  0  0  0  0  0
    4.6845   -1.1645   -3.7779 C   0  0  0  0  0  0  0  0  0  0  0  0
    5.4123   -0.4862   -3.3041 H   0  0  0  0  0  0  0  0  0  0  0  0
    5.1949   -2.1387   -3.8443 H   0  0  0  0  0  0  0  0  0  0  0  0
    4.5953   -0.8128   -4.8182 H   0  0  0  0  0  0  0  0  0  0  0  0
    2.4540   -0.3103   -3.4040 N   0  0  0  0  0  0  0  0  0  0  0  0
    1.1494   -0.2128   -2.8039 C   0  0  2  0  0  0  0  0  0  0  0  0
    1.3350    0.0367   -1.3130 C   0  0  0  0  0  0  0  0  0  0  0  0
    2.3625   -0.2586   -0.7063 O   0  0  0  0  0  0  0  0  0  0  0  0
    0.3331   -1.4728   -3.0467 C   0  0  0  0  0  0  0  0  0  0  0  0
    2.6924    0.3404   -4.1502 H   0  0  0  0  0  0  0  0  0  0  0  0
    0.6550    0.6514   -3.2607 H   0  0  0  0  0  0  0  0  0  0  0  0
    0.8129   -2.3494   -2.5963 H   0  0  0  0  0  0  0  0  0  0  0  0
   -0.6690   -1.3857   -2.6142 H   0  0  0  0  0  0  0  0  0  0  0  0
    0.2259   -1.6670   -4.1194 H   0  0  0  0  0  0  0  0  0  0  0  0
    0.2019    0.5893   -0.7269 N   0  0  0  0  0  0  0  0  0  0  0  0
    0.1242    0.9059    0.6756 C   0  0  2  0  0  0  0  0  0  0  0  0
    1.5359    1.2554    1.1359 C   0  0  0  0  0  0  0  0  0  0  0  0
    1.8890    2.4031    1.3994 O   0  0  0  0  0  0  0  0  0  0  0  0
   -0.4305   -0.2599    1.5041 C   0  0  0  0  0  0  0  0  0  0  0  0
   -1.9024   -0.6175    1.2135 C   0  0  0  0  0  0  0  0  0  0  0  0
   -2.2891   -1.8808    1.9876 C   0  0  0  0  0  0  0  0  0  0  0  0
   -2.1678   -0.8260   -0.2781 C   0  0  0  0  0  0  0  0  0  0  0  0
   -0.5975    0.8179   -1.3140 H   0  0  0  0  0  0  0  0  0  0  0  0
   -0.5064    1.7959    0.7677 H   0  0  0  0  0  0  0  0  0  0  0  0
   -0.3324   -0.0148    2.5710 H   0  0  0  0  0  0  0  0  0  0  0  0
    0.1932   -1.1494    1.3437 H   0  0  0  0  0  0  0  0  0  0  0  0
   -2.5470    0.1966    1.5668 H   0  0  0  0  0  0  0  0  0  0  0  0
   -1.6750   -2.7321    1.6753 H   0  0  0  0  0  0  0  0  0  0  0  0
   -3.3369   -2.1427    1.8064 H   0  0  0  0  0  0  0  0  0  0  0  0
   -2.1551   -1.7436    3.0661 H   0  0  0  0  0  0  0  0  0  0  0  0
   -1.5465   -1.6320   -0.6830 H   0  0  0  0  0  0  0  0  0  0  0  0
   -3.2169   -1.0886   -0.4525 H   0  0  0  0  0  0  0  0  0  0  0  0
   -1.9639    0.0836   -0.8506 H   0  0  0  0  0  0  0  0  0  0  0  0
    2.3353    0.1282    1.2653 N   0  0  0  0  0  0  0  0  0  0  0  0
    3.7090    0.1777    1.7116 C   0  0  2  0  0  0  0  0  0  0  0  0
    3.8038    1.2088    2.8285 C   0  0  0  0  0  0  0  0  0  0  0  0
    2.9894    2.1182    2.9727 O   0  0  0  0  0  0  0  0  0  0  0  0
    4.6499    0.5263    0.5688 C   0  0  0  0  0  0  0  0  0  0  0  0
    1.9461   -0.7846    1.0486 H   0  0  0  0  0  0  0  0  0  0  0  0
    3.9485   -0.8147    2.1087 H   0  0  0  0  0  0  0  0  0  0  0  0
    4.4252    1.5174    0.1581 H   0  0  0  0  0  0  0  0  0  0  0  0
    5.6928    0.5354    0.9023 H   0  0  0  0  0  0  0  0  0  0  0  0
    4.5588   -0.1997   -0.2463 H   0  0  0  0  0  0  0  0  0  0  0  0
    4.9285    1.0197    3.6193 N   0  0  0  0  0  0  0  0  0  0  0  0
    5.2485    1.8762    4.7373 C   0  0  0  0  0  0  0  0  0  0  0  0
    5.5390    0.2282    3.4387 H   0  0  0  0  0  0  0  0  0  0  0  0
    5.9133    2.6856    4.4013 H   0  0  0  0  0  0  0  0  0  0  0  0
    4.3225    2.3079    5.1451 H   0  0  0  0  0  0  0  0  0  0  0  0
    5.7531    1.2874    5.5175 H   0  0  0  0  0  0  0  0  0  0  0  0
  1  3  1  0  0  0  0
  1  7  1  0  0  0  0
  1  2  2  0  0  0  0
 37 38  1  0  0  0  0
 38 46  1  0  0  0  0
 38 39  2  0  0  0  0
  8  9  1  0  0  0  0
  9 17  1  0  0  0  0
  9 10  2  0  0  0  0
 18 19  1  0  0  0  0
 19 36  1  0  0  0  0
 19 20  2  0  0  0  0
 37 40  1  0  0  0  0
  8 11  1  0  0  0  0
 22 23  1  0  0  0  0
 22 24  1  0  0  0  0
 46 47  1  0  0  0  0
 18 21  1  0  0  0  0
 21 22  1  0  0  0  0
 36 37  1  0  0  0  0
  7  8  1  0  0  0  0
 17 18  1  0  0  0  0
  3  4  1  0  0  0  0
  3  5  1  0  0  0  0
  3  6  1  0  0  0  0
 40 43  1  0  0  0  0
 40 44  1  0  0  0  0
 40 45  1  0  0  0  0
 11 14  1  0  0  0  0
 11 15  1  0  0  0  0
 11 16  1  0  0  0  0
 23 30  1  0  0  0  0
 23 31  1  0  0  0  0
 23 32  1  0  0  0  0
 24 33  1  0  0  0  0
 24 34  1  0  0  0  0
 24 35  1  0  0  0  0
 47 49  1  0  0  0  0
 47 50  1  0  0  0  0
 47 51  1  0  0  0  0
 21 27  1  0  0  0  0
 21 28  1  0  0  0  0
 37 42  1  0  0  0  0
  8 13  1  0  0  0  0
 18 26  1  0  0  0  0
 22 29  1  0  0  0  0
 46 48  1  0  0  0  0
  7 12  1  0  0  0  0
 36 41  1  0  0  0  0
 17 25  1  0  0  0  0
M  END
$$$$

  -OEChem-05262214473D

 51 50  0     1  0  0  0  0  0999 V2000
    3.4018   -1.2440   -3.0186 C   0  0  0  0  0  0  0  0  0  0  0  0
    3.2697   -2.0909   -2.1427 O   0  0  0  0  0  0  0  0  0  0  0  0
    4.6845   -1.1645   -3.7779 C   0  0  0  0  0  0  0  0  0  0  0  0
    5.4123   -0.4862   -3.3041 H   0  0  0  0  0  0  0  0  0  0  0  0
    5.1949   -2.1387   -3.8443 H   0  0  0  0  0  0  0  0  0  0  0  0
    4.5953   -0.8128   -4.8182 H   0  0  0  0  0  0  0  0  0  0  0  0
    2.4540   -0.3103   -3.4040 N   0  0  0  0  0  0  0  0  0  0  0  0
    1.1494   -0.2128   -2.8039 C   0  0  2  0  0  0  0  0  0  0  0  0
    1.3350    0.0367   -1.3130 C   0  0  0  0  0  0  0  0  0  0  0  0
    2.3625   -0.2586   -0.7063 O   0  0  0  0  0  0  0  0  0  0  0  0
    0.3331   -1.4728   -3.0467 C   0  0  0  0  0  0  0  0  0  0  0  0
    2.6924    0.3404   -4.1502 H   0  0  0  0  0  0  0  0  0  0  0  0
    0.6550    0.6514   -3.2607 H   0  0  0  0  0  0  0  0  0  0  0  0
    0.8129   -2.3494   -2.5963 H   0  0  0  0  0  0  0  0  0  0  0  0
   -0.6690   -1.3857   -2.6142 H   0  0  0  0  0  0  0  0  0  0  0  0
    0.2259   -1.6670   -4.1194 H   0  0  0  0  0  0  0  0  0  0  0  0
    0.2019    0.5893   -0.7269 N   0  0  0  0  0  0  0  0  0  0  0  0
    0.1242    0.9059    0.6756 C   0  0  2  0  0  0  0  0  0  0  0  0
    1.5359    1.2554    1.1359 C   0  0  0  0  0  0  0  0  0  0  0  0
    1.8240    2.3337    1.6513 O   0  0  0  0  0  0  0  0  0  0  0  0
   -0.4305   -0.2599    1.5041 C   0  0  0  0  0  0  0  0  0  0  0  0
   -1.9024   -0.6175    1.2135 C   0  0  0  0  0  0  0  0  0  0  0  0
   -2.2891   -1.8808    1.9876 C   0  0  0  0  0  0  0  0  0  0  0  0
   -2.1678   -0.8260   -0.2781 C   0  0  0  0  0  0  0  0  0  0  0  0
   -0.5975    0.8179   -1.3140 H   0  0  0  0  0  0  0  0  0  0  0  0
   -0.5064    1.7959    0.7677 H   0  0  0  0  0  0  0  0  0  0  0  0
   -0.3324   -0.0148    2.5710 H   0  0  0  0  0  0  0  0  0  0  0  0
    0.1932   -1.1494    1.3437 H   0  0  0  0  0  0  0  0  0  0  0  0
   -2.5470    0.1966    1.5668 H   0  0  0  0  0  0  0  0  0  0  0  0
   -1.6750   -2.7321    1.6753 H   0  0  0  0  0  0  0  0  0  0  0  0
   -3.3369   -2.1427    1.8064 H   0  0  0  0  0  0  0  0  0  0  0  0
   -2.1551   -1.7436    3.0661 H   0  0  0  0  0  0  0  0  0  0  0  0
   -1.5465   -1.6320   -0.6830 H   0  0  0  0  0  0  0  0  0  0  0  0
   -3.2169   -1.0886   -0.4525 H   0  0  0  0  0  0  0  0  0  0  0  0
   -1.9639    0.0836   -0.8506 H   0  0  0  0  0  0  0  0  0  0  0  0
    2.4202    0.2021    0.9489 N   0  0  0  0  0  0  0  0  0  0  0  0
    3.8144    0.2614    1.3249 C   0  0  2  0  0  0  0  0  0  0  0  0
    3.9125    1.0024    2.6519 C   0  0  0  0  0  0  0  0  0  0  0  0
    3.0475    1.7788    3.0522 O   0  0  0  0  0  0  0  0  0  0  0  0
    4.6473    0.9501    0.2550 C   0  0  0  0  0  0  0  0  0  0  0  0
    2.0827   -0.6630    0.5374 H   0  0  0  0  0  0  0  0  0  0  0  0
    4.1504   -0.7727    1.4577 H   0  0  0  0  0  0  0  0  0  0  0  0
    4.3252    1.9874    0.1079 H   0  0  0  0  0  0  0  0  0  0  0  0
    5.7075    0.9688    0.5284 H   0  0  0  0  0  0  0  0  0  0  0  0
    4.5520    0.4330   -0.7059 H   0  0  0  0  0  0  0  0  0  0  0  0
    5.0995    0.7278    3.3165 N   0  0  0  0  0  0  0  0  0  0  0  0
    5.4342    1.3189    4.5911 C   0  0  0  0  0  0  0  0  0  0  0  0
    5.7507    0.0568    2.9196 H   0  0  0  0  0  0  0  0  0  0  0  0
    6.0152    2.2385    4.4282 H   0  0  0  0  0  0  0  0  0  0  0  0
    4.5102    1.5609    5.1368 H   0  0  0  0  0  0  0  0  0  0  0  0
    6.0318    0.6071    5.1796 H   0  0  0  0  0  0  0  0  0  0  0  0
  1  3  1  0  0  0  0
  1  7  1  0  0  0  0
  1  2  2  0  0  0  0
 37 38  1  0  0  0  0
 38 46  1  0  0  0  0
 38 39  2  0  0  0  0
  8  9  1  0  0  0  0
  9 17  1  0  0  0  0
  9 10  2  0  0  0  0
 18 19  1  0  0  0  0
 19 36  1  0  0  0  0
 19 20  2  0  0  0  0
 37 40  1  0  0  0  0
  8 11  1  0  0  0  0
 22 23  1  0  0  0  0
 22 24  1  0  0  0  0
 46 47  1  0  0  0  0
 18 21  1  0  0  0  0
 21 22  1  0  0  0  0
 36 37  1  0  0  0  0
  7  8  1  0  0  0  0
 17 18  1  0  0  0  0
  3  4  1  0  0  0  0
  3  5  1  0  0  0  0
  3  6  1  0  0  0  0
 40 43  1  0  0  0  0
 40 44  1  0  0  0  0
 40 45  1  0  0  0  0
 11 14  1  0  0  0  0
 11 15  1  0  0  0  0
 11 16  1  0  0  0  0
 23 30  1  0  0  0  0
 23 31  1  0  0  0  0
 23 32  1  0  0  0  0
 24 33  1  0  0  0  0
 24 34  1  0  0  0  0
 24 35  1  0  0  0  0
 47 49  1  0  0  0  0
 47 50  1  0  0  0  0
 47 51  1  0  0  0  0
 21 27  1  0  0  0  0
 21 28  1  0  0  0  0
 37 42  1  0  0  0  0
  8 13  1  0  0  0  0
 18 26  1  0  0  0  0
 22 29  1  0  0  0  0
 46 48  1  0  0  0  0
  7 12  1  0  0  0  0
 36 41  1  0  0  0  0
 17 25  1  0  0  0  0
M  END
$$$$

  -OEChem-05262214473D

 51 50  0     1  0  0  0  0  0999 V2000
    3.4018   -1.2440   -3.0186 C   0  0  0  0  0  0  0  0  0  0  0  0
    3.2697   -2.0909   -2.1427 O   0  0  0  0  0  0  0  0  0  0  0  0
    4.6845   -1.1645   -3.7779 C   0  0  0  0  0  0  0  0  0  0  0  0
    5.4123   -0.4862   -3.3041 H   0  0  0  0  0  0  0  0  0  0  0  0
    5.1949   -2.1387   -3.8443 H   0  0  0  0  0  0  0  0  0  0  0  0
    4.5953   -0.8128   -4.8182 H   0  0  0  0  0  0  0  0  0  0  0  0
    2.4540   -0.3103   -3.4040 N   0  0  0  0  0  0  0  0  0  0  0  0
    1.1494   -0.2128   -2.8039 C   0  0  2  0  0  0  0  0  0  0  0  0
    1.3350    0.0367   -1.3130 C   0  0  0  0  0  0  0  0  0  0  0  0
    2.3625   -0.2586   -0.7063 O   0  0  0  0  0  0  0  0  0  0  0  0
    0.3331   -1.4728   -3.0467 C   0  0  0  0  0  0  0  0  0  0  0  0
    2.6924    0.3404   -4.1502 H   0  0  0  0  0  0  0  0  0  0  0  0
    0.6550    0.6514   -3.2607 H   0  0  0  0  0  0  0  0  0  0  0  0
    0.8129   -2.3494   -2.5963 H   0  0  0  0  0  0  0  0  0  0  0  0
   -0.6690   -1.3857   -2.6142 H   0  0  0  0  0  0  0  0  0  0  0  0
    0.2259   -1.6670   -4.1194 H   0  0  0  0  0  0  0  0  0  0  0  0
    0.2019    0.5893   -0.7269 N   0  0  0  0  0  0  0  0  0  0  0  0
    0.1242    0.9059    0.6756 C   0  0  2  0  0  0  0  0  0  0  0  0
    1.5359    1.2554    1.1359 C   0  0  0  0  0  0  0  0  0  0  0  0
    1.7817    2.2012    1.8818 O   0  0  0  0  0  0  0  0  0  0  0  0
   -0.4305   -0.2599    1.5041 C   0  0  0  0  0  0  0  0  0  0  0  0
   -1.9024   -0.6175    1.2135 C   0  0  0  0  0  0  0  0  0  0  0  0
   -2.2891   -1.8808    1.9876 C   0  0  0  0  0  0  0  0  0  0  0  0
   -2.1678   -0.8260   -0.2781 C   0  0  0  0  0  0  0  0  0  0  0  0
   -0.5975    0.8179   -1.3140 H   0  0  0  0  0  0  0  0  0  0  0  0
   -0.5064    1.7959    0.7677 H   0  0  0  0  0  0  0  0  0  0  0  0
   -0.3324   -0.0148    2.5710 H   0  0  0  0  0  0  0  0  0  0  0  0
    0.1932   -1.1494    1.3437 H   0  0  0  0  0  0  0  0  0  0  0  0
   -2.5470    0.1966    1.5668 H   0  0  0  0  0  0  0  0  0  0  0  0
   -1.6750   -2.7321    1.6753 H   0  0  0  0  0  0  0  0  0  0  0  0
   -3.3369   -2.1427    1.8064 H   0  0  0  0  0  0  0  0  0  0  0  0
   -2.1551   -1.7436    3.0661 H   0  0  0  0  0  0  0  0  0  0  0  0
   -1.5465   -1.6320   -0.6830 H   0  0  0  0  0  0  0  0  0  0  0  0
   -3.2169   -1.0886   -0.4525 H   0  0  0  0  0  0  0  0  0  0  0  0
   -1.9639    0.0836   -0.8506 H   0  0  0  0  0  0  0  0  0  0  0  0
    2.4777    0.3560    0.6559 N   0  0  0  0  0  0  0  0  0  0  0  0
    3.8867    0.4431    0.9652 C   0  0  2  0  0  0  0  0  0  0  0  0
    4.0231    0.8538    2.4254 C   0  0  0  0  0  0  0  0  0  0  0  0
    3.1349    1.4364    3.0441 O   0  0  0  0  0  0  0  0  0  0  0  0
    4.5931    1.4344    0.0535 C   0  0  0  0  0  0  0  0  0  0  0  0
    2.1748   -0.4124    0.0647 H   0  0  0  0  0  0  0  0  0  0  0  0
    4.3035   -0.5605    0.8270 H   0  0  0  0  0  0  0  0  0  0  0  0
    4.1889    2.4456    0.1779 H   0  0  0  0  0  0  0  0  0  0  0  0
    5.6656    1.4781    0.2702 H   0  0  0  0  0  0  0  0  0  0  0  0
    4.4688    1.1538   -0.9980 H   0  0  0  0  0  0  0  0  0  0  0  0
    5.2696    0.5318    2.9439 N   0  0  0  0  0  0  0  0  0  0  0  0
    5.6484    0.8300    4.3053 C   0  0  0  0  0  0  0  0  0  0  0  0
    5.9378    0.0322    2.3646 H   0  0  0  0  0  0  0  0  0  0  0  0
    6.1502    1.8083    4.3410 H   0  0  0  0  0  0  0  0  0  0  0  0
    4.7494    0.8560    4.9387 H   0  0  0  0  0  0  0  0  0  0  0  0
    6.3340    0.0527    4.6737 H   0  0  0  0  0  0  0  0  0  0  0  0
  1  3  1  0  0  0  0
  1  7  1  0  0  0  0
  1  2  2  0  0  0  0
 37 38  1  0  0  0  0
 38 46  1  0  0  0  0
 38 39  2  0  0  0  0
  8  9  1  0  0  0  0
  9 17  1  0  0  0  0
  9 10  2  0  0  0  0
 18 19  1  0  0  0  0
 19 36  1  0  0  0  0
 19 20  2  0  0  0  0
 37 40  1  0  0  0  0
  8 11  1  0  0  0  0
 22 23  1  0  0  0  0
 22 24  1  0  0  0  0
 46 47  1  0  0  0  0
 18 21  1  0  0  0  0
 21 22  1  0  0  0  0
 36 37  1  0  0  0  0
  7  8  1  0  0  0  0
 17 18  1  0  0  0  0
  3  4  1  0  0  0  0
  3  5  1  0  0  0  0
  3  6  1  0  0  0  0
 40 43  1  0  0  0  0
 40 44  1  0  0  0  0
 40 45  1  0  0  0  0
 11 14  1  0  0  0  0
 11 15  1  0  0  0  0
 11 16  1  0  0  0  0
 23 30  1  0  0  0  0
 23 31  1  0  0  0  0
 23 32  1  0  0  0  0
 24 33  1  0  0  0  0
 24 34  1  0  0  0  0
 24 35  1  0  0  0  0
 47 49  1  0  0  0  0
 47 50  1  0  0  0  0
 47 51  1  0  0  0  0
 21 27  1  0  0  0  0
 21 28  1  0  0  0  0
 37 42  1  0  0  0  0
  8 13  1  0  0  0  0
 18 26  1  0  0  0  0
 22 29  1  0  0  0  0
 46 48  1  0  0  0  0
  7 12  1  0  0  0  0
 36 41  1  0  0  0  0
 17 25  1  0  0  0  0
M  END
$$$$

  -OEChem-05262214473D

 51 50  0     1  0  0  0  0  0999 V2000
    3.4018   -1.2440   -3.0186 C   0  0  0  0  0  0  0  0  0  0  0  0
    3.2697   -2.0909   -2.1427 O   0  0  0  0  0  0  0  0  0  0  0  0
    4.6845   -1.1645   -3.7779 C   0  0  0  0  0  0  0  0  0  0  0  0
    5.4123   -0.4862   -3.3041 H   0  0  0  0  0  0  0  0  0  0  0  0
    5.1949   -2.1387   -3.8443 H   0  0  0  0  0  0  0  0  0  0  0  0
    4.5953   -0.8128   -4.8182 H   0  0  0  0  0  0  0  0  0  0  0  0
    2.4540   -0.3103   -3.4040 N   0  0  0  0  0  0  0  0  0  0  0  0
    1.1494   -0.2128   -2.8039 C   0  0  2  0  0  0  0  0  0  0  0  0
    1.3350    0.0367   -1.3130 C   0  0  0  0  0  0  0  0  0  0  0  0
    2.3625   -0.2586   -0.7063 O   0  0  0  0  0  0  0  0  0  0  0  0
    0.3331   -1.4728   -3.0467 C   0  0  0  0  0  0  0  0  0  0  0  0
    2.6924    0.3404   -4.1502 H   0  0  0  0  0  0  0  0  0  0  0  0
    0.6550    0.6514   -3.2607 H   0  0  0  0  0  0  0  0  0  0  0  0
    0.8129   -2.3494   -2.5963 H   0  0  0  0  0  0  0  0  0  0  0  0
   -0.6690   -1.3857   -2.6142 H   0  0  0  0  0  0  0  0  0  0  0  0
    0.2259   -1.6670   -4.1194 H   0  0  0  0  0  0  0  0  0  0  0  0
    0.2019    0.5893   -0.7269 N   0  0  0  0  0  0  0  0  0  0  0  0
    0.1242    0.9059    0.6756 C   0  0  2  0  0  0  0  0  0  0  0  0
    1.5359    1.2554    1.1359 C   0  0  0  0  0  0  0  0  0  0  0  0
    1.7647    2.0148    2.0752 O   0  0  0  0  0  0  0  0  0  0  0  0
   -0.4305   -0.2599    1.5041 C   0  0  0  0  0  0  0  0  0  0  0  0
   -1.9024   -0.6175    1.2135 C   0  0  0  0  0  0  0  0  0  0  0  0
   -2.2891   -1.8808    1.9876 C   0  0  0  0  0  0  0  0  0  0  0  0
   -2.1678   -0.8260   -0.2781 C   0  0  0  0  0  0  0  0  0  0  0  0
   -0.5975    0.8179   -1.3140 H   0  0  0  0  0  0  0  0  0  0  0  0
   -0.5064    1.7959    0.7677 H   0  0  0  0  0  0  0  0  0  0  0  0
   -0.3324   -0.0148    2.5710 H   0  0  0  0  0  0  0  0  0  0  0  0
    0.1932   -1.1494    1.3437 H   0  0  0  0  0  0  0  0  0  0  0  0
   -2.5470    0.1966    1.5668 H   0  0  0  0  0  0  0  0  0  0  0  0
   -1.6750   -2.7321    1.6753 H   0  0  0  0  0  0  0  0  0  0  0  0
   -3.3369   -2.1427    1.8064 H   0  0  0  0  0  0  0  0  0  0  0  0
   -2.1551   -1.7436    3.0661 H   0  0  0  0  0  0  0  0  0  0  0  0
   -1.5465   -1.6320   -0.6830 H   0  0  0  0  0  0  0  0  0  0  0  0
   -3.2169   -1.0886   -0.4525 H   0  0  0  0  0  0  0  0  0  0  0  0
   -1.9639    0.0836   -0.8506 H   0  0  0  0  0  0  0  0  0  0  0  0
    2.5038    0.5792    0.4063 N   0  0  0  0  0  0  0  0  0  0  0  0
    3.9211    0.7105    0.6570 C   0  0  2  0  0  0  0  0  0  0  0  0
    4.1282    0.7732    2.1645 C   0  0  0  0  0  0  0  0  0  0  0  0
    3.2456    1.1145    2.9492 O   0  0  0  0  0  0  0  0  0  0  0  0
    4.4910    1.9462   -0.0219 C   0  0  0  0  0  0  0  0  0  0  0  0
    2.2162   -0.0500   -0.3373 H   0  0  0  0  0  0  0  0  0  0  0  0
    4.3975   -0.1924    0.2596 H   0  0  0  0  0  0  0  0  0  0  0  0
    4.0257    2.8608    0.3634 H   0  0  0  0  0  0  0  0  0  0  0  0
    5.5700    2.0287    0.1452 H   0  0  0  0  0  0  0  0  0  0  0  0
    4.3148    1.9134   -1.1025 H   0  0  0  0  0  0  0  0  0  0  0  0
    5.4270    0.4450    2.5270 N   0  0  0  0  0  0  0  0  0  0  0  0
    5.8765    0.4430    3.8995 C   0  0  0  0  0  0  0  0  0  0  0  0
    6.0875    0.1559    1.8115 H   0  0  0  0  0  0  0  0  0  0  0  0
    6.3090    1.4241    4.1457 H   0  0  0  0  0  0  0  0  0  0  0  0
    5.0237    0.2413    4.5643 H   0  0  0  0  0  0  0  0  0  0  0  0
    6.6393   -0.3380    4.0343 H   0  0  0  0  0  0  0  0  0  0  0  0
  1  3  1  0  0  0  0
  1  7  1  0  0  0  0
  1  2  2  0  0  0  0
 37 38  1  0  0  0  0
 38 46  1  0  0  0  0
 38 39  2  0  0  0  0
  8  9  1  0  0  0  0
  9 17  1  0  0  0  0
  9 10  2  0  0  0  0
 18 19  1  0  0  0  0
 19 36  1  0  0  0  0
 19 20  2  0  0  0  0
 37 40  1  0  0  0  0
  8 11  1  0  0  0  0
 22 23  1  0  0  0  0
 22 24  1  0  0  0  0
 46 47  1  0  0  0  0
 18 21  1  0  0  0  0
 21 22  1  0  0  0  0
 36 37  1  0  0  0  0
  7  8  1  0  0  0  0
 17 18  1  0  0  0  0
  3  4  1  0  0  0  0
  3  5  1  0  0  0  0
  3  6  1  0  0  0  0
 40 43  1  0  0  0  0
 40 44  1  0  0  0  0
 40 45  1  0  0  0  0
 11 14  1  0  0  0  0
 11 15  1  0  0  0  0
 11 16  1  0  0  0  0
 23 30  1  0  0  0  0
 23 31  1  0  0  0  0
 23 32  1  0  0  0  0
 24 33  1  0  0  0  0
 24 34  1  0  0  0  0
 24 35  1  0  0  0  0
 47 49  1  0  0  0  0
 47 50  1  0  0  0  0
 47 51  1  0  0  0  0
 21 27  1  0  0  0  0
 21 28  1  0  0  0  0
 37 42  1  0  0  0  0
  8 13  1  0  0  0  0
 18 26  1  0  0  0  0
 22 29  1  0  0  0  0
 46 48  1  0  0  0  0
  7 12  1  0  0  0  0
 36 41  1  0  0  0  0
 17 25  1  0  0  0  0
M  END
$$$$

  -OEChem-05262214473D

 51 50  0     1  0  0  0  0  0999 V2000
    3.4018   -1.2440   -3.0186 C   0  0  0  0  0  0  0  0  0  0  0  0
    3.2697   -2.0909   -2.1427 O   0  0  0  0  0  0  0  0  0  0  0  0
    4.6845   -1.1645   -3.7779 C   0  0  0  0  0  0  0  0  0  0  0  0
    5.4123   -0.4862   -3.3041 H   0  0  0  0  0  0  0  0  0  0  0  0
    5.1949   -2.1387   -3.8443 H   0  0  0  0  0  0  0  0  0  0  0  0
    4.5953   -0.8128   -4.8182 H   0  0  0  0  0  0  0  0  0  0  0  0
    2.4540   -0.3103   -3.4040 N   0  0  0  0  0  0  0  0  0  0  0  0
    1.1494   -0.2128   -2.8039 C   0  0  2  0  0  0  0  0  0  0  0  0
    1.3350    0.0367   -1.3130 C   0  0  0  0  0  0  0  0  0  0  0  0
    2.3625   -0.2586   -0.7063 O   0  0  0  0  0  0  0  0  0  0  0  0
    0.3331   -1.4728   -3.0467 C   0  0  0  0  0  0  0  0  0  0  0  0
    2.6924    0.3404   -4.1502 H   0  0  0  0  0  0  0  0  0  0  0  0
    0.6550    0.6514   -3.2607 H   0  0  0  0  0  0  0  0  0  0  0  0
    0.8129   -2.3494   -2.5963 H   0  0  0  0  0  0  0  0  0  0  0  0
   -0.6690   -1.3857   -2.6142 H   0  0  0  0  0  0  0  0  0  0  0  0
    0.2259   -1.6670   -4.1194 H   0  0  0  0  0  0  0  0  0  0  0  0
    0.2019    0.5893   -0.7269 N   0  0  0  0  0  0  0  0  0  0  0  0
    0.1242    0.9059    0.6756 C   0  0  2  0  0  0  0  0  0  0  0  0
    1.5359    1.2554    1.1359 C   0  0  0  0  0  0  0  0  0  0  0  0
    1.7744    1.7870    2.2184 O   0  0  0  0  0  0  0  0  0  0  0  0
   -0.4305   -0.2599    1.5041 C   0  0  0  0  0  0  0  0  0  0  0  0
   -1.9024   -0.6175    1.2135 C   0  0  0  0  0  0  0  0  0  0  0  0
   -2.2891   -1.8808    1.9876 C   0  0  0  0  0  0  0  0  0  0  0  0
   -2.1678   -0.8260   -0.2781 C   0  0  0  0  0  0  0  0  0  0  0  0
   -0.5975    0.8179   -1.3140 H   0  0  0  0  0  0  0  0  0  0  0  0
   -0.5064    1.7959    0.7677 H   0  0  0  0  0  0  0  0  0  0  0  0
   -0.3324   -0.0148    2.5710 H   0  0  0  0  0  0  0  0  0  0  0  0
    0.1932   -1.1494    1.3437 H   0  0  0  0  0  0  0  0  0  0  0  0
   -2.5470    0.1966    1.5668 H   0  0  0  0  0  0  0  0  0  0  0  0
   -1.6750   -2.7321    1.6753 H   0  0  0  0  0  0  0  0  0  0  0  0
   -3.3369   -2.1427    1.8064 H   0  0  0  0  0  0  0  0  0  0  0  0
   -2.1551   -1.7436    3.0661 H   0  0  0  0  0  0  0  0  0  0  0  0
   -1.5465   -1.6320   -0.6830 H   0  0  0  0  0  0  0  0  0  0  0  0
   -3.2169   -1.0886   -0.4525 H   0  0  0  0  0  0  0  0  0  0  0  0
   -1.9639    0.0836   -0.8506 H   0  0  0  0  0  0  0  0  0  0  0  0
    2.4968    0.8567    0.2171 N   0  0  0  0  0  0  0  0  0  0  0  0
    3.9151    1.0452    0.4212 C   0  0  2  0  0  0  0  0  0  0  0  0
    4.2204    0.7661    1.8870 C   0  0  0  0  0  0  0  0  0  0  0  0
    3.3720    0.8349    2.7738 O   0  0  0  0  0  0  0  0  0  0  0  0
    4.3479    2.4507    0.0339 C   0  0  0  0  0  0  0  0  0  0  0  0
    2.2040    0.3996   -0.6413 H   0  0  0  0  0  0  0  0  0  0  0  0
    4.4258    0.3064   -0.2059 H   0  0  0  0  0  0  0  0  0  0  0  0
    3.8465    3.2047    0.6516 H   0  0  0  0  0  0  0  0  0  0  0  0
    5.4273    2.5829    0.1621 H   0  0  0  0  0  0  0  0  0  0  0  0
    4.1005    2.6602   -1.0124 H   0  0  0  0  0  0  0  0  0  0  0  0
    5.5612    0.4733    2.0941 N   0  0  0  0  0  0  0  0  0  0  0  0
    6.1031    0.1843    3.4013 C   0  0  0  0  0  0  0  0  0  0  0  0
    6.1897    0.4196    1.2980 H   0  0  0  0  0  0  0  0  0  0  0  0
    6.4808    1.1121    3.8556 H   0  0  0  0  0  0  0  0  0  0  0  0
    5.3144   -0.2414    4.0391 H   0  0  0  0  0  0  0  0  0  0  0  0
    6.9267   -0.5385    3.3051 H   0  0  0  0  0  0  0  0  0  0  0  0
  1  3  1  0  0  0  0
  1  7  1  0  0  0  0
  1  2  2  0  0  0  0
 37 38  1  0  0  0  0
 38 46  1  0  0  0  0
 38 39  2  0  0  0  0
  8  9  1  0  0  0  0
  9 17  1  0  0  0  0
  9 10  2  0  0  0  0
 18 19  1  0  0  0  0
 19 36  1  0  0  0  0
 19 20  2  0  0  0  0
 37 40  1  0  0  0  0
  8 11  1  0  0  0  0
 22 23  1  0  0  0  0
 22 24  1  0  0  0  0
 46 47  1  0  0  0  0
 18 21  1  0  0  0  0
 21 22  1  0  0  0  0
 36 37  1  0  0  0  0
  7  8  1  0  0  0  0
 17 18  1  0  0  0  0
  3  4  1  0  0  0  0
  3  5  1  0  0  0  0
  3  6  1  0  0  0  0
 40 43  1  0  0  0  0
 40 44  1  0  0  0  0
 40 45  1  0  0  0  0
 11 14  1  0  0  0  0
 11 15  1  0  0  0  0
 11 16  1  0  0  0  0
 23 30  1  0  0  0  0
 23 31  1  0  0  0  0
 23 32  1  0  0  0  0
 24 33  1  0  0  0  0
 24 34  1  0  0  0  0
 24 35  1  0  0  0  0
 47 49  1  0  0  0  0
 47 50  1  0  0  0  0
 47 51  1  0  0  0  0
 21 27  1  0  0  0  0
 21 28  1  0  0  0  0
 37 42  1  0  0  0  0
  8 13  1  0  0  0  0
 18 26  1  0  0  0  0
 22 29  1  0  0  0  0
 46 48  1  0  0  0  0
  7 12  1  0  0  0  0
 36 41  1  0  0  0  0
 17 25  1  0  0  0  0
M  END
$$$$

  -OEChem-05262214473D

 51 50  0     1  0  0  0  0  0999 V2000
    3.4018   -1.2440   -3.0186 C   0  0  0  0  0  0  0  0  0  0  0  0
    3.2697   -2.0909   -2.1427 O   0  0  0  0  0  0  0  0  0  0  0  0
    4.6845   -1.1645   -3.7779 C   0  0  0  0  0  0  0  0  0  0  0  0
    5.4123   -0.4862   -3.3041 H   0  0  0  0  0  0  0  0  0  0  0  0
    5.1949   -2.1387   -3.8443 H   0  0  0  0  0  0  0  0  0  0  0  0
    4.5953   -0.8128   -4.8182 H   0  0  0  0  0  0  0  0  0  0  0  0
    2.4540   -0.3103   -3.4040 N   0  0  0  0  0  0  0  0  0  0  0  0
    1.1494   -0.2128   -2.8039 C   0  0  2  0  0  0  0  0  0  0  0  0
    1.3350    0.0367   -1.3130 C   0  0  0  0  0  0  0  0  0  0  0  0
    2.3625   -0.2586   -0.7063 O   0  0  0  0  0  0  0  0  0  0  0  0
    0.3331   -1.4728   -3.0467 C   0  0  0  0  0  0  0  0  0  0  0  0
    2.6924    0.3404   -4.1502 H   0  0  0  0  0  0  0  0  0  0  0  0
    0.6550    0.6514   -3.2607 H   0  0  0  0  0  0  0  0  0  0  0  0
    0.8129   -2.3494   -2.5963 H   0  0  0  0  0  0  0  0  0  0  0  0
   -0.6690   -1.3857   -2.6142 H   0  0  0  0  0  0  0  0  0  0  0  0
    0.2259   -1.6670   -4.1194 H   0  0  0  0  0  0  0  0  0  0  0  0
    0.2019    0.5893   -0.7269 N   0  0  0  0  0  0  0  0  0  0  0  0
    0.1242    0.9059    0.6756 C   0  0  2  0  0  0  0  0  0  0  0  0
    1.5359    1.2554    1.1359 C   0  0  0  0  0  0  0  0  0  0  0  0
    1.8101    1.5335    2.3016 O   0  0  0  0  0  0  0  0  0  0  0  0
   -0.4305   -0.2599    1.5041 C   0  0  0  0  0  0  0  0  0  0  0  0
   -1.9024   -0.6175    1.2135 C   0  0  0  0  0  0  0  0  0  0  0  0
   -2.2891   -1.8808    1.9876 C   0  0  0  0  0  0  0  0  0  0  0  0
   -2.1678   -0.8260   -0.2781 C   0  0  0  0  0  0  0  0  0  0  0  0
   -0.5975    0.8179   -1.3140 H   0  0  0  0  0  0  0  0  0  0  0  0
   -0.5064    1.7959    0.7677 H   0  0  0  0  0  0  0  0  0  0  0  0
   -0.3324   -0.0148    2.5710 H   0  0  0  0  0  0  0  0  0  0  0  0
    0.1932   -1.1494    1.3437 H   0  0  0  0  0  0  0  0  0  0  0  0
   -2.5470    0.1966    1.5668 H   0  0  0  0  0  0  0  0  0  0  0  0
   -1.6750   -2.7321    1.6753 H   0  0  0  0  0  0  0  0  0  0  0  0
   -3.3369   -2.1427    1.8064 H   0  0  0  0  0  0  0  0  0  0  0  0
   -2.1551   -1.7436    3.0661 H   0  0  0  0  0  0  0  0  0  0  0  0
   -1.5465   -1.6320   -0.6830 H   0  0  0  0  0  0  0  0  0  0  0  0
   -3.2169   -1.0886   -0.4525 H   0  0  0  0  0  0  0  0  0  0  0  0
   -1.9639    0.0836   -0.8506 H   0  0  0  0  0  0  0  0  0  0  0  0
    2.4571    1.1695    0.1013 N   0  0  0  0  0  0  0  0  0  0  0  0
    3.8691    1.4245    0.2741 C   0  0  2  0  0  0  0  0  0  0  0  0
    4.2937    0.8329    1.6117 C   0  0  0  0  0  0  0  0  0  0  0  0
    3.5056    0.6167    2.5300 O   0  0  0  0  0  0  0  0  0  0  0  0
    4.1735    2.9134    0.2171 C   0  0  0  0  0  0  0  0  0  0  0  0
    2.1391    0.9057   -0.8266 H   0  0  0  0  0  0  0  0  0  0  0  0
    4.3866    0.9019   -0.5378 H   0  0  0  0  0  0  0  0  0  0  0  0
    3.6637    3.4538    1.0231 H   0  0  0  0  0  0  0  0  0  0  0  0
    5.2471    3.1031    0.3196 H   0  0  0  0  0  0  0  0  0  0  0  0
    3.8405    3.3432   -0.7337 H   0  0  0  0  0  0  0  0  0  0  0  0
    5.6629    0.6148    1.6749 N   0  0  0  0  0  0  0  0  0  0  0  0
    6.3126    0.0713    2.8447 C   0  0  0  0  0  0  0  0  0  0  0  0
    6.2373    0.8053    0.8591 H   0  0  0  0  0  0  0  0  0  0  0  0
    6.6540    0.8937    3.4905 H   0  0  0  0  0  0  0  0  0  0  0  0
    5.6018   -0.5592    3.3990 H   0  0  0  0  0  0  0  0  0  0  0  0
    7.1768   -0.5349    2.5356 H   0  0  0  0  0  0  0  0  0  0  0  0
  1  3  1  0  0  0  0
  1  7  1  0  0  0  0
  1  2  2  0  0  0  0
 37 38  1  0  0  0  0
 38 46  1  0  0  0  0
 38 39  2  0  0  0  0
  8  9  1  0  0  0  0
  9 17  1  0  0  0  0
  9 10  2  0  0  0  0
 18 19  1  0  0  0  0
 19 36  1  0  0  0  0
 19 20  2  0  0  0  0
 37 40  1  0  0  0  0
  8 11  1  0  0  0  0
 22 23  1  0  0  0  0
 22 24  1  0  0  0  0
 46 47  1  0  0  0  0
 18 21  1  0  0  0  0
 21 22  1  0  0  0  0
 36 37  1  0  0  0  0
  7  8  1  0  0  0  0
 17 18  1  0  0  0  0
  3  4  1  0  0  0  0
  3  5  1  0  0  0  0
  3  6  1  0  0  0  0
 40 43  1  0  0  0  0
 40 44  1  0  0  0  0
 40 45  1  0  0  0  0
 11 14  1  0  0  0  0
 11 15  1  0  0  0  0
 11 16  1  0  0  0  0
 23 30  1  0  0  0  0
 23 31  1  0  0  0  0
 23 32  1  0  0  0  0
 24 33  1  0  0  0  0
 24 34  1  0  0  0  0
 24 35  1  0  0  0  0
 47 49  1  0  0  0  0
 47 50  1  0  0  0  0
 47 51  1  0  0  0  0
 21 27  1  0  0  0  0
 21 28  1  0  0  0  0
 37 42  1  0  0  0  0
  8 13  1  0  0  0  0
 18 26  1  0  0  0  0
 22 29  1  0  0  0  0
 46 48  1  0  0  0  0
  7 12  1  0  0  0  0
 36 41  1  0  0  0  0
 17 25  1  0  0  0  0
M  END
$$$$

  -OEChem-05262214473D

 51 50  0     1  0  0  0  0  0999 V2000
    3.4018   -1.2440   -3.0186 C   0  0  0  0  0  0  0  0  0  0  0  0
    3.2697   -2.0909   -2.1427 O   0  0  0  0  0  0  0  0  0  0  0  0
    4.6845   -1.1645   -3.7779 C   0  0  0  0  0  0  0  0  0  0  0  0
    5.4123   -0.4862   -3.3041 H   0  0  0  0  0  0  0  0  0  0  0  0
    5.1949   -2.1387   -3.8443 H   0  0  0  0  0  0  0  0  0  0  0  0
    4.5953   -0.8128   -4.8182 H   0  0  0  0  0  0  0  0  0  0  0  0
    2.4540   -0.3103   -3.4040 N   0  0  0  0  0  0  0  0  0  0  0  0
    1.1494   -0.2128   -2.8039 C   0  0  2  0  0  0  0  0  0  0  0  0
    1.3350    0.0367   -1.3130 C   0  0  0  0  0  0  0  0  0  0  0  0
    2.3625   -0.2586   -0.7063 O   0  0  0  0  0  0  0  0  0  0  0  0
    0.3331   -1.4728   -3.0467 C   0  0  0  0  0  0  0  0  0  0  0  0
    2.6924    0.3404   -4.1502 H   0  0  0  0  0  0  0  0  0  0  0  0
    0.6550    0.6514   -3.2607 H   0  0  0  0  0  0  0  0  0  0  0  0
    0.8129   -2.3494   -2.5963 H   0  0  0  0  0  0  0  0  0  0  0  0
   -0.6690   -1.3857   -2.6142 H   0  0  0  0  0  0  0  0  0  0  0  0
    0.2259   -1.6670   -4.1194 H   0  0  0  0  0  0  0  0  0  0  0  0
    0.2019    0.5893   -0.7269 N   0  0  0  0  0  0  0  0  0  0  0  0
    0.1242    0.9059    0.6756 C   0  0  2  0  0  0  0  0  0  0  0  0
    1.5359    1.2554    1.1359 C   0  0  0  0  0  0  0  0  0  0  0  0
    1.8693    1.2715    2.3191 O   0  0  0  0  0  0  0  0  0  0  0  0
   -0.4305   -0.2599    1.5041 C   0  0  0  0  0  0  0  0  0  0  0  0
   -1.9024   -0.6175    1.2135 C   0  0  0  0  0  0  0  0  0  0  0  0
   -2.2891   -1.8808    1.9876 C   0  0  0  0  0  0  0  0  0  0  0  0
   -2.1678   -0.8260   -0.2781 C   0  0  0  0  0  0  0  0  0  0  0  0
   -0.5975    0.8179   -1.3140 H   0  0  0  0  0  0  0  0  0  0  0  0
   -0.5064    1.7959    0.7677 H   0  0  0  0  0  0  0  0  0  0  0  0
   -0.3324   -0.0148    2.5710 H   0  0  0  0  0  0  0  0  0  0  0  0
    0.1932   -1.1494    1.3437 H   0  0  0  0  0  0  0  0  0  0  0  0
   -2.5470    0.1966    1.5668 H   0  0  0  0  0  0  0  0  0  0  0  0
   -1.6750   -2.7321    1.6753 H   0  0  0  0  0  0  0  0  0  0  0  0
   -3.3369   -2.1427    1.8064 H   0  0  0  0  0  0  0  0  0  0  0  0
   -2.1551   -1.7436    3.0661 H   0  0  0  0  0  0  0  0  0  0  0  0
   -1.5465   -1.6320   -0.6830 H   0  0  0  0  0  0  0  0  0  0  0  0
   -3.2169   -1.0886   -0.4525 H   0  0  0  0  0  0  0  0  0  0  0  0
   -1.9639    0.0836   -0.8506 H   0  0  0  0  0  0  0  0  0  0  0  0
    2.3875    1.4962    0.0667 N   0  0  0  0  0  0  0  0  0  0  0  0
    3.7864    1.8226    0.2255 C   0  0  2  0  0  0  0  0  0  0  0  0
    4.3429    0.9690    1.3574 C   0  0  0  0  0  0  0  0  0  0  0  0
    3.6371    0.4748    2.2342 O   0  0  0  0  0  0  0  0  0  0  0  0
    3.9799    3.3029    0.5153 C   0  0  0  0  0  0  0  0  0  0  0  0
    2.0259    1.4339   -0.8804 H   0  0  0  0  0  0  0  0  0  0  0  0
    4.2825    1.5535   -0.7134 H   0  0  0  0  0  0  0  0  0  0  0  0
    3.4897    3.5912    1.4523 H   0  0  0  0  0  0  0  0  0  0  0  0
    5.0418    3.5537    0.6070 H   0  0  0  0  0  0  0  0  0  0  0  0
    3.5526    3.9159   -0.2856 H   0  0  0  0  0  0  0  0  0  0  0  0
    5.7252    0.8598    1.2978 N   0  0  0  0  0  0  0  0  0  0  0  0
    6.4907    0.1119    2.2675 C   0  0  0  0  0  0  0  0  0  0  0  0
    6.2272    1.2867    0.5248 H   0  0  0  0  0  0  0  0  0  0  0  0
    6.8166    0.7837    3.0753 H   0  0  0  0  0  0  0  0  0  0  0  0
    5.8663   -0.6904    2.6876 H   0  0  0  0  0  0  0  0  0  0  0  0
    7.3724   -0.3277    1.7783 H   0  0  0  0  0  0  0  0  0  0  0  0
  1  3  1  0  0  0  0
  1  7  1  0  0  0  0
  1  2  2  0  0  0  0
 37 38  1  0  0  0  0
 38 46  1  0  0  0  0
 38 39  2  0  0  0  0
  8  9  1  0  0  0  0
  9 17  1  0  0  0  0
  9 10  2  0  0  0  0
 18 19  1  0  0  0  0
 19 36  1  0  0  0  0
 19 20  2  0  0  0  0
 37 40  1  0  0  0  0
  8 11  1  0  0  0  0
 22 23  1  0  0  0  0
 22 24  1  0  0  0  0
 46 47  1  0  0  0  0
 18 21  1  0  0  0  0
 21 22  1  0  0  0  0
 36 37  1  0  0  0  0
  7  8  1  0  0  0  0
 17 18  1  0  0  0  0
  3  4  1  0  0  0  0
  3  5  1  0  0  0  0
  3  6  1  0  0  0  0
 40 43  1  0  0  0  0
 40 44  1  0  0  0  0
 40 45  1  0  0  0  0
 11 14  1  0  0  0  0
 11 15  1  0  0  0  0
 11 16  1  0  0  0  0
 23 30  1  0  0  0  0
 23 31  1  0  0  0  0
 23 32  1  0  0  0  0
 24 33  1  0  0  0  0
 24 34  1  0  0  0  0
 24 35  1  0  0  0  0
 47 49  1  0  0  0  0
 47 50  1  0  0  0  0
 47 51  1  0  0  0  0
 21 27  1  0  0  0  0
 21 28  1  0  0  0  0
 37 42  1  0  0  0  0
  8 13  1  0  0  0  0
 18 26  1  0  0  0  0
 22 29  1  0  0  0  0
 46 48  1  0  0  0  0
  7 12  1  0  0  0  0
 36 41  1  0  0  0  0
 17 25  1  0  0  0  0
M  END
$$$$

  -OEChem-05262214473D

 51 50  0     1  0  0  0  0  0999 V2000
    3.4018   -1.2440   -3.0186 C   0  0  0  0  0  0  0  0  0  0  0  0
    3.2697   -2.0909   -2.1427 O   0  0  0  0  0  0  0  0  0  0  0  0
    4.6845   -1.1645   -3.7779 C   0  0  0  0  0  0  0  0  0  0  0  0
    5.4123   -0.4862   -3.3041 H   0  0  0  0  0  0  0  0  0  0  0  0
    5.1949   -2.1387   -3.8443 H   0  0  0  0  0  0  0  0  0  0  0  0
    4.5953   -0.8128   -4.8182 H   0  0  0  0  0  0  0  0  0  0  0  0
    2.4540   -0.3103   -3.4040 N   0  0  0  0  0  0  0  0  0  0  0  0
    1.1494   -0.2128   -2.8039 C   0  0  2  0  0  0  0  0  0  0  0  0
    1.3350    0.0367   -1.3130 C   0  0  0  0  0  0  0  0  0  0  0  0
    2.3625   -0.2586   -0.7063 O   0  0  0  0  0  0  0  0  0  0  0  0
    0.3331   -1.4728   -3.0467 C   0  0  0  0  0  0  0  0  0  0  0  0
    2.6924    0.3404   -4.1502 H   0  0  0  0  0  0  0  0  0  0  0  0
    0.6550    0.6514   -3.2607 H   0  0  0  0  0  0  0  0  0  0  0  0
    0.8129   -2.3494   -2.5963 H   0  0  0  0  0  0  0  0  0  0  0  0
   -0.6690   -1.3857   -2.6142 H   0  0  0  0  0  0  0  0  0  0  0  0
    0.2259   -1.6670   -4.1194 H   0  0  0  0  0  0  0  0  0  0  0  0
    0.2019    0.5893   -0.7269 N   0  0  0  0  0  0  0  0  0  0  0  0
    0.1242    0.9059    0.6756 C   0  0  2  0  0  0  0  0  0  0  0  0
    1.5359    1.2554    1.1359 C   0  0  0  0  0  0  0  0  0  0  0  0
    1.9479    1.0188    2.2697 O   0  0  0  0  0  0  0  0  0  0  0  0
   -0.4305   -0.2599    1.5041 C   0  0  0  0  0  0  0  0  0  0  0  0
   -1.9024   -0.6175    1.2135 C   0  0  0  0  0  0  0  0  0  0  0  0
   -2.2891   -1.8808    1.9876 C   0  0  0  0  0  0  0  0  0  0  0  0
   -2.1678   -0.8260   -0.2781 C   0  0  0  0  0  0  0  0  0  0  0  0
   -0.5975    0.8179   -1.3140 H   0  0  0  0  0  0  0  0  0  0  0  0
   -0.5064    1.7959    0.7677 H   0  0  0  0  0  0  0  0  0  0  0  0
   -0.3324   -0.0148    2.5710 H   0  0  0  0  0  0  0  0  0  0  0  0
    0.1932   -1.1494    1.3437 H   0  0  0  0  0  0  0  0  0  0  0  0
   -2.5470    0.1966    1.5668 H   0  0  0  0  0  0  0  0  0  0  0  0
   -1.6750   -2.7321    1.6753 H   0  0  0  0  0  0  0  0  0  0  0  0
   -3.3369   -2.1427    1.8064 H   0  0  0  0  0  0  0  0  0  0  0  0
   -2.1551   -1.7436    3.0661 H   0  0  0  0  0  0  0  0  0  0  0  0
   -1.5465   -1.6320   -0.6830 H   0  0  0  0  0  0  0  0  0  0  0  0
   -3.2169   -1.0886   -0.4525 H   0  0  0  0  0  0  0  0  0  0  0  0
   -1.9639    0.0836   -0.8506 H   0  0  0  0  0  0  0  0  0  0  0  0
    2.2927    1.8147    0.1156 N   0  0  0  0  0  0  0  0  0  0  0  0
    3.6726    2.2122    0.2788 C   0  0  2  0  0  0  0  0  0  0  0  0
    4.3647    1.1653    1.1415 C   0  0  0  0  0  0  0  0  0  0  0  0
    3.7578    0.4188    1.9068 O   0  0  0  0  0  0  0  0  0  0  0  0
    3.7801    3.5925    0.9080 C   0  0  0  0  0  0  0  0  0  0  0  0
    1.8721    1.9482   -0.7992 H   0  0  0  0  0  0  0  0  0  0  0  0
    4.1207    2.2169   -0.7208 H   0  0  0  0  0  0  0  0  0  0  0  0
    3.3363    3.6074    1.9102 H   0  0  0  0  0  0  0  0  0  0  0  0
    4.8253    3.9042    1.0047 H   0  0  0  0  0  0  0  0  0  0  0  0
    3.2563    4.3392    0.3015 H   0  0  0  0  0  0  0  0  0  0  0  0
    5.7438    1.1917    0.9885 N   0  0  0  0  0  0  0  0  0  0  0  0
    6.6254    0.3033    1.7092 C   0  0  0  0  0  0  0  0  0  0  0  0
    6.1600    1.8309    0.3177 H   0  0  0  0  0  0  0  0  0  0  0  0
    6.9577    0.7897    2.6382 H   0  0  0  0  0  0  0  0  0  0  0  0
    6.0899   -0.6260    1.9533 H   0  0  0  0  0  0  0  0  0  0  0  0
    7.5003    0.0691    1.0849 H   0  0  0  0  0  0  0  0  0  0  0  0
  1  3  1  0  0  0  0
  1  7  1  0  0  0  0
  1  2  2  0  0  0  0
 37 38  1  0  0  0  0
 38 46  1  0  0  0  0
 38 39  2  0  0  0  0
  8  9  1  0  0  0  0
  9 17  1  0  0  0  0
  9 10  2  0  0  0  0
 18 19  1  0  0  0  0
 19 36  1  0  0  0  0
 19 20  2  0  0  0  0
 37 40  1  0  0  0  0
  8 11  1  0  0  0  0
 22 23  1  0  0  0  0
 22 24  1  0  0  0  0
 46 47  1  0  0  0  0
 18 21  1  0  0  0  0
 21 22  1  0  0  0  0
 36 37  1  0  0  0  0
  7  8  1  0  0  0  0
 17 18  1  0  0  0  0
  3  4  1  0  0  0  0
  3  5  1  0  0  0  0
  3  6  1  0  0  0  0
 40 43  1  0  0  0  0
 40 44  1  0  0  0  0
 40 45  1  0  0  0  0
 11 14  1  0  0  0  0
 11 15  1  0  0  0  0
 11 16  1  0  0  0  0
 23 30  1  0  0  0  0
 23 31  1  0  0  0  0
 23 32  1  0  0  0  0
 24 33  1  0  0  0  0
 24 34  1  0  0  0  0
 24 35  1  0  0  0  0
 47 49  1  0  0  0  0
 47 50  1  0  0  0  0
 47 51  1  0  0  0  0
 21 27  1  0  0  0  0
 21 28  1  0  0  0  0
 37 42  1  0  0  0  0
  8 13  1  0  0  0  0
 18 26  1  0  0  0  0
 22 29  1  0  0  0  0
 46 48  1  0  0  0  0
  7 12  1  0  0  0  0
 36 41  1  0  0  0  0
 17 25  1  0  0  0  0
M  END
$$$$

  -OEChem-05262214473D

 51 50  0     1  0  0  0  0  0999 V2000
    3.4018   -1.2440   -3.0186 C   0  0  0  0  0  0  0  0  0  0  0  0
    3.2697   -2.0909   -2.1427 O   0  0  0  0  0  0  0  0  0  0  0  0
    4.6845   -1.1645   -3.7779 C   0  0  0  0  0  0  0  0  0  0  0  0
    5.4123   -0.4862   -3.3041 H   0  0  0  0  0  0  0  0  0  0  0  0
    5.1949   -2.1387   -3.8443 H   0  0  0  0  0  0  0  0  0  0  0  0
    4.5953   -0.8128   -4.8182 H   0  0  0  0  0  0  0  0  0  0  0  0
    2.4540   -0.3103   -3.4040 N   0  0  0  0  0  0  0  0  0  0  0  0
    1.1494   -0.2128   -2.8039 C   0  0  2  0  0  0  0  0  0  0  0  0
    1.3350    0.0367   -1.3130 C   0  0  0  0  0  0  0  0  0  0  0  0
    2.3625   -0.2586   -0.7063 O   0  0  0  0  0  0  0  0  0  0  0  0
    0.3331   -1.4728   -3.0467 C   0  0  0  0  0  0  0  0  0  0  0  0
    2.6924    0.3404   -4.1502 H   0  0  0  0  0  0  0  0  0  0  0  0
    0.6550    0.6514   -3.2607 H   0  0  0  0  0  0  0  0  0  0  0  0
    0.8129   -2.3494   -2.5963 H   0  0  0  0  0  0  0  0  0  0  0  0
   -0.6690   -1.3857   -2.6142 H   0  0  0  0  0  0  0  0  0  0  0  0
    0.2259   -1.6670   -4.1194 H   0  0  0  0  0  0  0  0  0  0  0  0
    0.2019    0.5893   -0.7269 N   0  0  0  0  0  0  0  0  0  0  0  0
    0.1242    0.9059    0.6756 C   0  0  2  0  0  0  0  0  0  0  0  0
    1.5359    1.2554    1.1359 C   0  0  0  0  0  0  0  0  0  0  0  0
    2.0407    0.7927    2.1569 O   0  0  0  0  0  0  0  0  0  0  0  0
   -0.4305   -0.2599    1.5041 C   0  0  0  0  0  0  0  0  0  0  0  0
   -1.9024   -0.6175    1.2135 C   0  0  0  0  0  0  0  0  0  0  0  0
   -2.2891   -1.8808    1.9876 C   0  0  0  0  0  0  0  0  0  0  0  0
   -2.1678   -0.8260   -0.2781 C   0  0  0  0  0  0  0  0  0  0  0  0
   -0.5975    0.8179   -1.3140 H   0  0  0  0  0  0  0  0  0  0  0  0
   -0.5064    1.7959    0.7677 H   0  0  0  0  0  0  0  0  0  0  0  0
   -0.3324   -0.0148    2.5710 H   0  0  0  0  0  0  0  0  0  0  0  0
    0.1932   -1.1494    1.3437 H   0  0  0  0  0  0  0  0  0  0  0  0
   -2.5470    0.1966    1.5668 H   0  0  0  0  0  0  0  0  0  0  0  0
   -1.6750   -2.7321    1.6753 H   0  0  0  0  0  0  0  0  0  0  0  0
   -3.3369   -2.1427    1.8064 H   0  0  0  0  0  0  0  0  0  0  0  0
   -2.1551   -1.7436    3.0661 H   0  0  0  0  0  0  0  0  0  0  0  0
   -1.5465   -1.6320   -0.6830 H   0  0  0  0  0  0  0  0  0  0  0  0
   -3.2169   -1.0886   -0.4525 H   0  0  0  0  0  0  0  0  0  0  0  0
   -1.9639    0.0836   -0.8506 H   0  0  0  0  0  0  0  0  0  0  0  0
    2.1791    2.1032    0.2448 N   0  0  0  0  0  0  0  0  0  0  0  0
    3.5353    2.5669    0.4304 C   0  0  2  0  0  0  0  0  0  0  0  0
    4.3576    1.4082    0.9787 C   0  0  0  0  0  0  0  0  0  0  0  0
    3.8593    0.4526    1.5699 O   0  0  0  0  0  0  0  0  0  0  0  0
    3.5877    3.7626    1.3686 C   0  0  0  0  0  0  0  0  0  0  0  0
    1.6881    2.4134   -0.5884 H   0  0  0  0  0  0  0  0  0  0  0  0
    3.9121    2.8467   -0.5594 H   0  0  0  0  0  0  0  0  0  0  0  0
    3.2141    3.5015    2.3655 H   0  0  0  0  0  0  0  0  0  0  0  0
    4.6125    4.1305    1.4857 H   0  0  0  0  0  0  0  0  0  0  0  0
    2.9719    4.5844    0.9876 H   0  0  0  0  0  0  0  0  0  0  0  0
    5.7176    1.5878    0.7681 N   0  0  0  0  0  0  0  0  0  0  0  0
    6.7075    0.6324    1.2078 C   0  0  0  0  0  0  0  0  0  0  0  0
    6.0402    2.4010    0.2520 H   0  0  0  0  0  0  0  0  0  0  0  0
    7.0676    0.9111    2.2091 H   0  0  0  0  0  0  0  0  0  0  0  0
    6.2572   -0.3705    1.2462 H   0  0  0  0  0  0  0  0  0  0  0  0
    7.5517    0.6285    0.5026 H   0  0  0  0  0  0  0  0  0  0  0  0
  1  3  1  0  0  0  0
  1  7  1  0  0  0  0
  1  2  2  0  0  0  0
 37 38  1  0  0  0  0
 38 46  1  0  0  0  0
 38 39  2  0  0  0  0
  8  9  1  0  0  0  0
  9 17  1  0  0  0  0
  9 10  2  0  0  0  0
 18 19  1  0  0  0  0
 19 36  1  0  0  0  0
 19 20  2  0  0  0  0
 37 40  1  0  0  0  0
  8 11  1  0  0  0  0
 22 23  1  0  0  0  0
 22 24  1  0  0  0  0
 46 47  1  0  0  0  0
 18 21  1  0  0  0  0
 21 22  1  0  0  0  0
 36 37  1  0  0  0  0
  7  8  1  0  0  0  0
 17 18  1  0  0  0  0
  3  4  1  0  0  0  0
  3  5  1  0  0  0  0
  3  6  1  0  0  0  0
 40 43  1  0  0  0  0
 40 44  1  0  0  0  0
 40 45  1  0  0  0  0
 11 14  1  0  0  0  0
 11 15  1  0  0  0  0
 11 16  1  0  0  0  0
 23 30  1  0  0  0  0
 23 31  1  0  0  0  0
 23 32  1  0  0  0  0
 24 33  1  0  0  0  0
 24 34  1  0  0  0  0
 24 35  1  0  0  0  0
 47 49  1  0  0  0  0
 47 50  1  0  0  0  0
 47 51  1  0  0  0  0
 21 27  1  0  0  0  0
 21 28  1  0  0  0  0
 37 42  1  0  0  0  0
  8 13  1  0  0  0  0
 18 26  1  0  0  0  0
 22 29  1  0  0  0  0
 46 48  1  0  0  0  0
  7 12  1  0  0  0  0
 36 41  1  0  0  0  0
 17 25  1  0  0  0  0
M  END
$$$$

  -OEChem-05262214473D

 51 50  0     1  0  0  0  0  0999 V2000
    3.4018   -1.2440   -3.0186 C   0  0  0  0  0  0  0  0  0  0  0  0
    3.2697   -2.0909   -2.1427 O   0  0  0  0  0  0  0  0  0  0  0  0
    4.6845   -1.1645   -3.7779 C   0  0  0  0  0  0  0  0  0  0  0  0
    5.4123   -0.4862   -3.3041 H   0  0  0  0  0  0  0  0  0  0  0  0
    5.1949   -2.1387   -3.8443 H   0  0  0  0  0  0  0  0  0  0  0  0
    4.5953   -0.8128   -4.8182 H   0  0  0  0  0  0  0  0  0  0  0  0
    2.4540   -0.3103   -3.4040 N   0  0  0  0  0  0  0  0  0  0  0  0
    1.1494   -0.2128   -2.8039 C   0  0  2  0  0  0  0  0  0  0  0  0
    1.3350    0.0367   -1.3130 C   0  0  0  0  0  0  0  0  0  0  0  0
    2.3625   -0.2586   -0.7063 O   0  0  0  0  0  0  0  0  0  0  0  0
    0.3331   -1.4728   -3.0467 C   0  0  0  0  0  0  0  0  0  0  0  0
    2.6924    0.3404   -4.1502 H   0  0  0  0  0  0  0  0  0  0  0  0
    0.6550    0.6514   -3.2607 H   0  0  0  0  0  0  0  0  0  0  0  0
    0.8129   -2.3494   -2.5963 H   0  0  0  0  0  0  0  0  0  0  0  0
   -0.6690   -1.3857   -2.6142 H   0  0  0  0  0  0  0  0  0  0  0  0
    0.2259   -1.6670   -4.1194 H   0  0  0  0  0  0  0  0  0  0  0  0
    0.2019    0.5893   -0.7269 N   0  0  0  0  0  0  0  0  0  0  0  0
    0.1242    0.9059    0.6756 C   0  0  2  0  0  0  0  0  0  0  0  0
    1.5359    1.2554    1.1359 C   0  0  0  0  0  0  0  0  0  0  0  0
    2.1413    0.6086    1.9882 O   0  0  0  0  0  0  0  0  0  0  0  0
   -0.4305   -0.2599    1.5041 C   0  0  0  0  0  0  0  0  0  0  0  0
   -1.9024   -0.6175    1.2135 C   0  0  0  0  0  0  0  0  0  0  0  0
   -2.2891   -1.8808    1.9876 C   0  0  0  0  0  0  0  0  0  0  0  0
   -2.1678   -0.8260   -0.2781 C   0  0  0  0  0  0  0  0  0  0  0  0
   -0.5975    0.8179   -1.3140 H   0  0  0  0  0  0  0  0  0  0  0  0
   -0.5064    1.7959    0.7677 H   0  0  0  0  0  0  0  0  0  0  0  0
   -0.3324   -0.0148    2.5710 H   0  0  0  0  0  0  0  0  0  0  0  0
    0.1932   -1.1494    1.3437 H   0  0  0  0  0  0  0  0  0  0  0  0
   -2.5470    0.1966    1.5668 H   0  0  0  0  0  0  0  0  0  0  0  0
   -1.6750   -2.7321    1.6753 H   0  0  0  0  0  0  0  0  0  0  0  0
   -3.3369   -2.1427    1.8064 H   0  0  0  0  0  0  0  0  0  0  0  0
   -2.1551   -1.7436    3.0661 H   0  0  0  0  0  0  0  0  0  0  0  0
   -1.5465   -1.6320   -0.6830 H   0  0  0  0  0  0  0  0  0  0  0  0
   -3.2169   -1.0886   -0.4525 H   0  0  0  0  0  0  0  0  0  0  0  0
   -1.9639    0.0836   -0.8506 H   0  0  0  0  0  0  0  0  0  0  0  0
    2.0545    2.3421    0.4455 N   0  0  0  0  0  0  0  0  0  0  0  0
    3.3840    2.8625    0.6699 C   0  0  2  0  0  0  0  0  0  0  0  0
    4.3222    1.6814    0.8800 C   0  0  0  0  0  0  0  0  0  0  0  0
    3.9347    0.5739    1.2466 O   0  0  0  0  0  0  0  0  0  0  0  0
    3.4160    3.8016    1.8657 C   0  0  0  0  0  0  0  0  0  0  0  0
    1.4866    2.7980   -0.2625 H   0  0  0  0  0  0  0  0  0  0  0  0
    3.6710    3.4002   -0.2404 H   0  0  0  0  0  0  0  0  0  0  0  0
    3.1313    3.2806    2.7871 H   0  0  0  0  0  0  0  0  0  0  0  0
    4.4177    4.2172    2.0171 H   0  0  0  0  0  0  0  0  0  0  0  0
    2.7187    4.6346    1.7259 H   0  0  0  0  0  0  0  0  0  0  0  0
    5.6483    2.0212    0.6517 N   0  0  0  0  0  0  0  0  0  0  0  0
    6.7313    1.0768    0.7973 C   0  0  0  0  0  0  0  0  0  0  0  0
    5.8762    2.9580    0.3322 H   0  0  0  0  0  0  0  0  0  0  0  0
    7.1388    1.1397    1.8171 H   0  0  0  0  0  0  0  0  0  0  0  0
    6.3569    0.0587    0.6144 H   0  0  0  0  0  0  0  0  0  0  0  0
    7.5231    1.3123    0.0710 H   0  0  0  0  0  0  0  0  0  0  0  0
  1  3  1  0  0  0  0
  1  7  1  0  0  0  0
  1  2  2  0  0  0  0
 37 38  1  0  0  0  0
 38 46  1  0  0  0  0
 38 39  2  0  0  0  0
  8  9  1  0  0  0  0
  9 17  1  0  0  0  0
  9 10  2  0  0  0  0
 18 19  1  0  0  0  0
 19 36  1  0  0  0  0
 19 20  2  0  0  0  0
 37 40  1  0  0  0  0
  8 11  1  0  0  0  0
 22 23  1  0  0  0  0
 22 24  1  0  0  0  0
 46 47  1  0  0  0  0
 18 21  1  0  0  0  0
 21 22  1  0  0  0  0
 36 37  1  0  0  0  0
  7  8  1  0  0  0  0
 17 18  1  0  0  0  0
  3  4  1  0  0  0  0
  3  5  1  0  0  0  0
  3  6  1  0  0  0  0
 40 43  1  0  0  0  0
 40 44  1  0  0  0  0
 40 45  1  0  0  0  0
 11 14  1  0  0  0  0
 11 15  1  0  0  0  0
 11 16  1  0  0  0  0
 23 30  1  0  0  0  0
 23 31  1  0  0  0  0
 23 32  1  0  0  0  0
 24 33  1  0  0  0  0
 24 34  1  0  0  0  0
 24 35  1  0  0  0  0
 47 49  1  0  0  0  0
 47 50  1  0  0  0  0
 47 51  1  0  0  0  0
 21 27  1  0  0  0  0
 21 28  1  0  0  0  0
 37 42  1  0  0  0  0
  8 13  1  0  0  0  0
 18 26  1  0  0  0  0
 22 29  1  0  0  0  0
 46 48  1  0  0  0  0
  7 12  1  0  0  0  0
 36 41  1  0  0  0  0
 17 25  1  0  0  0  0
M  END
$$$$

  -OEChem-05262214473D

 51 50  0     1  0  0  0  0  0999 V2000
    3.4018   -1.2440   -3.0186 C   0  0  0  0  0  0  0  0  0  0  0  0
    3.2697   -2.0909   -2.1427 O   0  0  0  0  0  0  0  0  0  0  0  0
    4.6845   -1.1645   -3.7779 C   0  0  0  0  0  0  0  0  0  0  0  0
    5.4123   -0.4862   -3.3041 H   0  0  0  0  0  0  0  0  0  0  0  0
    5.1949   -2.1387   -3.8443 H   0  0  0  0  0  0  0  0  0  0  0  0
    4.5953   -0.8128   -4.8182 H   0  0  0  0  0  0  0  0  0  0  0  0
    2.4540   -0.3103   -3.4040 N   0  0  0  0  0  0  0  0  0  0  0  0
    1.1494   -0.2128   -2.8039 C   0  0  2  0  0  0  0  0  0  0  0  0
    1.3350    0.0367   -1.3130 C   0  0  0  0  0  0  0  0  0  0  0  0
    2.3625   -0.2586   -0.7063 O   0  0  0  0  0  0  0  0  0  0  0  0
    0.3331   -1.4728   -3.0467 C   0  0  0  0  0  0  0  0  0  0  0  0
    2.6924    0.3404   -4.1502 H   0  0  0  0  0  0  0  0  0  0  0  0
    0.6550    0.6514   -3.2607 H   0  0  0  0  0  0  0  0  0  0  0  0
    0.8129   -2.3494   -2.5963 H   0  0  0  0  0  0  0  0  0  0  0  0
   -0.6690   -1.3857   -2.6142 H   0  0  0  0  0  0  0  0  0  0  0  0
    0.2259   -1.6670   -4.1194 H   0  0  0  0  0  0  0  0  0  0  0  0
    0.2019    0.5893   -0.7269 N   0  0  0  0  0  0  0  0  0  0  0  0
    0.1242    0.9059    0.6756 C   0  0  2  0  0  0  0  0  0  0  0  0
    1.5359    1.2554    1.1359 C   0  0  0  0  0  0  0  0  0  0  0  0
    2.2428    0.4790    1.7752 O   0  0  0  0  0  0  0  0  0  0  0  0
   -0.4305   -0.2599    1.5041 C   0  0  0  0  0  0  0  0  0  0  0  0
   -1.9024   -0.6175    1.2135 C   0  0  0  0  0  0  0  0  0  0  0  0
   -2.2891   -1.8808    1.9876 C   0  0  0  0  0  0  0  0  0  0  0  0
   -2.1678   -0.8260   -0.2781 C   0  0  0  0  0  0  0  0  0  0  0  0
   -0.5975    0.8179   -1.3140 H   0  0  0  0  0  0  0  0  0  0  0  0
   -0.5064    1.7959    0.7677 H   0  0  0  0  0  0  0  0  0  0  0  0
   -0.3324   -0.0148    2.5710 H   0  0  0  0  0  0  0  0  0  0  0  0
    0.1932   -1.1494    1.3437 H   0  0  0  0  0  0  0  0  0  0  0  0
   -2.5470    0.1966    1.5668 H   0  0  0  0  0  0  0  0  0  0  0  0
   -1.6750   -2.7321    1.6753 H   0  0  0  0  0  0  0  0  0  0  0  0
   -3.3369   -2.1427    1.8064 H   0  0  0  0  0  0  0  0  0  0  0  0
   -2.1551   -1.7436    3.0661 H   0  0  0  0  0  0  0  0  0  0  0  0
   -1.5465   -1.6320   -0.6830 H   0  0  0  0  0  0  0  0  0  0  0  0
   -3.2169   -1.0886   -0.4525 H   0  0  0  0  0  0  0  0  0  0  0  0
   -1.9639    0.0836   -0.8506 H   0  0  0  0  0  0  0  0  0  0  0  0
    1.9275    2.5150    0.7039 N   0  0  0  0  0  0  0  0  0  0  0  0
    3.2289    3.0789    0.9811 C   0  0  2  0  0  0  0  0  0  0  0  0
    4.2607    1.9661    0.8523 C   0  0  0  0  0  0  0  0  0  0  0  0
    3.9789    0.7744    0.9589 O   0  0  0  0  0  0  0  0  0  0  0  0
    3.2765    3.7067    2.3653 C   0  0  0  0  0  0  0  0  0  0  0  0
    1.2813    3.0757    0.1564 H   0  0  0  0  0  0  0  0  0  0  0  0
    3.4138    3.8396    0.2147 H   0  0  0  0  0  0  0  0  0  0  0  0
    3.0936    2.9598    3.1464 H   0  0  0  0  0  0  0  0  0  0  0  0
    4.2543    4.1586    2.5627 H   0  0  0  0  0  0  0  0  0  0  0  0
    2.5139    4.4865    2.4660 H   0  0  0  0  0  0  0  0  0  0  0  0
    5.5406    2.4622    0.6472 N   0  0  0  0  0  0  0  0  0  0  0  0
    6.6952    1.6062    0.5059 C   0  0  0  0  0  0  0  0  0  0  0  0
    5.6789    3.4641    0.5528 H   0  0  0  0  0  0  0  0  0  0  0  0
    7.1664    1.4600    1.4891 H   0  0  0  0  0  0  0  0  0  0  0  0
    6.3823    0.6325    0.1011 H   0  0  0  0  0  0  0  0  0  0  0  0
    7.4165    2.0739   -0.1803 H   0  0  0  0  0  0  0  0  0  0  0  0
  1  3  1  0  0  0  0
  1  7  1  0  0  0  0
  1  2  2  0  0  0  0
 37 38  1  0  0  0  0
 38 46  1  0  0  0  0
 38 39  2  0  0  0  0
  8  9  1  0  0  0  0
  9 17  1  0  0  0  0
  9 10  2  0  0  0  0
 18 19  1  0  0  0  0
 19 36  1  0  0  0  0
 19 20  2  0  0  0  0
 37 40  1  0  0  0  0
  8 11  1  0  0  0  0
 22 23  1  0  0  0  0
 22 24  1  0  0  0  0
 46 47  1  0  0  0  0
 18 21  1  0  0  0  0
 21 22  1  0  0  0  0
 36 37  1  0  0  0  0
  7  8  1  0  0  0  0
 17 18  1  0  0  0  0
  3  4  1  0  0  0  0
  3  5  1  0  0  0  0
  3  6  1  0  0  0  0
 40 43  1  0  0  0  0
 40 44  1  0  0  0  0
 40 45  1  0  0  0  0
 11 14  1  0  0  0  0
 11 15  1  0  0  0  0
 11 16  1  0  0  0  0
 23 30  1  0  0  0  0
 23 31  1  0  0  0  0
 23 32  1  0  0  0  0
 24 33  1  0  0  0  0
 24 34  1  0  0  0  0
 24 35  1  0  0  0  0
 47 49  1  0  0  0  0
 47 50  1  0  0  0  0
 47 51  1  0  0  0  0
 21 27  1  0  0  0  0
 21 28  1  0  0  0  0
 37 42  1  0  0  0  0
  8 13  1  0  0  0  0
 18 26  1  0  0  0  0
 22 29  1  0  0  0  0
 46 48  1  0  0  0  0
  7 12  1  0  0  0  0
 36 41  1  0  0  0  0
 17 25  1  0  0  0  0
M  END
$$$$

  -OEChem-05262214473D

 51 50  0     1  0  0  0  0  0999 V2000
    3.4018   -1.2440   -3.0186 C   0  0  0  0  0  0  0  0  0  0  0  0
    3.2697   -2.0909   -2.1427 O   0  0  0  0  0  0  0  0  0  0  0  0
    4.6845   -1.1645   -3.7779 C   0  0  0  0  0  0  0  0  0  0  0  0
    5.4123   -0.4862   -3.3041 H   0  0  0  0  0  0  0  0  0  0  0  0
    5.1949   -2.1387   -3.8443 H   0  0  0  0  0  0  0  0  0  0  0  0
    4.5953   -0.8128   -4.8182 H   0  0  0  0  0  0  0  0  0  0  0  0
    2.4540   -0.3103   -3.4040 N   0  0  0  0  0  0  0  0  0  0  0  0
    1.1494   -0.2128   -2.8039 C   0  0  2  0  0  0  0  0  0  0  0  0
    1.3350    0.0367   -1.3130 C   0  0  0  0  0  0  0  0  0  0  0  0
    2.3625   -0.2586   -0.7063 O   0  0  0  0  0  0  0  0  0  0  0  0
    0.3331   -1.4728   -3.0467 C   0  0  0  0  0  0  0  0  0  0  0  0
    2.6924    0.3404   -4.1502 H   0  0  0  0  0  0  0  0  0  0  0  0
    0.6550    0.6514   -3.2607 H   0  0  0  0  0  0  0  0  0  0  0  0
    0.8129   -2.3494   -2.5963 H   0  0  0  0  0  0  0  0  0  0  0  0
   -0.6690   -1.3857   -2.6142 H   0  0  0  0  0  0  0  0  0  0  0  0
    0.2259   -1.6670   -4.1194 H   0  0  0  0  0  0  0  0  0  0  0  0
    0.2019    0.5893   -0.7269 N   0  0  0  0  0  0  0  0  0  0  0  0
    0.1242    0.9059    0.6756 C   0  0  2  0  0  0  0  0  0  0  0  0
    1.5359    1.2554    1.1359 C   0  0  0  0  0  0  0  0  0  0  0  0
    2.3384    0.4128    1.5324 O   0  0  0  0  0  0  0  0  0  0  0  0
   -0.4305   -0.2599    1.5041 C   0  0  0  0  0  0  0  0  0  0  0  0
   -1.9024   -0.6175    1.2135 C   0  0  0  0  0  0  0  0  0  0  0  0
   -2.2891   -1.8808    1.9876 C   0  0  0  0  0  0  0  0  0  0  0  0
   -2.1678   -0.8260   -0.2781 C   0  0  0  0  0  0  0  0  0  0  0  0
   -0.5975    0.8179   -1.3140 H   0  0  0  0  0  0  0  0  0  0  0  0
   -0.5064    1.7959    0.7677 H   0  0  0  0  0  0  0  0  0  0  0  0
   -0.3324   -0.0148    2.5710 H   0  0  0  0  0  0  0  0  0  0  0  0
    0.1932   -1.1494    1.3437 H   0  0  0  0  0  0  0  0  0  0  0  0
   -2.5470    0.1966    1.5668 H   0  0  0  0  0  0  0  0  0  0  0  0
   -1.6750   -2.7321    1.6753 H   0  0  0  0  0  0  0  0  0  0  0  0
   -3.3369   -2.1427    1.8064 H   0  0  0  0  0  0  0  0  0  0  0  0
   -2.1551   -1.7436    3.0661 H   0  0  0  0  0  0  0  0  0  0  0  0
   -1.5465   -1.6320   -0.6830 H   0  0  0  0  0  0  0  0  0  0  0  0
   -3.2169   -1.0886   -0.4525 H   0  0  0  0  0  0  0  0  0  0  0  0
   -1.9639    0.0836   -0.8506 H   0  0  0  0  0  0  0  0  0  0  0  0
    1.8065    2.6102    1.0024 N   0  0  0  0  0  0  0  0  0  0  0  0
    3.0808    3.2012    1.3426 C   0  0  2  0  0  0  0  0  0  0  0  0
    4.1775    2.2430    0.8973 C   0  0  0  0  0  0  0  0  0  0  0  0
    3.9888    1.0403    0.7264 O   0  0  0  0  0  0  0  0  0  0  0  0
    3.1789    3.4846    2.8335 C   0  0  0  0  0  0  0  0  0  0  0  0
    1.0861    3.2275    0.6396 H   0  0  0  0  0  0  0  0  0  0  0  0
    3.1580    4.1349    0.7748 H   0  0  0  0  0  0  0  0  0  0  0  0
    3.1035    2.5609    3.4188 H   0  0  0  0  0  0  0  0  0  0  0  0
    4.1334    3.9584    3.0853 H   0  0  0  0  0  0  0  0  0  0  0  0
    2.3717    4.1502    3.1577 H   0  0  0  0  0  0  0  0  0  0  0  0
    5.4018    2.8809    0.7548 N   0  0  0  0  0  0  0  0  0  0  0  0
    6.6018    2.1846    0.3534 C   0  0  0  0  0  0  0  0  0  0  0  0
    5.4620    3.8846    0.8988 H   0  0  0  0  0  0  0  0  0  0  0  0
    7.1487    1.8502    1.2473 H   0  0  0  0  0  0  0  0  0  0  0  0
    6.3315    1.3116   -0.2588 H   0  0  0  0  0  0  0  0  0  0  0  0
    7.2391    2.8615   -0.2344 H   0  0  0  0  0  0  0  0  0  0  0  0
  1  3  1  0  0  0  0
  1  7  1  0  0  0  0
  1  2  2  0  0  0  0
 37 38  1  0  0  0  0
 38 46  1  0  0  0  0
 38 39  2  0  0  0  0
  8  9  1  0  0  0  0
  9 17  1  0  0  0  0
  9 10  2  0  0  0  0
 18 19  1  0  0  0  0
 19 36  1  0  0  0  0
 19 20  2  0  0  0  0
 37 40  1  0  0  0  0
  8 11  1  0  0  0  0
 22 23  1  0  0  0  0
 22 24  1  0  0  0  0
 46 47  1  0  0  0  0
 18 21  1  0  0  0  0
 21 22  1  0  0  0  0
 36 37  1  0  0  0  0
  7  8  1  0  0  0  0
 17 18  1  0  0  0  0
  3  4  1  0  0  0  0
  3  5  1  0  0  0  0
  3  6  1  0  0  0  0
 40 43  1  0  0  0  0
 40 44  1  0  0  0  0
 40 45  1  0  0  0  0
 11 14  1  0  0  0  0
 11 15  1  0  0  0  0
 11 16  1  0  0  0  0
 23 30  1  0  0  0  0
 23 31  1  0  0  0  0
 23 32  1  0  0  0  0
 24 33  1  0  0  0  0
 24 34  1  0  0  0  0
 24 35  1  0  0  0  0
 47 49  1  0  0  0  0
 47 50  1  0  0  0  0
 47 51  1  0  0  0  0
 21 27  1  0  0  0  0
 21 28  1  0  0  0  0
 37 42  1  0  0  0  0
  8 13  1  0  0  0  0
 18 26  1  0  0  0  0
 22 29  1  0  0  0  0
 46 48  1  0  0  0  0
  7 12  1  0  0  0  0
 36 41  1  0  0  0  0
 17 25  1  0  0  0  0
M  END
$$$$

  -OEChem-05262214473D

 51 50  0     1  0  0  0  0  0999 V2000
    3.4018   -1.2440   -3.0186 C   0  0  0  0  0  0  0  0  0  0  0  0
    3.2697   -2.0909   -2.1427 O   0  0  0  0  0  0  0  0  0  0  0  0
    4.6845   -1.1645   -3.7779 C   0  0  0  0  0  0  0  0  0  0  0  0
    5.4123   -0.4862   -3.3041 H   0  0  0  0  0  0  0  0  0  0  0  0
    5.1949   -2.1387   -3.8443 H   0  0  0  0  0  0  0  0  0  0  0  0
    4.5953   -0.8128   -4.8182 H   0  0  0  0  0  0  0  0  0  0  0  0
    2.4540   -0.3103   -3.4040 N   0  0  0  0  0  0  0  0  0  0  0  0
    1.1494   -0.2128   -2.8039 C   0  0  2  0  0  0  0  0  0  0  0  0
    1.3350    0.0367   -1.3130 C   0  0  0  0  0  0  0  0  0  0  0  0
    2.3625   -0.2586   -0.7063 O   0  0  0  0  0  0  0  0  0  0  0  0
    0.3331   -1.4728   -3.0467 C   0  0  0  0  0  0  0  0  0  0  0  0
    2.6924    0.3404   -4.1502 H   0  0  0  0  0  0  0  0  0  0  0  0
    0.6550    0.6514   -3.2607 H   0  0  0  0  0  0  0  0  0  0  0  0
    0.8129   -2.3494   -2.5963 H   0  0  0  0  0  0  0  0  0  0  0  0
   -0.6690   -1.3857   -2.6142 H   0  0  0  0  0  0  0  0  0  0  0  0
    0.2259   -1.6670   -4.1194 H   0  0  0  0  0  0  0  0  0  0  0  0
    0.2019    0.5893   -0.7269 N   0  0  0  0  0  0  0  0  0  0  0  0
    0.1242    0.9059    0.6756 C   0  0  2  0  0  0  0  0  0  0  0  0
    1.5359    1.2554    1.1359 C   0  0  0  0  0  0  0  0  0  0  0  0
    2.4215    0.4145    1.2764 O   0  0  0  0  0  0  0  0  0  0  0  0
   -0.4305   -0.2599    1.5041 C   0  0  0  0  0  0  0  0  0  0  0  0
   -1.9024   -0.6175    1.2135 C   0  0  0  0  0  0  0  0  0  0  0  0
   -2.2891   -1.8808    1.9876 C   0  0  0  0  0  0  0  0  0  0  0  0
   -2.1678   -0.8260   -0.2781 C   0  0  0  0  0  0  0  0  0  0  0  0
   -0.5975    0.8179   -1.3140 H   0  0  0  0  0  0  0  0  0  0  0  0
   -0.5064    1.7959    0.7677 H   0  0  0  0  0  0  0  0  0  0  0  0
   -0.3324   -0.0148    2.5710 H   0  0  0  0  0  0  0  0  0  0  0  0
    0.1932   -1.1494    1.3437 H   0  0  0  0  0  0  0  0  0  0  0  0
   -2.5470    0.1966    1.5668 H   0  0  0  0  0  0  0  0  0  0  0  0
   -1.6750   -2.7321    1.6753 H   0  0  0  0  0  0  0  0  0  0  0  0
   -3.3369   -2.1427    1.8064 H   0  0  0  0  0  0  0  0  0  0  0  0
   -2.1551   -1.7436    3.0661 H   0  0  0  0  0  0  0  0  0  0  0  0
   -1.5465   -1.6320   -0.6830 H   0  0  0  0  0  0  0  0  0  0  0  0
   -3.2169   -1.0886   -0.4525 H   0  0  0  0  0  0  0  0  0  0  0  0
   -1.9639    0.0836   -0.8506 H   0  0  0  0  0  0  0  0  0  0  0  0
    1.7000    2.6213    1.3208 N   0  0  0  0  0  0  0  0  0  0  0  0
    2.9495    3.2212    1.7299 C   0  0  2  0  0  0  0  0  0  0  0  0
    4.0782    2.4931    1.0120 C   0  0  0  0  0  0  0  0  0  0  0  0
    3.9639    1.3537    0.5649 O   0  0  0  0  0  0  0  0  0  0  0  0
    3.1297    3.1502    3.2383 C   0  0  0  0  0  0  0  0  0  0  0  0
    0.9144    3.2431    1.1544 H   0  0  0  0  0  0  0  0  0  0  0  0
    2.9211    4.2660    1.4017 H   0  0  0  0  0  0  0  0  0  0  0  0
    3.1604    2.1111    3.5858 H   0  0  0  0  0  0  0  0  0  0  0  0
    4.0632    3.6305    3.5494 H   0  0  0  0  0  0  0  0  0  0  0  0
    2.3015    3.6486    3.7536 H   0  0  0  0  0  0  0  0  0  0  0  0
    5.2414    3.2487    0.9673 N   0  0  0  0  0  0  0  0  0  0  0  0
    6.4573    2.7724    0.3502 C   0  0  0  0  0  0  0  0  0  0  0  0
    5.2401    4.1910    1.3466 H   0  0  0  0  0  0  0  0  0  0  0  0
    7.0867    2.2835    1.1083 H   0  0  0  0  0  0  0  0  0  0  0  0
    6.2081    2.0498   -0.4408 H   0  0  0  0  0  0  0  0  0  0  0  0
    7.0031    3.6213   -0.0874 H   0  0  0  0  0  0  0  0  0  0  0  0
  1  3  1  0  0  0  0
  1  7  1  0  0  0  0
  1  2  2  0  0  0  0
 37 38  1  0  0  0  0
 38 46  1  0  0  0  0
 38 39  2  0  0  0  0
  8  9  1  0  0  0  0
  9 17  1  0  0  0  0
  9 10  2  0  0  0  0
 18 19  1  0  0  0  0
 19 36  1  0  0  0  0
 19 20  2  0  0  0  0
 37 40  1  0  0  0  0
  8 11  1  0  0  0  0
 22 23  1  0  0  0  0
 22 24  1  0  0  0  0
 46 47  1  0  0  0  0
 18 21  1  0  0  0  0
 21 22  1  0  0  0  0
 36 37  1  0  0  0  0
  7  8  1  0  0  0  0
 17 18  1  0  0  0  0
  3  4  1  0  0  0  0
  3  5  1  0  0  0  0
  3  6  1  0  0  0  0
 40 43  1  0  0  0  0
 40 44  1  0  0  0  0
 40 45  1  0  0  0  0
 11 14  1  0  0  0  0
 11 15  1  0  0  0  0
 11 16  1  0  0  0  0
 23 30  1  0  0  0  0
 23 31  1  0  0  0  0
 23 32  1  0  0  0  0
 24 33  1  0  0  0  0
 24 34  1  0  0  0  0
 24 35  1  0  0  0  0
 47 49  1  0  0  0  0
 47 50  1  0  0  0  0
 47 51  1  0  0  0  0
 21 27  1  0  0  0  0
 21 28  1  0  0  0  0
 37 42  1  0  0  0  0
  8 13  1  0  0  0  0
 18 26  1  0  0  0  0
 22 29  1  0  0  0  0
 46 48  1  0  0  0  0
  7 12  1  0  0  0  0
 36 41  1  0  0  0  0
 17 25  1  0  0  0  0
M  END
$$$$

  -OEChem-05262214473D

 51 50  0     1  0  0  0  0  0999 V2000
    3.4018   -1.2440   -3.0186 C   0  0  0  0  0  0  0  0  0  0  0  0
    3.2697   -2.0909   -2.1427 O   0  0  0  0  0  0  0  0  0  0  0  0
    4.6845   -1.1645   -3.7779 C   0  0  0  0  0  0  0  0  0  0  0  0
    5.4123   -0.4862   -3.3041 H   0  0  0  0  0  0  0  0  0  0  0  0
    5.1949   -2.1387   -3.8443 H   0  0  0  0  0  0  0  0  0  0  0  0
    4.5953   -0.8128   -4.8182 H   0  0  0  0  0  0  0  0  0  0  0  0
    2.4540   -0.3103   -3.4040 N   0  0  0  0  0  0  0  0  0  0  0  0
    1.1494   -0.2128   -2.8039 C   0  0  2  0  0  0  0  0  0  0  0  0
    1.3350    0.0367   -1.3130 C   0  0  0  0  0  0  0  0  0  0  0  0
    2.3625   -0.2586   -0.7063 O   0  0  0  0  0  0  0  0  0  0  0  0
    0.3331   -1.4728   -3.0467 C   0  0  0  0  0  0  0  0  0  0  0  0
    2.6924    0.3404   -4.1502 H   0  0  0  0  0  0  0  0  0  0  0  0
    0.6550    0.6514   -3.2607 H   0  0  0  0  0  0  0  0  0  0  0  0
    0.8129   -2.3494   -2.5963 H   0  0  0  0  0  0  0  0  0  0  0  0
   -0.6690   -1.3857   -2.6142 H   0  0  0  0  0  0  0  0  0  0  0  0
    0.2259   -1.6670   -4.1194 H   0  0  0  0  0  0  0  0  0  0  0  0
    0.2019    0.5893   -0.7269 N   0  0  0  0  0  0  0  0  0  0  0  0
    0.1242    0.9059    0.6756 C   0  0  2  0  0  0  0  0  0  0  0  0
    1.5359    1.2554    1.1359 C   0  0  0  0  0  0  0  0  0  0  0  0
    2.4864    0.4839    1.0245 O   0  0  0  0  0  0  0  0  0  0  0  0
   -0.4305   -0.2599    1.5041 C   0  0  0  0  0  0  0  0  0  0  0  0
   -1.9024   -0.6175    1.2135 C   0  0  0  0  0  0  0  0  0  0  0  0
   -2.2891   -1.8808    1.9876 C   0  0  0  0  0  0  0  0  0  0  0  0
   -2.1678   -0.8260   -0.2781 C   0  0  0  0  0  0  0  0  0  0  0  0
   -0.5975    0.8179   -1.3140 H   0  0  0  0  0  0  0  0  0  0  0  0
   -0.5064    1.7959    0.7677 H   0  0  0  0  0  0  0  0  0  0  0  0
   -0.3324   -0.0148    2.5710 H   0  0  0  0  0  0  0  0  0  0  0  0
    0.1932   -1.1494    1.3437 H   0  0  0  0  0  0  0  0  0  0  0  0
   -2.5470    0.1966    1.5668 H   0  0  0  0  0  0  0  0  0  0  0  0
   -1.6750   -2.7321    1.6753 H   0  0  0  0  0  0  0  0  0  0  0  0
   -3.3369   -2.1427    1.8064 H   0  0  0  0  0  0  0  0  0  0  0  0
   -2.1551   -1.7436    3.0661 H   0  0  0  0  0  0  0  0  0  0  0  0
   -1.5465   -1.6320   -0.6830 H   0  0  0  0  0  0  0  0  0  0  0  0
   -3.2169   -1.0886   -0.4525 H   0  0  0  0  0  0  0  0  0  0  0  0
   -1.9639    0.0836   -0.8506 H   0  0  0  0  0  0  0  0  0  0  0  0
    1.6151    2.5473    1.6372 N   0  0  0  0  0  0  0  0  0  0  0  0
    2.8441    3.1375    2.1166 C   0  0  2  0  0  0  0  0  0  0  0  0
    3.9695    2.6995    1.1886 C   0  0  0  0  0  0  0  0  0  0  0  0
    3.9057    1.6932    0.4855 O   0  0  0  0  0  0  0  0  0  0  0  0
    3.1322    2.7264    3.5521 C   0  0  0  0  0  0  0  0  0  0  0  0
    0.7778    3.1215    1.6655 H   0  0  0  0  0  0  0  0  0  0  0  0
    2.7192    4.2240    2.0527 H   0  0  0  0  0  0  0  0  0  0  0  0
    3.2604    1.6411    3.6360 H   0  0  0  0  0  0  0  0  0  0  0  0
    4.0486    3.1971    3.9233 H   0  0  0  0  0  0  0  0  0  0  0  0
    2.3083    3.0159    4.2133 H   0  0  0  0  0  0  0  0  0  0  0  0
    5.0704    3.5406    1.2702 N   0  0  0  0  0  0  0  0  0  0  0  0
    6.2716    3.3298    0.4964 C   0  0  0  0  0  0  0  0  0  0  0  0
    5.0284    4.3624    1.8657 H   0  0  0  0  0  0  0  0  0  0  0  0
    6.9848    2.7306    1.0814 H   0  0  0  0  0  0  0  0  0  0  0  0
    6.0204    2.7968   -0.4325 H   0  0  0  0  0  0  0  0  0  0  0  0
    6.7245    4.3016    0.2505 H   0  0  0  0  0  0  0  0  0  0  0  0
  1  3  1  0  0  0  0
  1  7  1  0  0  0  0
  1  2  2  0  0  0  0
 37 38  1  0  0  0  0
 38 46  1  0  0  0  0
 38 39  2  0  0  0  0
  8  9  1  0  0  0  0
  9 17  1  0  0  0  0
  9 10  2  0  0  0  0
 18 19  1  0  0  0  0
 19 36  1  0  0  0  0
 19 20  2  0  0  0  0
 37 40  1  0  0  0  0
  8 11  1  0  0  0  0
 22 23  1  0  0  0  0
 22 24  1  0  0  0  0
 46 47  1  0  0  0  0
 18 21  1  0  0  0  0
 21 22  1  0  0  0  0
 36 37  1  0  0  0  0
  7  8  1  0  0  0  0
 17 18  1  0  0  0  0
  3  4  1  0  0  0  0
  3  5  1  0  0  0  0
  3  6  1  0  0  0  0
 40 43  1  0  0  0  0
 40 44  1  0  0  0  0
 40 45  1  0  0  0  0
 11 14  1  0  0  0  0
 11 15  1  0  0  0  0
 11 16  1  0  0  0  0
 23 30  1  0  0  0  0
 23 31  1  0  0  0  0
 23 32  1  0  0  0  0
 24 33  1  0  0  0  0
 24 34  1  0  0  0  0
 24 35  1  0  0  0  0
 47 49  1  0  0  0  0
 47 50  1  0  0  0  0
 47 51  1  0  0  0  0
 21 27  1  0  0  0  0
 21 28  1  0  0  0  0
 37 42  1  0  0  0  0
  8 13  1  0  0  0  0
 18 26  1  0  0  0  0
 22 29  1  0  0  0  0
 46 48  1  0  0  0  0
  7 12  1  0  0  0  0
 36 41  1  0  0  0  0
 17 25  1  0  0  0  0
M  END
$$$$

  -OEChem-05262214473D

 51 50  0     1  0  0  0  0  0999 V2000
    3.4018   -1.2440   -3.0186 C   0  0  0  0  0  0  0  0  0  0  0  0
    3.2697   -2.0909   -2.1427 O   0  0  0  0  0  0  0  0  0  0  0  0
    4.6845   -1.1645   -3.7779 C   0  0  0  0  0  0  0  0  0  0  0  0
    5.4123   -0.4862   -3.3041 H   0  0  0  0  0  0  0  0  0  0  0  0
    5.1949   -2.1387   -3.8443 H   0  0  0  0  0  0  0  0  0  0  0  0
    4.5953   -0.8128   -4.8182 H   0  0  0  0  0  0  0  0  0  0  0  0
    2.4540   -0.3103   -3.4040 N   0  0  0  0  0  0  0  0  0  0  0  0
    1.1494   -0.2128   -2.8039 C   0  0  2  0  0  0  0  0  0  0  0  0
    1.3350    0.0367   -1.3130 C   0  0  0  0  0  0  0  0  0  0  0  0
    2.3625   -0.2586   -0.7063 O   0  0  0  0  0  0  0  0  0  0  0  0
    0.3331   -1.4728   -3.0467 C   0  0  0  0  0  0  0  0  0  0  0  0
    2.6924    0.3404   -4.1502 H   0  0  0  0  0  0  0  0  0  0  0  0
    0.6550    0.6514   -3.2607 H   0  0  0  0  0  0  0  0  0  0  0  0
    0.8129   -2.3494   -2.5963 H   0  0  0  0  0  0  0  0  0  0  0  0
   -0.6690   -1.3857   -2.6142 H   0  0  0  0  0  0  0  0  0  0  0  0
    0.2259   -1.6670   -4.1194 H   0  0  0  0  0  0  0  0  0  0  0  0
    0.2019    0.5893   -0.7269 N   0  0  0  0  0  0  0  0  0  0  0  0
    0.1242    0.9059    0.6756 C   0  0  2  0  0  0  0  0  0  0  0  0
    1.5359    1.2554    1.1359 C   0  0  0  0  0  0  0  0  0  0  0  0
    2.5288    0.6163    0.7940 O   0  0  0  0  0  0  0  0  0  0  0  0
   -0.4305   -0.2599    1.5041 C   0  0  0  0  0  0  0  0  0  0  0  0
   -1.9024   -0.6175    1.2135 C   0  0  0  0  0  0  0  0  0  0  0  0
   -2.2891   -1.8808    1.9876 C   0  0  0  0  0  0  0  0  0  0  0  0
   -2.1678   -0.8260   -0.2781 C   0  0  0  0  0  0  0  0  0  0  0  0
   -0.5975    0.8179   -1.3140 H   0  0  0  0  0  0  0  0  0  0  0  0
   -0.5064    1.7959    0.7677 H   0  0  0  0  0  0  0  0  0  0  0  0
   -0.3324   -0.0148    2.5710 H   0  0  0  0  0  0  0  0  0  0  0  0
    0.1932   -1.1494    1.3437 H   0  0  0  0  0  0  0  0  0  0  0  0
   -2.5470    0.1966    1.5668 H   0  0  0  0  0  0  0  0  0  0  0  0
   -1.6750   -2.7321    1.6753 H   0  0  0  0  0  0  0  0  0  0  0  0
   -3.3369   -2.1427    1.8064 H   0  0  0  0  0  0  0  0  0  0  0  0
   -2.1551   -1.7436    3.0661 H   0  0  0  0  0  0  0  0  0  0  0  0
   -1.5465   -1.6320   -0.6830 H   0  0  0  0  0  0  0  0  0  0  0  0
   -3.2169   -1.0886   -0.4525 H   0  0  0  0  0  0  0  0  0  0  0  0
   -1.9639    0.0836   -0.8506 H   0  0  0  0  0  0  0  0  0  0  0  0
    1.5576    2.3935    1.9302 N   0  0  0  0  0  0  0  0  0  0  0  0
    2.7718    2.9558    2.4763 C   0  0  2  0  0  0  0  0  0  0  0  0
    3.8588    2.8480    1.4151 C   0  0  0  0  0  0  0  0  0  0  0  0
    3.8184    2.0355    0.4935 O   0  0  0  0  0  0  0  0  0  0  0  0
    3.1865    2.2421    3.7536 C   0  0  0  0  0  0  0  0  0  0  0  0
    0.6857    2.8710    2.1383 H   0  0  0  0  0  0  0  0  0  0  0  0
    2.5661    4.0117    2.6834 H   0  0  0  0  0  0  0  0  0  0  0  0
    3.3967    1.1829    3.5660 H   0  0  0  0  0  0  0  0  0  0  0  0
    4.0905    2.6878    4.1815 H   0  0  0  0  0  0  0  0  0  0  0  0
    2.3915    2.2951    4.5053 H   0  0  0  0  0  0  0  0  0  0  0  0
    4.9004    3.7366    1.6428 N   0  0  0  0  0  0  0  0  0  0  0  0
    6.0574    3.8186    0.7822 C   0  0  0  0  0  0  0  0  0  0  0  0
    4.8413    4.3870    2.4207 H   0  0  0  0  0  0  0  0  0  0  0  0
    6.8498    3.1609    1.1686 H   0  0  0  0  0  0  0  0  0  0  0  0
    5.7813    3.5017   -0.2344 H   0  0  0  0  0  0  0  0  0  0  0  0
    6.4222    4.8560    0.7564 H   0  0  0  0  0  0  0  0  0  0  0  0
  1  3  1  0  0  0  0
  1  7  1  0  0  0  0
  1  2  2  0  0  0  0
 37 38  1  0  0  0  0
 38 46  1  0  0  0  0
 38 39  2  0  0  0  0
  8  9  1  0  0  0  0
  9 17  1  0  0  0  0
  9 10  2  0  0  0  0
 18 19  1  0  0  0  0
 19 36  1  0  0  0  0
 19 20  2  0  0  0  0
 37 40  1  0  0  0  0
  8 11  1  0  0  0  0
 22 23  1  0  0  0  0
 22 24  1  0  0  0  0
 46 47  1  0  0  0  0
 18 21  1  0  0  0  0
 21 22  1  0  0  0  0
 36 37  1  0  0  0  0
  7  8  1  0  0  0  0
 17 18  1  0  0  0  0
  3  4  1  0  0  0  0
  3  5  1  0  0  0  0
  3  6  1  0  0  0  0
 40 43  1  0  0  0  0
 40 44  1  0  0  0  0
 40 45  1  0  0  0  0
 11 14  1  0  0  0  0
 11 15  1  0  0  0  0
 11 16  1  0  0  0  0
 23 30  1  0  0  0  0
 23 31  1  0  0  0  0
 23 32  1  0  0  0  0
 24 33  1  0  0  0  0
 24 34  1  0  0  0  0
 24 35  1  0  0  0  0
 47 49  1  0  0  0  0
 47 50  1  0  0  0  0
 47 51  1  0  0  0  0
 21 27  1  0  0  0  0
 21 28  1  0  0  0  0
 37 42  1  0  0  0  0
  8 13  1  0  0  0  0
 18 26  1  0  0  0  0
 22 29  1  0  0  0  0
 46 48  1  0  0  0  0
  7 12  1  0  0  0  0
 36 41  1  0  0  0  0
 17 25  1  0  0  0  0
M  END
$$$$

  -OEChem-05262214473D

 51 50  0     1  0  0  0  0  0999 V2000
    3.4018   -1.2440   -3.0186 C   0  0  0  0  0  0  0  0  0  0  0  0
    3.2697   -2.0909   -2.1427 O   0  0  0  0  0  0  0  0  0  0  0  0
    4.6845   -1.1645   -3.7779 C   0  0  0  0  0  0  0  0  0  0  0  0
    5.4123   -0.4862   -3.3041 H   0  0  0  0  0  0  0  0  0  0  0  0
    5.1949   -2.1387   -3.8443 H   0  0  0  0  0  0  0  0  0  0  0  0
    4.5953   -0.8128   -4.8182 H   0  0  0  0  0  0  0  0  0  0  0  0
    2.4540   -0.3103   -3.4040 N   0  0  0  0  0  0  0  0  0  0  0  0
    1.1494   -0.2128   -2.8039 C   0  0  2  0  0  0  0  0  0  0  0  0
    1.3350    0.0367   -1.3130 C   0  0  0  0  0  0  0  0  0  0  0  0
    2.3625   -0.2586   -0.7063 O   0  0  0  0  0  0  0  0  0  0  0  0
    0.3331   -1.4728   -3.0467 C   0  0  0  0  0  0  0  0  0  0  0  0
    2.6924    0.3404   -4.1502 H   0  0  0  0  0  0  0  0  0  0  0  0
    0.6550    0.6514   -3.2607 H   0  0  0  0  0  0  0  0  0  0  0  0
    0.8129   -2.3494   -2.5963 H   0  0  0  0  0  0  0  0  0  0  0  0
   -0.6690   -1.3857   -2.6142 H   0  0  0  0  0  0  0  0  0  0  0  0
    0.2259   -1.6670   -4.1194 H   0  0  0  0  0  0  0  0  0  0  0  0
    0.2019    0.5893   -0.7269 N   0  0  0  0  0  0  0  0  0  0  0  0
    0.1242    0.9059    0.6756 C   0  0  2  0  0  0  0  0  0  0  0  0
    1.5359    1.2554    1.1359 C   0  0  0  0  0  0  0  0  0  0  0  0
    2.5457    0.8028    0.6006 O   0  0  0  0  0  0  0  0  0  0  0  0
   -0.4305   -0.2599    1.5041 C   0  0  0  0  0  0  0  0  0  0  0  0
   -1.9024   -0.6175    1.2135 C   0  0  0  0  0  0  0  0  0  0  0  0
   -2.2891   -1.8808    1.9876 C   0  0  0  0  0  0  0  0  0  0  0  0
   -2.1678   -0.8260   -0.2781 C   0  0  0  0  0  0  0  0  0  0  0  0
   -0.5975    0.8179   -1.3140 H   0  0  0  0  0  0  0  0  0  0  0  0
   -0.5064    1.7959    0.7677 H   0  0  0  0  0  0  0  0  0  0  0  0
   -0.3324   -0.0148    2.5710 H   0  0  0  0  0  0  0  0  0  0  0  0
    0.1932   -1.1494    1.3437 H   0  0  0  0  0  0  0  0  0  0  0  0
   -2.5470    0.1966    1.5668 H   0  0  0  0  0  0  0  0  0  0  0  0
   -1.6750   -2.7321    1.6753 H   0  0  0  0  0  0  0  0  0  0  0  0
   -3.3369   -2.1427    1.8064 H   0  0  0  0  0  0  0  0  0  0  0  0
   -2.1551   -1.7436    3.0661 H   0  0  0  0  0  0  0  0  0  0  0  0
   -1.5465   -1.6320   -0.6830 H   0  0  0  0  0  0  0  0  0  0  0  0
   -3.2169   -1.0886   -0.4525 H   0  0  0  0  0  0  0  0  0  0  0  0
   -1.9639    0.0836   -0.8506 H   0  0  0  0  0  0  0  0  0  0  0  0
    1.5315    2.1702    2.1798 N   0  0  0  0  0  0  0  0  0  0  0  0
    2.7375    2.6885    2.7846 C   0  0  2  0  0  0  0  0  0  0  0  0
    3.7538    2.9286    1.6760 C   0  0  0  0  0  0  0  0  0  0  0  0
    3.7077    2.3575    0.5885 O   0  0  0  0  0  0  0  0  0  0  0  0
    3.2886    1.7303    3.8290 C   0  0  0  0  0  0  0  0  0  0  0  0
    0.6443    2.5086    2.5403 H   0  0  0  0  0  0  0  0  0  0  0  0
    2.4722    3.6436    3.2508 H   0  0  0  0  0  0  0  0  0  0  0  0
    3.5600    0.7677    3.3805 H   0  0  0  0  0  0  0  0  0  0  0  0
    4.1861    2.1372    4.3065 H   0  0  0  0  0  0  0  0  0  0  0  0
    2.5455    1.5355    4.6098 H   0  0  0  0  0  0  0  0  0  0  0  0
    4.7429    3.8234    2.0597 N   0  0  0  0  0  0  0  0  0  0  0  0
    5.8292    4.2056    1.1880 C   0  0  0  0  0  0  0  0  0  0  0  0
    4.6915    4.2633    2.9738 H   0  0  0  0  0  0  0  0  0  0  0  0
    6.6910    3.5451    1.3639 H   0  0  0  0  0  0  0  0  0  0  0  0
    5.5070    4.1164    0.1400 H   0  0  0  0  0  0  0  0  0  0  0  0
    6.1170    5.2468    1.3958 H   0  0  0  0  0  0  0  0  0  0  0  0
  1  3  1  0  0  0  0
  1  7  1  0  0  0  0
  1  2  2  0  0  0  0
 37 38  1  0  0  0  0
 38 46  1  0  0  0  0
 38 39  2  0  0  0  0
  8  9  1  0  0  0  0
  9 17  1  0  0  0  0
  9 10  2  0  0  0  0
 18 19  1  0  0  0  0
 19 36  1  0  0  0  0
 19 20  2  0  0  0  0
 37 40  1  0  0  0  0
  8 11  1  0  0  0  0
 22 23  1  0  0  0  0
 22 24  1  0  0  0  0
 46 47  1  0  0  0  0
 18 21  1  0  0  0  0
 21 22  1  0  0  0  0
 36 37  1  0  0  0  0
  7  8  1  0  0  0  0
 17 18  1  0  0  0  0
  3  4  1  0  0  0  0
  3  5  1  0  0  0  0
  3  6  1  0  0  0  0
 40 43  1  0  0  0  0
 40 44  1  0  0  0  0
 40 45  1  0  0  0  0
 11 14  1  0  0  0  0
 11 15  1  0  0  0  0
 11 16  1  0  0  0  0
 23 30  1  0  0  0  0
 23 31  1  0  0  0  0
 23 32  1  0  0  0  0
 24 33  1  0  0  0  0
 24 34  1  0  0  0  0
 24 35  1  0  0  0  0
 47 49  1  0  0  0  0
 47 50  1  0  0  0  0
 47 51  1  0  0  0  0
 21 27  1  0  0  0  0
 21 28  1  0  0  0  0
 37 42  1  0  0  0  0
  8 13  1  0  0  0  0
 18 26  1  0  0  0  0
 22 29  1  0  0  0  0
 46 48  1  0  0  0  0
  7 12  1  0  0  0  0
 36 41  1  0  0  0  0
 17 25  1  0  0  0  0
M  END
$$$$

  -OEChem-05262214473D

 51 50  0     1  0  0  0  0  0999 V2000
    3.4018   -1.2440   -3.0186 C   0  0  0  0  0  0  0  0  0  0  0  0
    3.2697   -2.0909   -2.1427 O   0  0  0  0  0  0  0  0  0  0  0  0
    4.6845   -1.1645   -3.7779 C   0  0  0  0  0  0  0  0  0  0  0  0
    5.4123   -0.4862   -3.3041 H   0  0  0  0  0  0  0  0  0  0  0  0
    5.1949   -2.1387   -3.8443 H   0  0  0  0  0  0  0  0  0  0  0  0
    4.5953   -0.8128   -4.8182 H   0  0  0  0  0  0  0  0  0  0  0  0
    2.4540   -0.3103   -3.4040 N   0  0  0  0  0  0  0  0  0  0  0  0
    1.1494   -0.2128   -2.8039 C   0  0  2  0  0  0  0  0  0  0  0  0
    1.3350    0.0367   -1.3130 C   0  0  0  0  0  0  0  0  0  0  0  0
    2.3625   -0.2586   -0.7063 O   0  0  0  0  0  0  0  0  0  0  0  0
    0.3331   -1.4728   -3.0467 C   0  0  0  0  0  0  0  0  0  0  0  0
    2.6924    0.3404   -4.1502 H   0  0  0  0  0  0  0  0  0  0  0  0
    0.6550    0.6514   -3.2607 H   0  0  0  0  0  0  0  0  0  0  0  0
    0.8129   -2.3494   -2.5963 H   0  0  0  0  0  0  0  0  0  0  0  0
   -0.6690   -1.3857   -2.6142 H   0  0  0  0  0  0  0  0  0  0  0  0
    0.2259   -1.6670   -4.1194 H   0  0  0  0  0  0  0  0  0  0  0  0
    0.2019    0.5893   -0.7269 N   0  0  0  0  0  0  0  0  0  0  0  0
    0.1242    0.9059    0.6756 C   0  0  2  0  0  0  0  0  0  0  0  0
    1.5359    1.2554    1.1359 C   0  0  0  0  0  0  0  0  0  0  0  0
    2.5360    1.0305    0.4574 O   0  0  0  0  0  0  0  0  0  0  0  0
   -0.4305   -0.2599    1.5041 C   0  0  0  0  0  0  0  0  0  0  0  0
   -1.9024   -0.6175    1.2135 C   0  0  0  0  0  0  0  0  0  0  0  0
   -2.2891   -1.8808    1.9876 C   0  0  0  0  0  0  0  0  0  0  0  0
   -2.1678   -0.8260   -0.2781 C   0  0  0  0  0  0  0  0  0  0  0  0
   -0.5975    0.8179   -1.3140 H   0  0  0  0  0  0  0  0  0  0  0  0
   -0.5064    1.7959    0.7677 H   0  0  0  0  0  0  0  0  0  0  0  0
   -0.3324   -0.0148    2.5710 H   0  0  0  0  0  0  0  0  0  0  0  0
    0.1932   -1.1494    1.3437 H   0  0  0  0  0  0  0  0  0  0  0  0
   -2.5470    0.1966    1.5668 H   0  0  0  0  0  0  0  0  0  0  0  0
   -1.6750   -2.7321    1.6753 H   0  0  0  0  0  0  0  0  0  0  0  0
   -3.3369   -2.1427    1.8064 H   0  0  0  0  0  0  0  0  0  0  0  0
   -2.1551   -1.7436    3.0661 H   0  0  0  0  0  0  0  0  0  0  0  0
   -1.5465   -1.6320   -0.6830 H   0  0  0  0  0  0  0  0  0  0  0  0
   -3.2169   -1.0886   -0.4525 H   0  0  0  0  0  0  0  0  0  0  0  0
   -1.9639    0.0836   -0.8506 H   0  0  0  0  0  0  0  0  0  0  0  0
    1.5385    1.8927    2.3690 N   0  0  0  0  0  0  0  0  0  0  0  0
    2.7435    2.3538    3.0203 C   0  0  2  0  0  0  0  0  0  0  0  0
    3.6615    2.9358    1.9536 C   0  0  0  0  0  0  0  0  0  0  0  0
    3.5813    2.6371    0.7639 O   0  0  0  0  0  0  0  0  0  0  0  0
    3.4317    1.2259    3.7732 C   0  0  0  0  0  0  0  0  0  0  0  0
    0.6565    2.0590    2.8443 H   0  0  0  0  0  0  0  0  0  0  0  0
    2.4439    3.1449    3.7163 H   0  0  0  0  0  0  0  0  0  0  0  0
    3.7391    0.4238    3.0923 H   0  0  0  0  0  0  0  0  0  0  0  0
    4.3288    1.5830    4.2896 H   0  0  0  0  0  0  0  0  0  0  0  0
    2.7598    0.7887    4.5197 H   0  0  0  0  0  0  0  0  0  0  0  0
    4.6088    3.7951    2.4925 N   0  0  0  0  0  0  0  0  0  0  0  0
    5.6027    4.4644    1.6862 C   0  0  0  0  0  0  0  0  0  0  0  0
    4.5894    3.9996    3.4873 H   0  0  0  0  0  0  0  0  0  0  0  0
    6.5192    3.8570    1.6540 H   0  0  0  0  0  0  0  0  0  0  0  0
    5.2162    4.5991    0.6651 H   0  0  0  0  0  0  0  0  0  0  0  0
    5.8295    5.4472    2.1250 H   0  0  0  0  0  0  0  0  0  0  0  0
  1  3  1  0  0  0  0
  1  7  1  0  0  0  0
  1  2  2  0  0  0  0
 37 38  1  0  0  0  0
 38 46  1  0  0  0  0
 38 39  2  0  0  0  0
  8  9  1  0  0  0  0
  9 17  1  0  0  0  0
  9 10  2  0  0  0  0
 18 19  1  0  0  0  0
 19 36  1  0  0  0  0
 19 20  2  0  0  0  0
 37 40  1  0  0  0  0
  8 11  1  0  0  0  0
 22 23  1  0  0  0  0
 22 24  1  0  0  0  0
 46 47  1  0  0  0  0
 18 21  1  0  0  0  0
 21 22  1  0  0  0  0
 36 37  1  0  0  0  0
  7  8  1  0  0  0  0
 17 18  1  0  0  0  0
  3  4  1  0  0  0  0
  3  5  1  0  0  0  0
  3  6  1  0  0  0  0
 40 43  1  0  0  0  0
 40 44  1  0  0  0  0
 40 45  1  0  0  0  0
 11 14  1  0  0  0  0
 11 15  1  0  0  0  0
 11 16  1  0  0  0  0
 23 30  1  0  0  0  0
 23 31  1  0  0  0  0
 23 32  1  0  0  0  0
 24 33  1  0  0  0  0
 24 34  1  0  0  0  0
 24 35  1  0  0  0  0
 47 49  1  0  0  0  0
 47 50  1  0  0  0  0
 47 51  1  0  0  0  0
 21 27  1  0  0  0  0
 21 28  1  0  0  0  0
 37 42  1  0  0  0  0
  8 13  1  0  0  0  0
 18 26  1  0  0  0  0
 22 29  1  0  0  0  0
 46 48  1  0  0  0  0
  7 12  1  0  0  0  0
 36 41  1  0  0  0  0
 17 25  1  0  0  0  0
M  END
$$$$

  -OEChem-05262214473D

 51 50  0     1  0  0  0  0  0999 V2000
    3.4018   -1.2440   -3.0186 C   0  0  0  0  0  0  0  0  0  0  0  0
    3.2697   -2.0909   -2.1427 O   0  0  0  0  0  0  0  0  0  0  0  0
    4.6845   -1.1645   -3.7779 C   0  0  0  0  0  0  0  0  0  0  0  0
    5.4123   -0.4862   -3.3041 H   0  0  0  0  0  0  0  0  0  0  0  0
    5.1949   -2.1387   -3.8443 H   0  0  0  0  0  0  0  0  0  0  0  0
    4.5953   -0.8128   -4.8182 H   0  0  0  0  0  0  0  0  0  0  0  0
    2.4540   -0.3103   -3.4040 N   0  0  0  0  0  0  0  0  0  0  0  0
    1.1494   -0.2128   -2.8039 C   0  0  2  0  0  0  0  0  0  0  0  0
    1.3350    0.0367   -1.3130 C   0  0  0  0  0  0  0  0  0  0  0  0
    2.3625   -0.2586   -0.7063 O   0  0  0  0  0  0  0  0  0  0  0  0
    0.3331   -1.4728   -3.0467 C   0  0  0  0  0  0  0  0  0  0  0  0
    2.6924    0.3404   -4.1502 H   0  0  0  0  0  0  0  0  0  0  0  0
    0.6550    0.6514   -3.2607 H   0  0  0  0  0  0  0  0  0  0  0  0
    0.8129   -2.3494   -2.5963 H   0  0  0  0  0  0  0  0  0  0  0  0
   -0.6690   -1.3857   -2.6142 H   0  0  0  0  0  0  0  0  0  0  0  0
    0.2259   -1.6670   -4.1194 H   0  0  0  0  0  0  0  0  0  0  0  0
    0.2019    0.5893   -0.7269 N   0  0  0  0  0  0  0  0  0  0  0  0
    0.1242    0.9059    0.6756 C   0  0  2  0  0  0  0  0  0  0  0  0
    1.4251    1.6092    1.0499 C   0  0  0  0  0  0  0  0  0  0  0  0
    2.3075    1.8635    0.2328 O   0  0  0  0  0  0  0  0  0  0  0  0
   -0.0716   -0.3441    1.5430 C   0  0  0  0  0  0  0  0  0  0  0  0
   -1.4192   -1.0667    1.3417 C   0  0  0  0  0  0  0  0  0  0  0  0
   -1.4312   -2.3699    2.1456 C   0  0  0  0  0  0  0  0  0  0  0  0
   -1.7052   -1.3670   -0.1303 C   0  0  0  0  0  0  0  0  0  0  0  0
   -0.5975    0.8179   -1.3140 H   0  0  0  0  0  0  0  0  0  0  0  0
   -0.7047    1.6103    0.7986 H   0  0  0  0  0  0  0  0  0  0  0  0
    0.0200   -0.0595    2.6007 H   0  0  0  0  0  0  0  0  0  0  0  0
    0.7466   -1.0512    1.3522 H   0  0  0  0  0  0  0  0  0  0  0  0
   -2.2280   -0.4338    1.7268 H   0  0  0  0  0  0  0  0  0  0  0  0
   -0.6402   -3.0457    1.8034 H   0  0  0  0  0  0  0  0  0  0  0  0
   -2.3873   -2.8909    2.0279 H   0  0  0  0  0  0  0  0  0  0  0  0
   -1.2769   -2.1805    3.2134 H   0  0  0  0  0  0  0  0  0  0  0  0
   -0.9238   -1.9991   -0.5656 H   0  0  0  0  0  0  0  0  0  0  0  0
   -2.6620   -1.8888   -0.2411 H   0  0  0  0  0  0  0  0  0  0  0  0
   -1.7695   -0.4478   -0.7198 H   0  0  0  0  0  0  0  0  0  0  0  0
    1.4583    1.9626    2.3918 N   0  0  0  0  0  0  0  0  0  0  0  0
    2.5664    2.6636    2.9995 C   0  0  2  0  0  0  0  0  0  0  0  0
    3.0605    3.7103    2.0097 C   0  0  0  0  0  0  0  0  0  0  0  0
    2.8609    3.6356    0.7990 O   0  0  0  0  0  0  0  0  0  0  0  0
    3.6844    1.7061    3.3815 C   0  0  0  0  0  0  0  0  0  0  0  0
    0.6675    1.7322    2.9860 H   0  0  0  0  0  0  0  0  0  0  0  0
    2.1739    3.1615    3.8929 H   0  0  0  0  0  0  0  0  0  0  0  0
    4.0903    1.1978    2.4992 H   0  0  0  0  0  0  0  0  0  0  0  0
    4.5109    2.2349    3.8676 H   0  0  0  0  0  0  0  0  0  0  0  0
    3.3200    0.9363    4.0702 H   0  0  0  0  0  0  0  0  0  0  0  0
    3.7876    4.7152    2.6322 N   0  0  0  0  0  0  0  0  0  0  0  0
    4.3735    5.8178    1.9062 C   0  0  0  0  0  0  0  0  0  0  0  0
    3.8870    4.7071    3.6431 H   0  0  0  0  0  0  0  0  0  0  0  0
    5.4084    5.5672    1.6303 H   0  0  0  0  0  0  0  0  0  0  0  0
    3.7875    6.0095    0.9953 H   0  0  0  0  0  0  0  0  0  0  0  0
    4.3706    6.7168    2.5401 H   0  0  0  0  0  0  0  0  0  0  0  0
  1  3  1  0  0  0  0
  1  7  1  0  0  0  0
  1  2  2  0  0  0  0
 37 38  1  0  0  0  0
 38 46  1  0  0  0  0
 38 39  2  0  0  0  0
  8  9  1  0  0  0  0
  9 17  1  0  0  0  0
  9 10  2  0  0  0  0
 18 19  1  0  0  0  0
 19 36  1  0  0  0  0
 19 20  2  0  0  0  0
 37 40  1  0  0  0  0
  8 11  1  0  0  0  0
 22 23  1  0  0  0  0
 22 24  1  0  0  0  0
 46 47  1  0  0  0  0
 18 21  1  0  0  0  0
 21 22  1  0  0  0  0
 36 37  1  0  0  0  0
  7  8  1  0  0  0  0
 17 18  1  0  0  0  0
  3  4  1  0  0  0  0
  3  5  1  0  0  0  0
  3  6  1  0  0  0  0
 40 43  1  0  0  0  0
 40 44  1  0  0  0  0
 40 45  1  0  0  0  0
 11 14  1  0  0  0  0
 11 15  1  0  0  0  0
 11 16  1  0  0  0  0
 23 30  1  0  0  0  0
 23 31  1  0  0  0  0
 23 32  1  0  0  0  0
 24 33  1  0  0  0  0
 24 34  1  0  0  0  0
 24 35  1  0  0  0  0
 47 49  1  0  0  0  0
 47 50  1  0  0  0  0
 47 51  1  0  0  0  0
 21 27  1  0  0  0  0
 21 28  1  0  0  0  0
 37 42  1  0  0  0  0
  8 13  1  0  0  0  0
 18 26  1  0  0  0  0
 22 29  1  0  0  0  0
 46 48  1  0  0  0  0
  7 12  1  0  0  0  0
 36 41  1  0  0  0  0
 17 25  1  0  0  0  0
M  END
$$$$

  -OEChem-05262214473D

 51 50  0     1  0  0  0  0  0999 V2000
    3.4018   -1.2440   -3.0186 C   0  0  0  0  0  0  0  0  0  0  0  0
    3.2697   -2.0909   -2.1427 O   0  0  0  0  0  0  0  0  0  0  0  0
    4.6845   -1.1645   -3.7779 C   0  0  0  0  0  0  0  0  0  0  0  0
    5.4123   -0.4862   -3.3041 H   0  0  0  0  0  0  0  0  0  0  0  0
    5.1949   -2.1387   -3.8443 H   0  0  0  0  0  0  0  0  0  0  0  0
    4.5953   -0.8128   -4.8182 H   0  0  0  0  0  0  0  0  0  0  0  0
    2.4540   -0.3103   -3.4040 N   0  0  0  0  0  0  0  0  0  0  0  0
    1.1494   -0.2128   -2.8039 C   0  0  2  0  0  0  0  0  0  0  0  0
    1.3350    0.0367   -1.3130 C   0  0  0  0  0  0  0  0  0  0  0  0
    2.3625   -0.2586   -0.7063 O   0  0  0  0  0  0  0  0  0  0  0  0
    0.3331   -1.4728   -3.0467 C   0  0  0  0  0  0  0  0  0  0  0  0
    2.6924    0.3404   -4.1502 H   0  0  0  0  0  0  0  0  0  0  0  0
    0.6550    0.6514   -3.2607 H   0  0  0  0  0  0  0  0  0  0  0  0
    0.8129   -2.3494   -2.5963 H   0  0  0  0  0  0  0  0  0  0  0  0
   -0.6690   -1.3857   -2.6142 H   0  0  0  0  0  0  0  0  0  0  0  0
    0.2259   -1.6670   -4.1194 H   0  0  0  0  0  0  0  0  0  0  0  0
    0.2019    0.5893   -0.7269 N   0  0  0  0  0  0  0  0  0  0  0  0
    0.1242    0.9059    0.6756 C   0  0  2  0  0  0  0  0  0  0  0  0
    1.4251    1.6092    1.0499 C   0  0  0  0  0  0  0  0  0  0  0  0
    2.1833    2.1017    0.2170 O   0  0  0  0  0  0  0  0  0  0  0  0
   -0.0716   -0.3441    1.5430 C   0  0  0  0  0  0  0  0  0  0  0  0
   -1.4192   -1.0667    1.3417 C   0  0  0  0  0  0  0  0  0  0  0  0
   -1.4312   -2.3699    2.1456 C   0  0  0  0  0  0  0  0  0  0  0  0
   -1.7052   -1.3670   -0.1303 C   0  0  0  0  0  0  0  0  0  0  0  0
   -0.5975    0.8179   -1.3140 H   0  0  0  0  0  0  0  0  0  0  0  0
   -0.7047    1.6103    0.7986 H   0  0  0  0  0  0  0  0  0  0  0  0
    0.0200   -0.0595    2.6007 H   0  0  0  0  0  0  0  0  0  0  0  0
    0.7466   -1.0512    1.3522 H   0  0  0  0  0  0  0  0  0  0  0  0
   -2.2280   -0.4338    1.7268 H   0  0  0  0  0  0  0  0  0  0  0  0
   -0.6402   -3.0457    1.8034 H   0  0  0  0  0  0  0  0  0  0  0  0
   -2.3873   -2.8909    2.0279 H   0  0  0  0  0  0  0  0  0  0  0  0
   -1.2769   -2.1805    3.2134 H   0  0  0  0  0  0  0  0  0  0  0  0
   -0.9238   -1.9991   -0.5656 H   0  0  0  0  0  0  0  0  0  0  0  0
   -2.6620   -1.8888   -0.2411 H   0  0  0  0  0  0  0  0  0  0  0  0
   -1.7695   -0.4478   -0.7198 H   0  0  0  0  0  0  0  0  0  0  0  0
    1.6100    1.6647    2.4244 N   0  0  0  0  0  0  0  0  0  0  0  0
    2.7495    2.3003    3.0458 C   0  0  2  0  0  0  0  0  0  0  0  0
    3.0614    3.5716    2.2673 C   0  0  0  0  0  0  0  0  0  0  0  0
    2.7143    3.7461    1.1010 O   0  0  0  0  0  0  0  0  0  0  0  0
    3.9534    1.3717    3.0751 C   0  0  0  0  0  0  0  0  0  0  0  0
    0.9132    1.2508    3.0367 H   0  0  0  0  0  0  0  0  0  0  0  0
    2.4486    2.5610    4.0664 H   0  0  0  0  0  0  0  0  0  0  0  0
    4.2694    1.0995    2.0614 H   0  0  0  0  0  0  0  0  0  0  0  0
    4.8072    1.8444    3.5716 H   0  0  0  0  0  0  0  0  0  0  0  0
    3.7180    0.4451    3.6098 H   0  0  0  0  0  0  0  0  0  0  0  0
    3.8101    4.4704    3.0140 N   0  0  0  0  0  0  0  0  0  0  0  0
    4.2434    5.7459    2.4931 C   0  0  0  0  0  0  0  0  0  0  0  0
    4.0368    4.2510    3.9795 H   0  0  0  0  0  0  0  0  0  0  0  0
    5.2464    5.6415    2.0536 H   0  0  0  0  0  0  0  0  0  0  0  0
    3.5380    6.0850    1.7202 H   0  0  0  0  0  0  0  0  0  0  0  0
    4.2757    6.4832    3.3089 H   0  0  0  0  0  0  0  0  0  0  0  0
  1  3  1  0  0  0  0
  1  7  1  0  0  0  0
  1  2  2  0  0  0  0
 37 38  1  0  0  0  0
 38 46  1  0  0  0  0
 38 39  2  0  0  0  0
  8  9  1  0  0  0  0
  9 17  1  0  0  0  0
  9 10  2  0  0  0  0
 18 19  1  0  0  0  0
 19 36  1  0  0  0  0
 19 20  2  0  0  0  0
 37 40  1  0  0  0  0
  8 11  1  0  0  0  0
 22 23  1  0  0  0  0
 22 24  1  0  0  0  0
 46 47  1  0  0  0  0
 18 21  1  0  0  0  0
 21 22  1  0  0  0  0
 36 37  1  0  0  0  0
  7  8  1  0  0  0  0
 17 18  1  0  0  0  0
  3  4  1  0  0  0  0
  3  5  1  0  0  0  0
  3  6  1  0  0  0  0
 40 43  1  0  0  0  0
 40 44  1  0  0  0  0
 40 45  1  0  0  0  0
 11 14  1  0  0  0  0
 11 15  1  0  0  0  0
 11 16  1  0  0  0  0
 23 30  1  0  0  0  0
 23 31  1  0  0  0  0
 23 32  1  0  0  0  0
 24 33  1  0  0  0  0
 24 34  1  0  0  0  0
 24 35  1  0  0  0  0
 47 49  1  0  0  0  0
 47 50  1  0  0  0  0
 47 51  1  0  0  0  0
 21 27  1  0  0  0  0
 21 28  1  0  0  0  0
 37 42  1  0  0  0  0
  8 13  1  0  0  0  0
 18 26  1  0  0  0  0
 22 29  1  0  0  0  0
 46 48  1  0  0  0  0
  7 12  1  0  0  0  0
 36 41  1  0  0  0  0
 17 25  1  0  0  0  0
M  END
$$$$

  -OEChem-05262214473D

 51 50  0     1  0  0  0  0  0999 V2000
    3.4018   -1.2440   -3.0186 C   0  0  0  0  0  0  0  0  0  0  0  0
    3.2697   -2.0909   -2.1427 O   0  0  0  0  0  0  0  0  0  0  0  0
    4.6845   -1.1645   -3.7779 C   0  0  0  0  0  0  0  0  0  0  0  0
    5.4123   -0.4862   -3.3041 H   0  0  0  0  0  0  0  0  0  0  0  0
    5.1949   -2.1387   -3.8443 H   0  0  0  0  0  0  0  0  0  0  0  0
    4.5953   -0.8128   -4.8182 H   0  0  0  0  0  0  0  0  0  0  0  0
    2.4540   -0.3103   -3.4040 N   0  0  0  0  0  0  0  0  0  0  0  0
    1.1494   -0.2128   -2.8039 C   0  0  2  0  0  0  0  0  0  0  0  0
    1.3350    0.0367   -1.3130 C   0  0  0  0  0  0  0  0  0  0  0  0
    2.3625   -0.2586   -0.7063 O   0  0  0  0  0  0  0  0  0  0  0  0
    0.3331   -1.4728   -3.0467 C   0  0  0  0  0  0  0  0  0  0  0  0
    2.6924    0.3404   -4.1502 H   0  0  0  0  0  0  0  0  0  0  0  0
    0.6550    0.6514   -3.2607 H   0  0  0  0  0  0  0  0  0  0  0  0
    0.8129   -2.3494   -2.5963 H   0  0  0  0  0  0  0  0  0  0  0  0
   -0.6690   -1.3857   -2.6142 H   0  0  0  0  0  0  0  0  0  0  0  0
    0.2259   -1.6670   -4.1194 H   0  0  0  0  0  0  0  0  0  0  0  0
    0.2019    0.5893   -0.7269 N   0  0  0  0  0  0  0  0  0  0  0  0
    0.1242    0.9059    0.6756 C   0  0  2  0  0  0  0  0  0  0  0  0
    1.4251    1.6092    1.0499 C   0  0  0  0  0  0  0  0  0  0  0  0
    2.0462    2.3274    0.2692 O   0  0  0  0  0  0  0  0  0  0  0  0
   -0.0716   -0.3441    1.5430 C   0  0  0  0  0  0  0  0  0  0  0  0
   -1.4192   -1.0667    1.3417 C   0  0  0  0  0  0  0  0  0  0  0  0
   -1.4312   -2.3699    2.1456 C   0  0  0  0  0  0  0  0  0  0  0  0
   -1.7052   -1.3670   -0.1303 C   0  0  0  0  0  0  0  0  0  0  0  0
   -0.5975    0.8179   -1.3140 H   0  0  0  0  0  0  0  0  0  0  0  0
   -0.7047    1.6103    0.7986 H   0  0  0  0  0  0  0  0  0  0  0  0
    0.0200   -0.0595    2.6007 H   0  0  0  0  0  0  0  0  0  0  0  0
    0.7466   -1.0512    1.3522 H   0  0  0  0  0  0  0  0  0  0  0  0
   -2.2280   -0.4338    1.7268 H   0  0  0  0  0  0  0  0  0  0  0  0
   -0.6402   -3.0457    1.8034 H   0  0  0  0  0  0  0  0  0  0  0  0
   -2.3873   -2.8909    2.0279 H   0  0  0  0  0  0  0  0  0  0  0  0
   -1.2769   -2.1805    3.2134 H   0  0  0  0  0  0  0  0  0  0  0  0
   -0.9238   -1.9991   -0.5656 H   0  0  0  0  0  0  0  0  0  0  0  0
   -2.6620   -1.8888   -0.2411 H   0  0  0  0  0  0  0  0  0  0  0  0
   -1.7695   -0.4478   -0.7198 H   0  0  0  0  0  0  0  0  0  0  0  0
    1.7793    1.3793    2.3721 N   0  0  0  0  0  0  0  0  0  0  0  0
    2.9549    1.9508    2.9885 C   0  0  2  0  0  0  0  0  0  0  0  0
    3.1017    3.3808    2.4854 C   0  0  0  0  0  0  0  0  0  0  0  0
    2.6016    3.7768    1.4346 O   0  0  0  0  0  0  0  0  0  0  0  0
    4.1979    1.1334    2.6732 C   0  0  0  0  0  0  0  0  0  0  0  0
    1.1872    0.7902    2.9500 H   0  0  0  0  0  0  0  0  0  0  0  0
    2.7729    1.9600    4.0687 H   0  0  0  0  0  0  0  0  0  0  0  0
    4.3964    1.1126    1.5954 H   0  0  0  0  0  0  0  0  0  0  0  0
    5.0829    1.5514    3.1642 H   0  0  0  0  0  0  0  0  0  0  0  0
    4.0788    0.0976    3.0091 H   0  0  0  0  0  0  0  0  0  0  0  0
    3.8929    4.1512    3.3260 N   0  0  0  0  0  0  0  0  0  0  0  0
    4.1924    5.5388    3.0597 C   0  0  0  0  0  0  0  0  0  0  0  0
    4.2506    3.7457    4.1859 H   0  0  0  0  0  0  0  0  0  0  0  0
    5.1357    5.6096    2.4982 H   0  0  0  0  0  0  0  0  0  0  0  0
    3.3788    5.9821    2.4667 H   0  0  0  0  0  0  0  0  0  0  0  0
    4.2906    6.0818    4.0112 H   0  0  0  0  0  0  0  0  0  0  0  0
  1  3  1  0  0  0  0
  1  7  1  0  0  0  0
  1  2  2  0  0  0  0
 37 38  1  0  0  0  0
 38 46  1  0  0  0  0
 38 39  2  0  0  0  0
  8  9  1  0  0  0  0
  9 17  1  0  0  0  0
  9 10  2  0  0  0  0
 18 19  1  0  0  0  0
 19 36  1  0  0  0  0
 19 20  2  0  0  0  0
 37 40  1  0  0  0  0
  8 11  1  0  0  0  0
 22 23  1  0  0  0  0
 22 24  1  0  0  0  0
 46 47  1  0  0  0  0
 18 21  1  0  0  0  0
 21 22  1  0  0  0  0
 36 37  1  0  0  0  0
  7  8  1  0  0  0  0
 17 18  1  0  0  0  0
  3  4  1  0  0  0  0
  3  5  1  0  0  0  0
  3  6  1  0  0  0  0
 40 43  1  0  0  0  0
 40 44  1  0  0  0  0
 40 45  1  0  0  0  0
 11 14  1  0  0  0  0
 11 15  1  0  0  0  0
 11 16  1  0  0  0  0
 23 30  1  0  0  0  0
 23 31  1  0  0  0  0
 23 32  1  0  0  0  0
 24 33  1  0  0  0  0
 24 34  1  0  0  0  0
 24 35  1  0  0  0  0
 47 49  1  0  0  0  0
 47 50  1  0  0  0  0
 47 51  1  0  0  0  0
 21 27  1  0  0  0  0
 21 28  1  0  0  0  0
 37 42  1  0  0  0  0
  8 13  1  0  0  0  0
 18 26  1  0  0  0  0
 22 29  1  0  0  0  0
 46 48  1  0  0  0  0
  7 12  1  0  0  0  0
 36 41  1  0  0  0  0
 17 25  1  0  0  0  0
M  END
$$$$

  -OEChem-05262214473D

 51 50  0     1  0  0  0  0  0999 V2000
    3.4018   -1.2440   -3.0186 C   0  0  0  0  0  0  0  0  0  0  0  0
    3.2697   -2.0909   -2.1427 O   0  0  0  0  0  0  0  0  0  0  0  0
    4.6845   -1.1645   -3.7779 C   0  0  0  0  0  0  0  0  0  0  0  0
    5.4123   -0.4862   -3.3041 H   0  0  0  0  0  0  0  0  0  0  0  0
    5.1949   -2.1387   -3.8443 H   0  0  0  0  0  0  0  0  0  0  0  0
    4.5953   -0.8128   -4.8182 H   0  0  0  0  0  0  0  0  0  0  0  0
    2.4540   -0.3103   -3.4040 N   0  0  0  0  0  0  0  0  0  0  0  0
    1.1494   -0.2128   -2.8039 C   0  0  2  0  0  0  0  0  0  0  0  0
    1.3350    0.0367   -1.3130 C   0  0  0  0  0  0  0  0  0  0  0  0
    2.3625   -0.2586   -0.7063 O   0  0  0  0  0  0  0  0  0  0  0  0
    0.3331   -1.4728   -3.0467 C   0  0  0  0  0  0  0  0  0  0  0  0
    2.6924    0.3404   -4.1502 H   0  0  0  0  0  0  0  0  0  0  0  0
    0.6550    0.6514   -3.2607 H   0  0  0  0  0  0  0  0  0  0  0  0
    0.8129   -2.3494   -2.5963 H   0  0  0  0  0  0  0  0  0  0  0  0
   -0.6690   -1.3857   -2.6142 H   0  0  0  0  0  0  0  0  0  0  0  0
    0.2259   -1.6670   -4.1194 H   0  0  0  0  0  0  0  0  0  0  0  0
    0.2019    0.5893   -0.7269 N   0  0  0  0  0  0  0  0  0  0  0  0
    0.1242    0.9059    0.6756 C   0  0  2  0  0  0  0  0  0  0  0  0
    1.4251    1.6092    1.0499 C   0  0  0  0  0  0  0  0  0  0  0  0
    1.9057    2.5253    0.3858 O   0  0  0  0  0  0  0  0  0  0  0  0
   -0.0716   -0.3441    1.5430 C   0  0  0  0  0  0  0  0  0  0  0  0
   -1.4192   -1.0667    1.3417 C   0  0  0  0  0  0  0  0  0  0  0  0
   -1.4312   -2.3699    2.1456 C   0  0  0  0  0  0  0  0  0  0  0  0
   -1.7052   -1.3670   -0.1303 C   0  0  0  0  0  0  0  0  0  0  0  0
   -0.5975    0.8179   -1.3140 H   0  0  0  0  0  0  0  0  0  0  0  0
   -0.7047    1.6103    0.7986 H   0  0  0  0  0  0  0  0  0  0  0  0
    0.0200   -0.0595    2.6007 H   0  0  0  0  0  0  0  0  0  0  0  0
    0.7466   -1.0512    1.3522 H   0  0  0  0  0  0  0  0  0  0  0  0
   -2.2280   -0.4338    1.7268 H   0  0  0  0  0  0  0  0  0  0  0  0
   -0.6402   -3.0457    1.8034 H   0  0  0  0  0  0  0  0  0  0  0  0
   -2.3873   -2.8909    2.0279 H   0  0  0  0  0  0  0  0  0  0  0  0
   -1.2769   -2.1805    3.2134 H   0  0  0  0  0  0  0  0  0  0  0  0
   -0.9238   -1.9991   -0.5656 H   0  0  0  0  0  0  0  0  0  0  0  0
   -2.6620   -1.8888   -0.2411 H   0  0  0  0  0  0  0  0  0  0  0  0
   -1.7695   -0.4478   -0.7198 H   0  0  0  0  0  0  0  0  0  0  0  0
    1.9547    1.1260    2.2384 N   0  0  0  0  0  0  0  0  0  0  0  0
    3.1687    1.6389    2.8315 C   0  0  2  0  0  0  0  0  0  0  0  0
    3.1789    3.1509    2.6491 C   0  0  0  0  0  0  0  0  0  0  0  0
    2.5307    3.7257    1.7770 O   0  0  0  0  0  0  0  0  0  0  0  0
    4.4013    1.0074    2.2032 C   0  0  0  0  0  0  0  0  0  0  0  0
    1.4707    0.3819    2.7319 H   0  0  0  0  0  0  0  0  0  0  0  0
    3.1245    1.3996    3.8996 H   0  0  0  0  0  0  0  0  0  0  0  0
    4.4627    1.2362    1.1330 H   0  0  0  0  0  0  0  0  0  0  0  0
    5.3191    1.3758    2.6732 H   0  0  0  0  0  0  0  0  0  0  0  0
    4.3776   -0.0826    2.3092 H   0  0  0  0  0  0  0  0  0  0  0  0
    4.0304    3.7792    3.5471 N   0  0  0  0  0  0  0  0  0  0  0  0
    4.2239    5.2103    3.5672 C   0  0  0  0  0  0  0  0  0  0  0  0
    4.5138    3.2257    4.2483 H   0  0  0  0  0  0  0  0  0  0  0  0
    5.0839    5.4736    2.9339 H   0  0  0  0  0  0  0  0  0  0  0  0
    3.3207    5.7078    3.1841 H   0  0  0  0  0  0  0  0  0  0  0  0
    4.4143    5.5400    4.5993 H   0  0  0  0  0  0  0  0  0  0  0  0
  1  3  1  0  0  0  0
  1  7  1  0  0  0  0
  1  2  2  0  0  0  0
 37 38  1  0  0  0  0
 38 46  1  0  0  0  0
 38 39  2  0  0  0  0
  8  9  1  0  0  0  0
  9 17  1  0  0  0  0
  9 10  2  0  0  0  0
 18 19  1  0  0  0  0
 19 36  1  0  0  0  0
 19 20  2  0  0  0  0
 37 40  1  0  0  0  0
  8 11  1  0  0  0  0
 22 23  1  0  0  0  0
 22 24  1  0  0  0  0
 46 47  1  0  0  0  0
 18 21  1  0  0  0  0
 21 22  1  0  0  0  0
 36 37  1  0  0  0  0
  7  8  1  0  0  0  0
 17 18  1  0  0  0  0
  3  4  1  0  0  0  0
  3  5  1  0  0  0  0
  3  6  1  0  0  0  0
 40 43  1  0  0  0  0
 40 44  1  0  0  0  0
 40 45  1  0  0  0  0
 11 14  1  0  0  0  0
 11 15  1  0  0  0  0
 11 16  1  0  0  0  0
 23 30  1  0  0  0  0
 23 31  1  0  0  0  0
 23 32  1  0  0  0  0
 24 33  1  0  0  0  0
 24 34  1  0  0  0  0
 24 35  1  0  0  0  0
 47 49  1  0  0  0  0
 47 50  1  0  0  0  0
 47 51  1  0  0  0  0
 21 27  1  0  0  0  0
 21 28  1  0  0  0  0
 37 42  1  0  0  0  0
  8 13  1  0  0  0  0
 18 26  1  0  0  0  0
 22 29  1  0  0  0  0
 46 48  1  0  0  0  0
  7 12  1  0  0  0  0
 36 41  1  0  0  0  0
 17 25  1  0  0  0  0
M  END
$$$$

  -OEChem-05262214473D

 51 50  0     1  0  0  0  0  0999 V2000
    3.4018   -1.2440   -3.0186 C   0  0  0  0  0  0  0  0  0  0  0  0
    3.2697   -2.0909   -2.1427 O   0  0  0  0  0  0  0  0  0  0  0  0
    4.6845   -1.1645   -3.7779 C   0  0  0  0  0  0  0  0  0  0  0  0
    5.4123   -0.4862   -3.3041 H   0  0  0  0  0  0  0  0  0  0  0  0
    5.1949   -2.1387   -3.8443 H   0  0  0  0  0  0  0  0  0  0  0  0
    4.5953   -0.8128   -4.8182 H   0  0  0  0  0  0  0  0  0  0  0  0
    2.4540   -0.3103   -3.4040 N   0  0  0  0  0  0  0  0  0  0  0  0
    1.1494   -0.2128   -2.8039 C   0  0  2  0  0  0  0  0  0  0  0  0
    1.3350    0.0367   -1.3130 C   0  0  0  0  0  0  0  0  0  0  0  0
    2.3625   -0.2586   -0.7063 O   0  0  0  0  0  0  0  0  0  0  0  0
    0.3331   -1.4728   -3.0467 C   0  0  0  0  0  0  0  0  0  0  0  0
    2.6924    0.3404   -4.1502 H   0  0  0  0  0  0  0  0  0  0  0  0
    0.6550    0.6514   -3.2607 H   0  0  0  0  0  0  0  0  0  0  0  0
    0.8129   -2.3494   -2.5963 H   0  0  0  0  0  0  0  0  0  0  0  0
   -0.6690   -1.3857   -2.6142 H   0  0  0  0  0  0  0  0  0  0  0  0
    0.2259   -1.6670   -4.1194 H   0  0  0  0  0  0  0  0  0  0  0  0
    0.2019    0.5893   -0.7269 N   0  0  0  0  0  0  0  0  0  0  0  0
    0.1242    0.9059    0.6756 C   0  0  2  0  0  0  0  0  0  0  0  0
    1.4251    1.6092    1.0499 C   0  0  0  0  0  0  0  0  0  0  0  0
    1.7713    2.6817    0.5589 O   0  0  0  0  0  0  0  0  0  0  0  0
   -0.0716   -0.3441    1.5430 C   0  0  0  0  0  0  0  0  0  0  0  0
   -1.4192   -1.0667    1.3417 C   0  0  0  0  0  0  0  0  0  0  0  0
   -1.4312   -2.3699    2.1456 C   0  0  0  0  0  0  0  0  0  0  0  0
   -1.7052   -1.3670   -0.1303 C   0  0  0  0  0  0  0  0  0  0  0  0
   -0.5975    0.8179   -1.3140 H   0  0  0  0  0  0  0  0  0  0  0  0
   -0.7047    1.6103    0.7986 H   0  0  0  0  0  0  0  0  0  0  0  0
    0.0200   -0.0595    2.6007 H   0  0  0  0  0  0  0  0  0  0  0  0
    0.7466   -1.0512    1.3522 H   0  0  0  0  0  0  0  0  0  0  0  0
   -2.2280   -0.4338    1.7268 H   0  0  0  0  0  0  0  0  0  0  0  0
   -0.6402   -3.0457    1.8034 H   0  0  0  0  0  0  0  0  0  0  0  0
   -2.3873   -2.8909    2.0279 H   0  0  0  0  0  0  0  0  0  0  0  0
   -1.2769   -2.1805    3.2134 H   0  0  0  0  0  0  0  0  0  0  0  0
   -0.9238   -1.9991   -0.5656 H   0  0  0  0  0  0  0  0  0  0  0  0
   -2.6620   -1.8888   -0.2411 H   0  0  0  0  0  0  0  0  0  0  0  0
   -1.7695   -0.4478   -0.7198 H   0  0  0  0  0  0  0  0  0  0  0  0
    2.1243    0.9220    2.0324 N   0  0  0  0  0  0  0  0  0  0  0  0
    3.3763    1.3859    2.5855 C   0  0  2  0  0  0  0  0  0  0  0  0
    3.2876    2.8977    2.7474 C   0  0  0  0  0  0  0  0  0  0  0  0
    2.5063    3.5963    2.1050 O   0  0  0  0  0  0  0  0  0  0  0  0
    4.5496    1.0023    1.6972 C   0  0  0  0  0  0  0  0  0  0  0  0
    1.7445    0.0536    2.3973 H   0  0  0  0  0  0  0  0  0  0  0  0
    3.4796    0.9180    3.5706 H   0  0  0  0  0  0  0  0  0  0  0  0
    4.4636    1.4618    0.7058 H   0  0  0  0  0  0  0  0  0  0  0  0
    5.4999    1.3295    2.1318 H   0  0  0  0  0  0  0  0  0  0  0  0
    4.5942   -0.0832    1.5577 H   0  0  0  0  0  0  0  0  0  0  0  0
    4.2132    3.3798    3.6621 N   0  0  0  0  0  0  0  0  0  0  0  0
    4.3357    4.7831    3.9813 C   0  0  0  0  0  0  0  0  0  0  0  0
    4.8086    2.7263    4.1623 H   0  0  0  0  0  0  0  0  0  0  0  0
    5.0945    5.2427    3.3308 H   0  0  0  0  0  0  0  0  0  0  0  0
    3.3675    5.2808    3.8235 H   0  0  0  0  0  0  0  0  0  0  0  0
    4.6383    4.8947    5.0330 H   0  0  0  0  0  0  0  0  0  0  0  0
  1  3  1  0  0  0  0
  1  7  1  0  0  0  0
  1  2  2  0  0  0  0
 37 38  1  0  0  0  0
 38 46  1  0  0  0  0
 38 39  2  0  0  0  0
  8  9  1  0  0  0  0
  9 17  1  0  0  0  0
  9 10  2  0  0  0  0
 18 19  1  0  0  0  0
 19 36  1  0  0  0  0
 19 20  2  0  0  0  0
 37 40  1  0  0  0  0
  8 11  1  0  0  0  0
 22 23  1  0  0  0  0
 22 24  1  0  0  0  0
 46 47  1  0  0  0  0
 18 21  1  0  0  0  0
 21 22  1  0  0  0  0
 36 37  1  0  0  0  0
  7  8  1  0  0  0  0
 17 18  1  0  0  0  0
  3  4  1  0  0  0  0
  3  5  1  0  0  0  0
  3  6  1  0  0  0  0
 40 43  1  0  0  0  0
 40 44  1  0  0  0  0
 40 45  1  0  0  0  0
 11 14  1  0  0  0  0
 11 15  1  0  0  0  0
 11 16  1  0  0  0  0
 23 30  1  0  0  0  0
 23 31  1  0  0  0  0
 23 32  1  0  0  0  0
 24 33  1  0  0  0  0
 24 34  1  0  0  0  0
 24 35  1  0  0  0  0
 47 49  1  0  0  0  0
 47 50  1  0  0  0  0
 47 51  1  0  0  0  0
 21 27  1  0  0  0  0
 21 28  1  0  0  0  0
 37 42  1  0  0  0  0
  8 13  1  0  0  0  0
 18 26  1  0  0  0  0
 22 29  1  0  0  0  0
 46 48  1  0  0  0  0
  7 12  1  0  0  0  0
 36 41  1  0  0  0  0
 17 25  1  0  0  0  0
M  END
$$$$

  -OEChem-05262214473D

 51 50  0     1  0  0  0  0  0999 V2000
    3.4018   -1.2440   -3.0186 C   0  0  0  0  0  0  0  0  0  0  0  0
    3.2697   -2.0909   -2.1427 O   0  0  0  0  0  0  0  0  0  0  0  0
    4.6845   -1.1645   -3.7779 C   0  0  0  0  0  0  0  0  0  0  0  0
    5.4123   -0.4862   -3.3041 H   0  0  0  0  0  0  0  0  0  0  0  0
    5.1949   -2.1387   -3.8443 H   0  0  0  0  0  0  0  0  0  0  0  0
    4.5953   -0.8128   -4.8182 H   0  0  0  0  0  0  0  0  0  0  0  0
    2.4540   -0.3103   -3.4040 N   0  0  0  0  0  0  0  0  0  0  0  0
    1.1494   -0.2128   -2.8039 C   0  0  2  0  0  0  0  0  0  0  0  0
    1.3350    0.0367   -1.3130 C   0  0  0  0  0  0  0  0  0  0  0  0
    2.3625   -0.2586   -0.7063 O   0  0  0  0  0  0  0  0  0  0  0  0
    0.3331   -1.4728   -3.0467 C   0  0  0  0  0  0  0  0  0  0  0  0
    2.6924    0.3404   -4.1502 H   0  0  0  0  0  0  0  0  0  0  0  0
    0.6550    0.6514   -3.2607 H   0  0  0  0  0  0  0  0  0  0  0  0
    0.8129   -2.3494   -2.5963 H   0  0  0  0  0  0  0  0  0  0  0  0
   -0.6690   -1.3857   -2.6142 H   0  0  0  0  0  0  0  0  0  0  0  0
    0.2259   -1.6670   -4.1194 H   0  0  0  0  0  0  0  0  0  0  0  0
    0.2019    0.5893   -0.7269 N   0  0  0  0  0  0  0  0  0  0  0  0
    0.1242    0.9059    0.6756 C   0  0  2  0  0  0  0  0  0  0  0  0
    1.4251    1.6092    1.0499 C   0  0  0  0  0  0  0  0  0  0  0  0
    1.6523    2.7860    0.7766 O   0  0  0  0  0  0  0  0  0  0  0  0
   -0.0716   -0.3441    1.5430 C   0  0  0  0  0  0  0  0  0  0  0  0
   -1.4192   -1.0667    1.3417 C   0  0  0  0  0  0  0  0  0  0  0  0
   -1.4312   -2.3699    2.1456 C   0  0  0  0  0  0  0  0  0  0  0  0
   -1.7052   -1.3670   -0.1303 C   0  0  0  0  0  0  0  0  0  0  0  0
   -0.5975    0.8179   -1.3140 H   0  0  0  0  0  0  0  0  0  0  0  0
   -0.7047    1.6103    0.7986 H   0  0  0  0  0  0  0  0  0  0  0  0
    0.0200   -0.0595    2.6007 H   0  0  0  0  0  0  0  0  0  0  0  0
    0.7466   -1.0512    1.3522 H   0  0  0  0  0  0  0  0  0  0  0  0
   -2.2280   -0.4338    1.7268 H   0  0  0  0  0  0  0  0  0  0  0  0
   -0.6402   -3.0457    1.8034 H   0  0  0  0  0  0  0  0  0  0  0  0
   -2.3873   -2.8909    2.0279 H   0  0  0  0  0  0  0  0  0  0  0  0
   -1.2769   -2.1805    3.2134 H   0  0  0  0  0  0  0  0  0  0  0  0
   -0.9238   -1.9991   -0.5656 H   0  0  0  0  0  0  0  0  0  0  0  0
   -2.6620   -1.8888   -0.2411 H   0  0  0  0  0  0  0  0  0  0  0  0
   -1.7695   -0.4478   -0.7198 H   0  0  0  0  0  0  0  0  0  0  0  0
    2.2765    0.7812    1.7682 N   0  0  0  0  0  0  0  0  0  0  0  0
    3.5636    1.2090    2.2673 C   0  0  2  0  0  0  0  0  0  0  0  0
    3.4203    2.6382    2.7734 C   0  0  0  0  0  0  0  0  0  0  0  0
    2.5301    3.3974    2.3961 O   0  0  0  0  0  0  0  0  0  0  0  0
    4.6328    1.1186    1.1896 C   0  0  0  0  0  0  0  0  0  0  0  0
    1.9899   -0.1723    1.9690 H   0  0  0  0  0  0  0  0  0  0  0  0
    3.8139    0.5479    3.1041 H   0  0  0  0  0  0  0  0  0  0  0  0
    4.3992    1.7741    0.3428 H   0  0  0  0  0  0  0  0  0  0  0  0
    5.6129    1.4158    1.5772 H   0  0  0  0  0  0  0  0  0  0  0  0
    4.7138    0.0959    0.8058 H   0  0  0  0  0  0  0  0  0  0  0  0
    4.4289    2.9803    3.6633 N   0  0  0  0  0  0  0  0  0  0  0  0
    4.5203    4.2861    4.2736 C   0  0  0  0  0  0  0  0  0  0  0  0
    5.1147    2.2816    3.9338 H   0  0  0  0  0  0  0  0  0  0  0  0
    5.1667    4.9328    3.6621 H   0  0  0  0  0  0  0  0  0  0  0  0
    3.5162    4.7302    4.3413 H   0  0  0  0  0  0  0  0  0  0  0  0
    4.9475    4.1900    5.2827 H   0  0  0  0  0  0  0  0  0  0  0  0
  1  3  1  0  0  0  0
  1  7  1  0  0  0  0
  1  2  2  0  0  0  0
 37 38  1  0  0  0  0
 38 46  1  0  0  0  0
 38 39  2  0  0  0  0
  8  9  1  0  0  0  0
  9 17  1  0  0  0  0
  9 10  2  0  0  0  0
 18 19  1  0  0  0  0
 19 36  1  0  0  0  0
 19 20  2  0  0  0  0
 37 40  1  0  0  0  0
  8 11  1  0  0  0  0
 22 23  1  0  0  0  0
 22 24  1  0  0  0  0
 46 47  1  0  0  0  0
 18 21  1  0  0  0  0
 21 22  1  0  0  0  0
 36 37  1  0  0  0  0
  7  8  1  0  0  0  0
 17 18  1  0  0  0  0
  3  4  1  0  0  0  0
  3  5  1  0  0  0  0
  3  6  1  0  0  0  0
 40 43  1  0  0  0  0
 40 44  1  0  0  0  0
 40 45  1  0  0  0  0
 11 14  1  0  0  0  0
 11 15  1  0  0  0  0
 11 16  1  0  0  0  0
 23 30  1  0  0  0  0
 23 31  1  0  0  0  0
 23 32  1  0  0  0  0
 24 33  1  0  0  0  0
 24 34  1  0  0  0  0
 24 35  1  0  0  0  0
 47 49  1  0  0  0  0
 47 50  1  0  0  0  0
 47 51  1  0  0  0  0
 21 27  1  0  0  0  0
 21 28  1  0  0  0  0
 37 42  1  0  0  0  0
  8 13  1  0  0  0  0
 18 26  1  0  0  0  0
 22 29  1  0  0  0  0
 46 48  1  0  0  0  0
  7 12  1  0  0  0  0
 36 41  1  0  0  0  0
 17 25  1  0  0  0  0
M  END
$$$$

  -OEChem-05262214473D

 51 50  0     1  0  0  0  0  0999 V2000
    3.4018   -1.2440   -3.0186 C   0  0  0  0  0  0  0  0  0  0  0  0
    3.2697   -2.0909   -2.1427 O   0  0  0  0  0  0  0  0  0  0  0  0
    4.6845   -1.1645   -3.7779 C   0  0  0  0  0  0  0  0  0  0  0  0
    5.4123   -0.4862   -3.3041 H   0  0  0  0  0  0  0  0  0  0  0  0
    5.1949   -2.1387   -3.8443 H   0  0  0  0  0  0  0  0  0  0  0  0
    4.5953   -0.8128   -4.8182 H   0  0  0  0  0  0  0  0  0  0  0  0
    2.4540   -0.3103   -3.4040 N   0  0  0  0  0  0  0  0  0  0  0  0
    1.1494   -0.2128   -2.8039 C   0  0  2  0  0  0  0  0  0  0  0  0
    1.3350    0.0367   -1.3130 C   0  0  0  0  0  0  0  0  0  0  0  0
    2.3625   -0.2586   -0.7063 O   0  0  0  0  0  0  0  0  0  0  0  0
    0.3331   -1.4728   -3.0467 C   0  0  0  0  0  0  0  0  0  0  0  0
    2.6924    0.3404   -4.1502 H   0  0  0  0  0  0  0  0  0  0  0  0
    0.6550    0.6514   -3.2607 H   0  0  0  0  0  0  0  0  0  0  0  0
    0.8129   -2.3494   -2.5963 H   0  0  0  0  0  0  0  0  0  0  0  0
   -0.6690   -1.3857   -2.6142 H   0  0  0  0  0  0  0  0  0  0  0  0
    0.2259   -1.6670   -4.1194 H   0  0  0  0  0  0  0  0  0  0  0  0
    0.2019    0.5893   -0.7269 N   0  0  0  0  0  0  0  0  0  0  0  0
    0.1242    0.9059    0.6756 C   0  0  2  0  0  0  0  0  0  0  0  0
    1.4251    1.6092    1.0499 C   0  0  0  0  0  0  0  0  0  0  0  0
    1.5566    2.8312    1.0241 O   0  0  0  0  0  0  0  0  0  0  0  0
   -0.0716   -0.3441    1.5430 C   0  0  0  0  0  0  0  0  0  0  0  0
   -1.4192   -1.0667    1.3417 C   0  0  0  0  0  0  0  0  0  0  0  0
   -1.4312   -2.3699    2.1456 C   0  0  0  0  0  0  0  0  0  0  0  0
   -1.7052   -1.3670   -0.1303 C   0  0  0  0  0  0  0  0  0  0  0  0
   -0.5975    0.8179   -1.3140 H   0  0  0  0  0  0  0  0  0  0  0  0
   -0.7047    1.6103    0.7986 H   0  0  0  0  0  0  0  0  0  0  0  0
    0.0200   -0.0595    2.6007 H   0  0  0  0  0  0  0  0  0  0  0  0
    0.7466   -1.0512    1.3522 H   0  0  0  0  0  0  0  0  0  0  0  0
   -2.2280   -0.4338    1.7268 H   0  0  0  0  0  0  0  0  0  0  0  0
   -0.6402   -3.0457    1.8034 H   0  0  0  0  0  0  0  0  0  0  0  0
   -2.3873   -2.8909    2.0279 H   0  0  0  0  0  0  0  0  0  0  0  0
   -1.2769   -2.1805    3.2134 H   0  0  0  0  0  0  0  0  0  0  0  0
   -0.9238   -1.9991   -0.5656 H   0  0  0  0  0  0  0  0  0  0  0  0
   -2.6620   -1.8888   -0.2411 H   0  0  0  0  0  0  0  0  0  0  0  0
   -1.7695   -0.4478   -0.7198 H   0  0  0  0  0  0  0  0  0  0  0  0
    2.4009    0.7131    1.4637 N   0  0  0  0  0  0  0  0  0  0  0  0
    3.7177    1.1202    1.8984 C   0  0  2  0  0  0  0  0  0  0  0  0
    3.5682    2.3904    2.7254 C   0  0  0  0  0  0  0  0  0  0  0  0
    2.6004    3.1424    2.6306 O   0  0  0  0  0  0  0  0  0  0  0  0
    4.6453    1.3481    0.7151 C   0  0  0  0  0  0  0  0  0  0  0  0
    2.1902   -0.2804    1.4761 H   0  0  0  0  0  0  0  0  0  0  0  0
    4.1047    0.3147    2.5320 H   0  0  0  0  0  0  0  0  0  0  0  0
    4.2739    2.1518    0.0688 H   0  0  0  0  0  0  0  0  0  0  0  0
    5.6503    1.6288    1.0470 H   0  0  0  0  0  0  0  0  0  0  0  0
    4.7282    0.4424    0.1048 H   0  0  0  0  0  0  0  0  0  0  0  0
    4.6627    2.6078    3.5505 N   0  0  0  0  0  0  0  0  0  0  0  0
    4.7651    3.7533    4.4242 C   0  0  0  0  0  0  0  0  0  0  0  0
    5.4114    1.9220    3.5785 H   0  0  0  0  0  0  0  0  0  0  0  0
    5.2957    4.5650    3.9050 H   0  0  0  0  0  0  0  0  0  0  0  0
    3.7566    4.0936    4.7021 H   0  0  0  0  0  0  0  0  0  0  0  0
    5.3207    3.4737    5.3315 H   0  0  0  0  0  0  0  0  0  0  0  0
  1  3  1  0  0  0  0
  1  7  1  0  0  0  0
  1  2  2  0  0  0  0
 37 38  1  0  0  0  0
 38 46  1  0  0  0  0
 38 39  2  0  0  0  0
  8  9  1  0  0  0  0
  9 17  1  0  0  0  0
  9 10  2  0  0  0  0
 18 19  1  0  0  0  0
 19 36  1  0  0  0  0
 19 20  2  0  0  0  0
 37 40  1  0  0  0  0
  8 11  1  0  0  0  0
 22 23  1  0  0  0  0
 22 24  1  0  0  0  0
 46 47  1  0  0  0  0
 18 21  1  0  0  0  0
 21 22  1  0  0  0  0
 36 37  1  0  0  0  0
  7  8  1  0  0  0  0
 17 18  1  0  0  0  0
  3  4  1  0  0  0  0
  3  5  1  0  0  0  0
  3  6  1  0  0  0  0
 40 43  1  0  0  0  0
 40 44  1  0  0  0  0
 40 45  1  0  0  0  0
 11 14  1  0  0  0  0
 11 15  1  0  0  0  0
 11 16  1  0  0  0  0
 23 30  1  0  0  0  0
 23 31  1  0  0  0  0
 23 32  1  0  0  0  0
 24 33  1  0  0  0  0
 24 34  1  0  0  0  0
 24 35  1  0  0  0  0
 47 49  1  0  0  0  0
 47 50  1  0  0  0  0
 47 51  1  0  0  0  0
 21 27  1  0  0  0  0
 21 28  1  0  0  0  0
 37 42  1  0  0  0  0
  8 13  1  0  0  0  0
 18 26  1  0  0  0  0
 22 29  1  0  0  0  0
 46 48  1  0  0  0  0
  7 12  1  0  0  0  0
 36 41  1  0  0  0  0
 17 25  1  0  0  0  0
M  END
$$$$

  -OEChem-05262214473D

 51 50  0     1  0  0  0  0  0999 V2000
    3.4018   -1.2440   -3.0186 C   0  0  0  0  0  0  0  0  0  0  0  0
    3.2697   -2.0909   -2.1427 O   0  0  0  0  0  0  0  0  0  0  0  0
    4.6845   -1.1645   -3.7779 C   0  0  0  0  0  0  0  0  0  0  0  0
    5.4123   -0.4862   -3.3041 H   0  0  0  0  0  0  0  0  0  0  0  0
    5.1949   -2.1387   -3.8443 H   0  0  0  0  0  0  0  0  0  0  0  0
    4.5953   -0.8128   -4.8182 H   0  0  0  0  0  0  0  0  0  0  0  0
    2.4540   -0.3103   -3.4040 N   0  0  0  0  0  0  0  0  0  0  0  0
    1.1494   -0.2128   -2.8039 C   0  0  2  0  0  0  0  0  0  0  0  0
    1.3350    0.0367   -1.3130 C   0  0  0  0  0  0  0  0  0  0  0  0
    2.3625   -0.2586   -0.7063 O   0  0  0  0  0  0  0  0  0  0  0  0
    0.3331   -1.4728   -3.0467 C   0  0  0  0  0  0  0  0  0  0  0  0
    2.6924    0.3404   -4.1502 H   0  0  0  0  0  0  0  0  0  0  0  0
    0.6550    0.6514   -3.2607 H   0  0  0  0  0  0  0  0  0  0  0  0
    0.8129   -2.3494   -2.5963 H   0  0  0  0  0  0  0  0  0  0  0  0
   -0.6690   -1.3857   -2.6142 H   0  0  0  0  0  0  0  0  0  0  0  0
    0.2259   -1.6670   -4.1194 H   0  0  0  0  0  0  0  0  0  0  0  0
    0.2019    0.5893   -0.7269 N   0  0  0  0  0  0  0  0  0  0  0  0
    0.1242    0.9059    0.6756 C   0  0  2  0  0  0  0  0  0  0  0  0
    1.4251    1.6092    1.0499 C   0  0  0  0  0  0  0  0  0  0  0  0
    1.4909    2.8141    1.2846 O   0  0  0  0  0  0  0  0  0  0  0  0
   -0.0716   -0.3441    1.5430 C   0  0  0  0  0  0  0  0  0  0  0  0
   -1.4192   -1.0667    1.3417 C   0  0  0  0  0  0  0  0  0  0  0  0
   -1.4312   -2.3699    2.1456 C   0  0  0  0  0  0  0  0  0  0  0  0
   -1.7052   -1.3670   -0.1303 C   0  0  0  0  0  0  0  0  0  0  0  0
   -0.5975    0.8179   -1.3140 H   0  0  0  0  0  0  0  0  0  0  0  0
   -0.7047    1.6103    0.7986 H   0  0  0  0  0  0  0  0  0  0  0  0
    0.0200   -0.0595    2.6007 H   0  0  0  0  0  0  0  0  0  0  0  0
    0.7466   -1.0512    1.3522 H   0  0  0  0  0  0  0  0  0  0  0  0
   -2.2280   -0.4338    1.7268 H   0  0  0  0  0  0  0  0  0  0  0  0
   -0.6402   -3.0457    1.8034 H   0  0  0  0  0  0  0  0  0  0  0  0
   -2.3873   -2.8909    2.0279 H   0  0  0  0  0  0  0  0  0  0  0  0
   -1.2769   -2.1805    3.2134 H   0  0  0  0  0  0  0  0  0  0  0  0
   -0.9238   -1.9991   -0.5656 H   0  0  0  0  0  0  0  0  0  0  0  0
   -2.6620   -1.8888   -0.2411 H   0  0  0  0  0  0  0  0  0  0  0  0
   -1.7695   -0.4478   -0.7198 H   0  0  0  0  0  0  0  0  0  0  0  0
    2.4891    0.7225    1.1397 N   0  0  0  0  0  0  0  0  0  0  0  0
    3.8282    1.1257    1.5042 C   0  0  2  0  0  0  0  0  0  0  0  0
    3.7210    2.1709    2.6067 C   0  0  0  0  0  0  0  0  0  0  0  0
    2.7126    2.8489    2.7924 O   0  0  0  0  0  0  0  0  0  0  0  0
    4.5861    1.6754    0.3059 C   0  0  0  0  0  0  0  0  0  0  0  0
    2.3316   -0.2633    0.9523 H   0  0  0  0  0  0  0  0  0  0  0  0
    4.3321    0.2341    1.8932 H   0  0  0  0  0  0  0  0  0  0  0  0
    4.0962    2.5691   -0.0976 H   0  0  0  0  0  0  0  0  0  0  0  0
    5.6097    1.9538    0.5774 H   0  0  0  0  0  0  0  0  0  0  0  0
    4.6365    0.9327   -0.4976 H   0  0  0  0  0  0  0  0  0  0  0  0
    4.8988    2.2878    3.3314 N   0  0  0  0  0  0  0  0  0  0  0  0
    5.0533    3.2209    4.4229 C   0  0  0  0  0  0  0  0  0  0  0  0
    5.6785    1.6718    3.1205 H   0  0  0  0  0  0  0  0  0  0  0  0
    5.4726    4.1642    4.0431 H   0  0  0  0  0  0  0  0  0  0  0  0
    4.0723    3.4142    4.8815 H   0  0  0  0  0  0  0  0  0  0  0  0
    5.7325    2.7948    5.1760 H   0  0  0  0  0  0  0  0  0  0  0  0
  1  3  1  0  0  0  0
  1  7  1  0  0  0  0
  1  2  2  0  0  0  0
 37 38  1  0  0  0  0
 38 46  1  0  0  0  0
 38 39  2  0  0  0  0
  8  9  1  0  0  0  0
  9 17  1  0  0  0  0
  9 10  2  0  0  0  0
 18 19  1  0  0  0  0
 19 36  1  0  0  0  0
 19 20  2  0  0  0  0
 37 40  1  0  0  0  0
  8 11  1  0  0  0  0
 22 23  1  0  0  0  0
 22 24  1  0  0  0  0
 46 47  1  0  0  0  0
 18 21  1  0  0  0  0
 21 22  1  0  0  0  0
 36 37  1  0  0  0  0
  7  8  1  0  0  0  0
 17 18  1  0  0  0  0
  3  4  1  0  0  0  0
  3  5  1  0  0  0  0
  3  6  1  0  0  0  0
 40 43  1  0  0  0  0
 40 44  1  0  0  0  0
 40 45  1  0  0  0  0
 11 14  1  0  0  0  0
 11 15  1  0  0  0  0
 11 16  1  0  0  0  0
 23 30  1  0  0  0  0
 23 31  1  0  0  0  0
 23 32  1  0  0  0  0
 24 33  1  0  0  0  0
 24 34  1  0  0  0  0
 24 35  1  0  0  0  0
 47 49  1  0  0  0  0
 47 50  1  0  0  0  0
 47 51  1  0  0  0  0
 21 27  1  0  0  0  0
 21 28  1  0  0  0  0
 37 42  1  0  0  0  0
  8 13  1  0  0  0  0
 18 26  1  0  0  0  0
 22 29  1  0  0  0  0
 46 48  1  0  0  0  0
  7 12  1  0  0  0  0
 36 41  1  0  0  0  0
 17 25  1  0  0  0  0
M  END
$$$$

  -OEChem-05262214473D

 51 50  0     1  0  0  0  0  0999 V2000
    3.4018   -1.2440   -3.0186 C   0  0  0  0  0  0  0  0  0  0  0  0
    3.2697   -2.0909   -2.1427 O   0  0  0  0  0  0  0  0  0  0  0  0
    4.6845   -1.1645   -3.7779 C   0  0  0  0  0  0  0  0  0  0  0  0
    5.4123   -0.4862   -3.3041 H   0  0  0  0  0  0  0  0  0  0  0  0
    5.1949   -2.1387   -3.8443 H   0  0  0  0  0  0  0  0  0  0  0  0
    4.5953   -0.8128   -4.8182 H   0  0  0  0  0  0  0  0  0  0  0  0
    2.4540   -0.3103   -3.4040 N   0  0  0  0  0  0  0  0  0  0  0  0
    1.1494   -0.2128   -2.8039 C   0  0  2  0  0  0  0  0  0  0  0  0
    1.3350    0.0367   -1.3130 C   0  0  0  0  0  0  0  0  0  0  0  0
    2.3625   -0.2586   -0.7063 O   0  0  0  0  0  0  0  0  0  0  0  0
    0.3331   -1.4728   -3.0467 C   0  0  0  0  0  0  0  0  0  0  0  0
    2.6924    0.3404   -4.1502 H   0  0  0  0  0  0  0  0  0  0  0  0
    0.6550    0.6514   -3.2607 H   0  0  0  0  0  0  0  0  0  0  0  0
    0.8129   -2.3494   -2.5963 H   0  0  0  0  0  0  0  0  0  0  0  0
   -0.6690   -1.3857   -2.6142 H   0  0  0  0  0  0  0  0  0  0  0  0
    0.2259   -1.6670   -4.1194 H   0  0  0  0  0  0  0  0  0  0  0  0
    0.2019    0.5893   -0.7269 N   0  0  0  0  0  0  0  0  0  0  0  0
    0.1242    0.9059    0.6756 C   0  0  2  0  0  0  0  0  0  0  0  0
    1.4251    1.6092    1.0499 C   0  0  0  0  0  0  0  0  0  0  0  0
    1.4595    2.7360    1.5403 O   0  0  0  0  0  0  0  0  0  0  0  0
   -0.0716   -0.3441    1.5430 C   0  0  0  0  0  0  0  0  0  0  0  0
   -1.4192   -1.0667    1.3417 C   0  0  0  0  0  0  0  0  0  0  0  0
   -1.4312   -2.3699    2.1456 C   0  0  0  0  0  0  0  0  0  0  0  0
   -1.7052   -1.3670   -0.1303 C   0  0  0  0  0  0  0  0  0  0  0  0
   -0.5975    0.8179   -1.3140 H   0  0  0  0  0  0  0  0  0  0  0  0
   -0.7047    1.6103    0.7986 H   0  0  0  0  0  0  0  0  0  0  0  0
    0.0200   -0.0595    2.6007 H   0  0  0  0  0  0  0  0  0  0  0  0
    0.7466   -1.0512    1.3522 H   0  0  0  0  0  0  0  0  0  0  0  0
   -2.2280   -0.4338    1.7268 H   0  0  0  0  0  0  0  0  0  0  0  0
   -0.6402   -3.0457    1.8034 H   0  0  0  0  0  0  0  0  0  0  0  0
   -2.3873   -2.8909    2.0279 H   0  0  0  0  0  0  0  0  0  0  0  0
   -1.2769   -2.1805    3.2134 H   0  0  0  0  0  0  0  0  0  0  0  0
   -0.9238   -1.9991   -0.5656 H   0  0  0  0  0  0  0  0  0  0  0  0
   -2.6620   -1.8888   -0.2411 H   0  0  0  0  0  0  0  0  0  0  0  0
   -1.7695   -0.4478   -0.7198 H   0  0  0  0  0  0  0  0  0  0  0  0
    2.5350    0.8087    0.8183 N   0  0  0  0  0  0  0  0  0  0  0  0
    3.8876    1.2249    1.1115 C   0  0  2  0  0  0  0  0  0  0  0  0
    3.8683    1.9948    2.4254 C   0  0  0  0  0  0  0  0  0  0  0  0
    2.8588    2.5368    2.8706 O   0  0  0  0  0  0  0  0  0  0  0  0
    4.4593    2.0781   -0.0101 C   0  0  0  0  0  0  0  0  0  0  0  0
    2.4047   -0.1221    0.4332 H   0  0  0  0  0  0  0  0  0  0  0  0
    4.4806    0.3117    1.2312 H   0  0  0  0  0  0  0  0  0  0  0  0
    3.8781    2.9977   -0.1450 H   0  0  0  0  0  0  0  0  0  0  0  0
    5.4938    2.3689    0.2004 H   0  0  0  0  0  0  0  0  0  0  0  0
    4.4448    1.5334   -0.9603 H   0  0  0  0  0  0  0  0  0  0  0  0
    5.1210    2.0420    3.0210 N   0  0  0  0  0  0  0  0  0  0  0  0
    5.3653    2.7253    4.2698 C   0  0  0  0  0  0  0  0  0  0  0  0
    5.8976    1.5483    2.5911 H   0  0  0  0  0  0  0  0  0  0  0  0
    5.6854    3.7579    4.0669 H   0  0  0  0  0  0  0  0  0  0  0  0
    4.4417    2.7385    4.8671 H   0  0  0  0  0  0  0  0  0  0  0  0
    6.1548    2.1995    4.8269 H   0  0  0  0  0  0  0  0  0  0  0  0
  1  3  1  0  0  0  0
  1  7  1  0  0  0  0
  1  2  2  0  0  0  0
 37 38  1  0  0  0  0
 38 46  1  0  0  0  0
 38 39  2  0  0  0  0
  8  9  1  0  0  0  0
  9 17  1  0  0  0  0
  9 10  2  0  0  0  0
 18 19  1  0  0  0  0
 19 36  1  0  0  0  0
 19 20  2  0  0  0  0
 37 40  1  0  0  0  0
  8 11  1  0  0  0  0
 22 23  1  0  0  0  0
 22 24  1  0  0  0  0
 46 47  1  0  0  0  0
 18 21  1  0  0  0  0
 21 22  1  0  0  0  0
 36 37  1  0  0  0  0
  7  8  1  0  0  0  0
 17 18  1  0  0  0  0
  3  4  1  0  0  0  0
  3  5  1  0  0  0  0
  3  6  1  0  0  0  0
 40 43  1  0  0  0  0
 40 44  1  0  0  0  0
 40 45  1  0  0  0  0
 11 14  1  0  0  0  0
 11 15  1  0  0  0  0
 11 16  1  0  0  0  0
 23 30  1  0  0  0  0
 23 31  1  0  0  0  0
 23 32  1  0  0  0  0
 24 33  1  0  0  0  0
 24 34  1  0  0  0  0
 24 35  1  0  0  0  0
 47 49  1  0  0  0  0
 47 50  1  0  0  0  0
 47 51  1  0  0  0  0
 21 27  1  0  0  0  0
 21 28  1  0  0  0  0
 37 42  1  0  0  0  0
  8 13  1  0  0  0  0
 18 26  1  0  0  0  0
 22 29  1  0  0  0  0
 46 48  1  0  0  0  0
  7 12  1  0  0  0  0
 36 41  1  0  0  0  0
 17 25  1  0  0  0  0
M  END
$$$$

  -OEChem-05262214473D

 51 50  0     1  0  0  0  0  0999 V2000
    3.4018   -1.2440   -3.0186 C   0  0  0  0  0  0  0  0  0  0  0  0
    3.2697   -2.0909   -2.1427 O   0  0  0  0  0  0  0  0  0  0  0  0
    4.6845   -1.1645   -3.7779 C   0  0  0  0  0  0  0  0  0  0  0  0
    5.4123   -0.4862   -3.3041 H   0  0  0  0  0  0  0  0  0  0  0  0
    5.1949   -2.1387   -3.8443 H   0  0  0  0  0  0  0  0  0  0  0  0
    4.5953   -0.8128   -4.8182 H   0  0  0  0  0  0  0  0  0  0  0  0
    2.4540   -0.3103   -3.4040 N   0  0  0  0  0  0  0  0  0  0  0  0
    1.1494   -0.2128   -2.8039 C   0  0  2  0  0  0  0  0  0  0  0  0
    1.3350    0.0367   -1.3130 C   0  0  0  0  0  0  0  0  0  0  0  0
    2.3625   -0.2586   -0.7063 O   0  0  0  0  0  0  0  0  0  0  0  0
    0.3331   -1.4728   -3.0467 C   0  0  0  0  0  0  0  0  0  0  0  0
    2.6924    0.3404   -4.1502 H   0  0  0  0  0  0  0  0  0  0  0  0
    0.6550    0.6514   -3.2607 H   0  0  0  0  0  0  0  0  0  0  0  0
    0.8129   -2.3494   -2.5963 H   0  0  0  0  0  0  0  0  0  0  0  0
   -0.6690   -1.3857   -2.6142 H   0  0  0  0  0  0  0  0  0  0  0  0
    0.2259   -1.6670   -4.1194 H   0  0  0  0  0  0  0  0  0  0  0  0
    0.2019    0.5893   -0.7269 N   0  0  0  0  0  0  0  0  0  0  0  0
    0.1242    0.9059    0.6756 C   0  0  2  0  0  0  0  0  0  0  0  0
    1.4251    1.6092    1.0499 C   0  0  0  0  0  0  0  0  0  0  0  0
    1.4648    2.6021    1.7737 O   0  0  0  0  0  0  0  0  0  0  0  0
   -0.0716   -0.3441    1.5430 C   0  0  0  0  0  0  0  0  0  0  0  0
   -1.4192   -1.0667    1.3417 C   0  0  0  0  0  0  0  0  0  0  0  0
   -1.4312   -2.3699    2.1456 C   0  0  0  0  0  0  0  0  0  0  0  0
   -1.7052   -1.3670   -0.1303 C   0  0  0  0  0  0  0  0  0  0  0  0
   -0.5975    0.8179   -1.3140 H   0  0  0  0  0  0  0  0  0  0  0  0
   -0.7047    1.6103    0.7986 H   0  0  0  0  0  0  0  0  0  0  0  0
    0.0200   -0.0595    2.6007 H   0  0  0  0  0  0  0  0  0  0  0  0
    0.7466   -1.0512    1.3522 H   0  0  0  0  0  0  0  0  0  0  0  0
   -2.2280   -0.4338    1.7268 H   0  0  0  0  0  0  0  0  0  0  0  0
   -0.6402   -3.0457    1.8034 H   0  0  0  0  0  0  0  0  0  0  0  0
   -2.3873   -2.8909    2.0279 H   0  0  0  0  0  0  0  0  0  0  0  0
   -1.2769   -2.1805    3.2134 H   0  0  0  0  0  0  0  0  0  0  0  0
   -0.9238   -1.9991   -0.5656 H   0  0  0  0  0  0  0  0  0  0  0  0
   -2.6620   -1.8888   -0.2411 H   0  0  0  0  0  0  0  0  0  0  0  0
   -1.7695   -0.4478   -0.7198 H   0  0  0  0  0  0  0  0  0  0  0  0
    2.5355    0.9657    0.5214 N   0  0  0  0  0  0  0  0  0  0  0  0
    3.8917    1.4113    0.7469 C   0  0  2  0  0  0  0  0  0  0  0  0
    4.0002    1.8741    2.1938 C   0  0  0  0  0  0  0  0  0  0  0  0
    3.0292    2.2274    2.8597 O   0  0  0  0  0  0  0  0  0  0  0  0
    4.2735    2.5288   -0.2113 C   0  0  0  0  0  0  0  0  0  0  0  0
    2.4044    0.1334   -0.0458 H   0  0  0  0  0  0  0  0  0  0  0  0
    4.5402    0.5422    0.5912 H   0  0  0  0  0  0  0  0  0  0  0  0
    3.6346    3.4082   -0.0701 H   0  0  0  0  0  0  0  0  0  0  0  0
    5.3105    2.8457   -0.0582 H   0  0  0  0  0  0  0  0  0  0  0  0
    4.1663    2.2037   -1.2518 H   0  0  0  0  0  0  0  0  0  0  0  0
    5.3142    1.8872    2.6404 N   0  0  0  0  0  0  0  0  0  0  0  0
    5.6799    2.3001    3.9752 C   0  0  0  0  0  0  0  0  0  0  0  0
    6.0540    1.5597    2.0262 H   0  0  0  0  0  0  0  0  0  0  0  0
    5.9197    3.3737    3.9748 H   0  0  0  0  0  0  0  0  0  0  0  0
    4.8398    2.1124    4.6600 H   0  0  0  0  0  0  0  0  0  0  0  0
    6.5589    1.7284    4.3078 H   0  0  0  0  0  0  0  0  0  0  0  0
  1  3  1  0  0  0  0
  1  7  1  0  0  0  0
  1  2  2  0  0  0  0
 37 38  1  0  0  0  0
 38 46  1  0  0  0  0
 38 39  2  0  0  0  0
  8  9  1  0  0  0  0
  9 17  1  0  0  0  0
  9 10  2  0  0  0  0
 18 19  1  0  0  0  0
 19 36  1  0  0  0  0
 19 20  2  0  0  0  0
 37 40  1  0  0  0  0
  8 11  1  0  0  0  0
 22 23  1  0  0  0  0
 22 24  1  0  0  0  0
 46 47  1  0  0  0  0
 18 21  1  0  0  0  0
 21 22  1  0  0  0  0
 36 37  1  0  0  0  0
  7  8  1  0  0  0  0
 17 18  1  0  0  0  0
  3  4  1  0  0  0  0
  3  5  1  0  0  0  0
  3  6  1  0  0  0  0
 40 43  1  0  0  0  0
 40 44  1  0  0  0  0
 40 45  1  0  0  0  0
 11 14  1  0  0  0  0
 11 15  1  0  0  0  0
 11 16  1  0  0  0  0
 23 30  1  0  0  0  0
 23 31  1  0  0  0  0
 23 32  1  0  0  0  0
 24 33  1  0  0  0  0
 24 34  1  0  0  0  0
 24 35  1  0  0  0  0
 47 49  1  0  0  0  0
 47 50  1  0  0  0  0
 47 51  1  0  0  0  0
 21 27  1  0  0  0  0
 21 28  1  0  0  0  0
 37 42  1  0  0  0  0
  8 13  1  0  0  0  0
 18 26  1  0  0  0  0
 22 29  1  0  0  0  0
 46 48  1  0  0  0  0
  7 12  1  0  0  0  0
 36 41  1  0  0  0  0
 17 25  1  0  0  0  0
M  END
$$$$

  -OEChem-05262214473D

 51 50  0     1  0  0  0  0  0999 V2000
    3.4018   -1.2440   -3.0186 C   0  0  0  0  0  0  0  0  0  0  0  0
    3.2697   -2.0909   -2.1427 O   0  0  0  0  0  0  0  0  0  0  0  0
    4.6845   -1.1645   -3.7779 C   0  0  0  0  0  0  0  0  0  0  0  0
    5.4123   -0.4862   -3.3041 H   0  0  0  0  0  0  0  0  0  0  0  0
    5.1949   -2.1387   -3.8443 H   0  0  0  0  0  0  0  0  0  0  0  0
    4.5953   -0.8128   -4.8182 H   0  0  0  0  0  0  0  0  0  0  0  0
    2.4540   -0.3103   -3.4040 N   0  0  0  0  0  0  0  0  0  0  0  0
    1.1494   -0.2128   -2.8039 C   0  0  2  0  0  0  0  0  0  0  0  0
    1.3350    0.0367   -1.3130 C   0  0  0  0  0  0  0  0  0  0  0  0
    2.3625   -0.2586   -0.7063 O   0  0  0  0  0  0  0  0  0  0  0  0
    0.3331   -1.4728   -3.0467 C   0  0  0  0  0  0  0  0  0  0  0  0
    2.6924    0.3404   -4.1502 H   0  0  0  0  0  0  0  0  0  0  0  0
    0.6550    0.6514   -3.2607 H   0  0  0  0  0  0  0  0  0  0  0  0
    0.8129   -2.3494   -2.5963 H   0  0  0  0  0  0  0  0  0  0  0  0
   -0.6690   -1.3857   -2.6142 H   0  0  0  0  0  0  0  0  0  0  0  0
    0.2259   -1.6670   -4.1194 H   0  0  0  0  0  0  0  0  0  0  0  0
    0.2019    0.5893   -0.7269 N   0  0  0  0  0  0  0  0  0  0  0  0
    0.1242    0.9059    0.6756 C   0  0  2  0  0  0  0  0  0  0  0  0
    1.4251    1.6092    1.0499 C   0  0  0  0  0  0  0  0  0  0  0  0
    1.5062    2.4215    1.9691 O   0  0  0  0  0  0  0  0  0  0  0  0
   -0.0716   -0.3441    1.5430 C   0  0  0  0  0  0  0  0  0  0  0  0
   -1.4192   -1.0667    1.3417 C   0  0  0  0  0  0  0  0  0  0  0  0
   -1.4312   -2.3699    2.1456 C   0  0  0  0  0  0  0  0  0  0  0  0
   -1.7052   -1.3670   -0.1303 C   0  0  0  0  0  0  0  0  0  0  0  0
   -0.5975    0.8179   -1.3140 H   0  0  0  0  0  0  0  0  0  0  0  0
   -0.7047    1.6103    0.7986 H   0  0  0  0  0  0  0  0  0  0  0  0
    0.0200   -0.0595    2.6007 H   0  0  0  0  0  0  0  0  0  0  0  0
    0.7466   -1.0512    1.3522 H   0  0  0  0  0  0  0  0  0  0  0  0
   -2.2280   -0.4338    1.7268 H   0  0  0  0  0  0  0  0  0  0  0  0
   -0.6402   -3.0457    1.8034 H   0  0  0  0  0  0  0  0  0  0  0  0
   -2.3873   -2.8909    2.0279 H   0  0  0  0  0  0  0  0  0  0  0  0
   -1.2769   -2.1805    3.2134 H   0  0  0  0  0  0  0  0  0  0  0  0
   -0.9238   -1.9991   -0.5656 H   0  0  0  0  0  0  0  0  0  0  0  0
   -2.6620   -1.8888   -0.2411 H   0  0  0  0  0  0  0  0  0  0  0  0
   -1.7695   -0.4478   -0.7198 H   0  0  0  0  0  0  0  0  0  0  0  0
    2.4906    1.1830    0.2692 N   0  0  0  0  0  0  0  0  0  0  0  0
    3.8404    1.6721    0.4354 C   0  0  2  0  0  0  0  0  0  0  0  0
    4.1077    1.8170    1.9277 C   0  0  0  0  0  0  0  0  0  0  0  0
    3.2122    1.9417    2.7606 O   0  0  0  0  0  0  0  0  0  0  0  0
    4.0415    2.9967   -0.2840 C   0  0  0  0  0  0  0  0  0  0  0  0
    2.3307    0.4860   -0.4520 H   0  0  0  0  0  0  0  0  0  0  0  0
    4.5067    0.9099    0.0168 H   0  0  0  0  0  0  0  0  0  0  0  0
    3.3823    3.7728    0.1218 H   0  0  0  0  0  0  0  0  0  0  0  0
    5.0722    3.3517   -0.1810 H   0  0  0  0  0  0  0  0  0  0  0  0
    3.8200    2.8977   -1.3521 H   0  0  0  0  0  0  0  0  0  0  0  0
    5.4653    1.8340    2.2155 N   0  0  0  0  0  0  0  0  0  0  0  0
    5.9757    1.9745    3.5593 C   0  0  0  0  0  0  0  0  0  0  0  0
    6.1369    1.7053    1.4645 H   0  0  0  0  0  0  0  0  0  0  0  0
    6.1593    3.0378    3.7731 H   0  0  0  0  0  0  0  0  0  0  0  0
    5.2394    1.5787    4.2743 H   0  0  0  0  0  0  0  0  0  0  0  0
    6.9172    1.4136    3.6543 H   0  0  0  0  0  0  0  0  0  0  0  0
  1  3  1  0  0  0  0
  1  7  1  0  0  0  0
  1  2  2  0  0  0  0
 37 38  1  0  0  0  0
 38 46  1  0  0  0  0
 38 39  2  0  0  0  0
  8  9  1  0  0  0  0
  9 17  1  0  0  0  0
  9 10  2  0  0  0  0
 18 19  1  0  0  0  0
 19 36  1  0  0  0  0
 19 20  2  0  0  0  0
 37 40  1  0  0  0  0
  8 11  1  0  0  0  0
 22 23  1  0  0  0  0
 22 24  1  0  0  0  0
 46 47  1  0  0  0  0
 18 21  1  0  0  0  0
 21 22  1  0  0  0  0
 36 37  1  0  0  0  0
  7  8  1  0  0  0  0
 17 18  1  0  0  0  0
  3  4  1  0  0  0  0
  3  5  1  0  0  0  0
  3  6  1  0  0  0  0
 40 43  1  0  0  0  0
 40 44  1  0  0  0  0
 40 45  1  0  0  0  0
 11 14  1  0  0  0  0
 11 15  1  0  0  0  0
 11 16  1  0  0  0  0
 23 30  1  0  0  0  0
 23 31  1  0  0  0  0
 23 32  1  0  0  0  0
 24 33  1  0  0  0  0
 24 34  1  0  0  0  0
 24 35  1  0  0  0  0
 47 49  1  0  0  0  0
 47 50  1  0  0  0  0
 47 51  1  0  0  0  0
 21 27  1  0  0  0  0
 21 28  1  0  0  0  0
 37 42  1  0  0  0  0
  8 13  1  0  0  0  0
 18 26  1  0  0  0  0
 22 29  1  0  0  0  0
 46 48  1  0  0  0  0
  7 12  1  0  0  0  0
 36 41  1  0  0  0  0
 17 25  1  0  0  0  0
M  END
$$$$

  -OEChem-05262214473D

 51 50  0     1  0  0  0  0  0999 V2000
    3.4018   -1.2440   -3.0186 C   0  0  0  0  0  0  0  0  0  0  0  0
    3.2697   -2.0909   -2.1427 O   0  0  0  0  0  0  0  0  0  0  0  0
    4.6845   -1.1645   -3.7779 C   0  0  0  0  0  0  0  0  0  0  0  0
    5.4123   -0.4862   -3.3041 H   0  0  0  0  0  0  0  0  0  0  0  0
    5.1949   -2.1387   -3.8443 H   0  0  0  0  0  0  0  0  0  0  0  0
    4.5953   -0.8128   -4.8182 H   0  0  0  0  0  0  0  0  0  0  0  0
    2.4540   -0.3103   -3.4040 N   0  0  0  0  0  0  0  0  0  0  0  0
    1.1494   -0.2128   -2.8039 C   0  0  2  0  0  0  0  0  0  0  0  0
    1.3350    0.0367   -1.3130 C   0  0  0  0  0  0  0  0  0  0  0  0
    2.3625   -0.2586   -0.7063 O   0  0  0  0  0  0  0  0  0  0  0  0
    0.3331   -1.4728   -3.0467 C   0  0  0  0  0  0  0  0  0  0  0  0
    2.6924    0.3404   -4.1502 H   0  0  0  0  0  0  0  0  0  0  0  0
    0.6550    0.6514   -3.2607 H   0  0  0  0  0  0  0  0  0  0  0  0
    0.8129   -2.3494   -2.5963 H   0  0  0  0  0  0  0  0  0  0  0  0
   -0.6690   -1.3857   -2.6142 H   0  0  0  0  0  0  0  0  0  0  0  0
    0.2259   -1.6670   -4.1194 H   0  0  0  0  0  0  0  0  0  0  0  0
    0.2019    0.5893   -0.7269 N   0  0  0  0  0  0  0  0  0  0  0  0
    0.1242    0.9059    0.6756 C   0  0  2  0  0  0  0  0  0  0  0  0
    1.4251    1.6092    1.0499 C   0  0  0  0  0  0  0  0  0  0  0  0
    1.5809    2.2066    2.1129 O   0  0  0  0  0  0  0  0  0  0  0  0
   -0.0716   -0.3441    1.5430 C   0  0  0  0  0  0  0  0  0  0  0  0
   -1.4192   -1.0667    1.3417 C   0  0  0  0  0  0  0  0  0  0  0  0
   -1.4312   -2.3699    2.1456 C   0  0  0  0  0  0  0  0  0  0  0  0
   -1.7052   -1.3670   -0.1303 C   0  0  0  0  0  0  0  0  0  0  0  0
   -0.5975    0.8179   -1.3140 H   0  0  0  0  0  0  0  0  0  0  0  0
   -0.7047    1.6103    0.7986 H   0  0  0  0  0  0  0  0  0  0  0  0
    0.0200   -0.0595    2.6007 H   0  0  0  0  0  0  0  0  0  0  0  0
    0.7466   -1.0512    1.3522 H   0  0  0  0  0  0  0  0  0  0  0  0
   -2.2280   -0.4338    1.7268 H   0  0  0  0  0  0  0  0  0  0  0  0
   -0.6402   -3.0457    1.8034 H   0  0  0  0  0  0  0  0  0  0  0  0
   -2.3873   -2.8909    2.0279 H   0  0  0  0  0  0  0  0  0  0  0  0
   -1.2769   -2.1805    3.2134 H   0  0  0  0  0  0  0  0  0  0  0  0
   -0.9238   -1.9991   -0.5656 H   0  0  0  0  0  0  0  0  0  0  0  0
   -2.6620   -1.8888   -0.2411 H   0  0  0  0  0  0  0  0  0  0  0  0
   -1.7695   -0.4478   -0.7198 H   0  0  0  0  0  0  0  0  0  0  0  0
    2.4033    1.4457    0.0790 N   0  0  0  0  0  0  0  0  0  0  0  0
    3.7371    1.9894    0.1982 C   0  0  2  0  0  0  0  0  0  0  0  0
    4.1833    1.8274    1.6453 C   0  0  0  0  0  0  0  0  0  0  0  0
    3.3953    1.6993    2.5800 O   0  0  0  0  0  0  0  0  0  0  0  0
    3.7789    3.4500   -0.2232 C   0  0  0  0  0  0  0  0  0  0  0  0
    2.1886    0.9115   -0.7577 H   0  0  0  0  0  0  0  0  0  0  0  0
    4.3824    1.3897   -0.4529 H   0  0  0  0  0  0  0  0  0  0  0  0
    3.1383    4.0665    0.4178 H   0  0  0  0  0  0  0  0  0  0  0  0
    4.7953    3.8524   -0.1595 H   0  0  0  0  0  0  0  0  0  0  0  0
    3.4294    3.5682   -1.2546 H   0  0  0  0  0  0  0  0  0  0  0  0
    5.5639    1.8860    1.7754 N   0  0  0  0  0  0  0  0  0  0  0  0
    6.2324    1.7705    3.0504 C   0  0  0  0  0  0  0  0  0  0  0  0
    6.1407    1.9753    0.9441 H   0  0  0  0  0  0  0  0  0  0  0  0
    6.3881    2.7730    3.4755 H   0  0  0  0  0  0  0  0  0  0  0  0
    5.6132    1.1737    3.7362 H   0  0  0  0  0  0  0  0  0  0  0  0
    7.2053    1.2765    2.9108 H   0  0  0  0  0  0  0  0  0  0  0  0
  1  3  1  0  0  0  0
  1  7  1  0  0  0  0
  1  2  2  0  0  0  0
 37 38  1  0  0  0  0
 38 46  1  0  0  0  0
 38 39  2  0  0  0  0
  8  9  1  0  0  0  0
  9 17  1  0  0  0  0
  9 10  2  0  0  0  0
 18 19  1  0  0  0  0
 19 36  1  0  0  0  0
 19 20  2  0  0  0  0
 37 40  1  0  0  0  0
  8 11  1  0  0  0  0
 22 23  1  0  0  0  0
 22 24  1  0  0  0  0
 46 47  1  0  0  0  0
 18 21  1  0  0  0  0
 21 22  1  0  0  0  0
 36 37  1  0  0  0  0
  7  8  1  0  0  0  0
 17 18  1  0  0  0  0
  3  4  1  0  0  0  0
  3  5  1  0  0  0  0
  3  6  1  0  0  0  0
 40 43  1  0  0  0  0
 40 44  1  0  0  0  0
 40 45  1  0  0  0  0
 11 14  1  0  0  0  0
 11 15  1  0  0  0  0
 11 16  1  0  0  0  0
 23 30  1  0  0  0  0
 23 31  1  0  0  0  0
 23 32  1  0  0  0  0
 24 33  1  0  0  0  0
 24 34  1  0  0  0  0
 24 35  1  0  0  0  0
 47 49  1  0  0  0  0
 47 50  1  0  0  0  0
 47 51  1  0  0  0  0
 21 27  1  0  0  0  0
 21 28  1  0  0  0  0
 37 42  1  0  0  0  0
  8 13  1  0  0  0  0
 18 26  1  0  0  0  0
 22 29  1  0  0  0  0
 46 48  1  0  0  0  0
  7 12  1  0  0  0  0
 36 41  1  0  0  0  0
 17 25  1  0  0  0  0
M  END
$$$$

  -OEChem-05262214473D

 51 50  0     1  0  0  0  0  0999 V2000
    3.4018   -1.2440   -3.0186 C   0  0  0  0  0  0  0  0  0  0  0  0
    3.2697   -2.0909   -2.1427 O   0  0  0  0  0  0  0  0  0  0  0  0
    4.6845   -1.1645   -3.7779 C   0  0  0  0  0  0  0  0  0  0  0  0
    5.4123   -0.4862   -3.3041 H   0  0  0  0  0  0  0  0  0  0  0  0
    5.1949   -2.1387   -3.8443 H   0  0  0  0  0  0  0  0  0  0  0  0
    4.5953   -0.8128   -4.8182 H   0  0  0  0  0  0  0  0  0  0  0  0
    2.4540   -0.3103   -3.4040 N   0  0  0  0  0  0  0  0  0  0  0  0
    1.1494   -0.2128   -2.8039 C   0  0  2  0  0  0  0  0  0  0  0  0
    1.3350    0.0367   -1.3130 C   0  0  0  0  0  0  0  0  0  0  0  0
    2.3625   -0.2586   -0.7063 O   0  0  0  0  0  0  0  0  0  0  0  0
    0.3331   -1.4728   -3.0467 C   0  0  0  0  0  0  0  0  0  0  0  0
    2.6924    0.3404   -4.1502 H   0  0  0  0  0  0  0  0  0  0  0  0
    0.6550    0.6514   -3.2607 H   0  0  0  0  0  0  0  0  0  0  0  0
    0.8129   -2.3494   -2.5963 H   0  0  0  0  0  0  0  0  0  0  0  0
   -0.6690   -1.3857   -2.6142 H   0  0  0  0  0  0  0  0  0  0  0  0
    0.2259   -1.6670   -4.1194 H   0  0  0  0  0  0  0  0  0  0  0  0
    0.2019    0.5893   -0.7269 N   0  0  0  0  0  0  0  0  0  0  0  0
    0.1242    0.9059    0.6756 C   0  0  2  0  0  0  0  0  0  0  0  0
    1.4251    1.6092    1.0499 C   0  0  0  0  0  0  0  0  0  0  0  0
    1.6840    1.9721    2.1956 O   0  0  0  0  0  0  0  0  0  0  0  0
   -0.0716   -0.3441    1.5430 C   0  0  0  0  0  0  0  0  0  0  0  0
   -1.4192   -1.0667    1.3417 C   0  0  0  0  0  0  0  0  0  0  0  0
   -1.4312   -2.3699    2.1456 C   0  0  0  0  0  0  0  0  0  0  0  0
   -1.7052   -1.3670   -0.1303 C   0  0  0  0  0  0  0  0  0  0  0  0
   -0.5975    0.8179   -1.3140 H   0  0  0  0  0  0  0  0  0  0  0  0
   -0.7047    1.6103    0.7986 H   0  0  0  0  0  0  0  0  0  0  0  0
    0.0200   -0.0595    2.6007 H   0  0  0  0  0  0  0  0  0  0  0  0
    0.7466   -1.0512    1.3522 H   0  0  0  0  0  0  0  0  0  0  0  0
   -2.2280   -0.4338    1.7268 H   0  0  0  0  0  0  0  0  0  0  0  0
   -0.6402   -3.0457    1.8034 H   0  0  0  0  0  0  0  0  0  0  0  0
   -2.3873   -2.8909    2.0279 H   0  0  0  0  0  0  0  0  0  0  0  0
   -1.2769   -2.1805    3.2134 H   0  0  0  0  0  0  0  0  0  0  0  0
   -0.9238   -1.9991   -0.5656 H   0  0  0  0  0  0  0  0  0  0  0  0
   -2.6620   -1.8888   -0.2411 H   0  0  0  0  0  0  0  0  0  0  0  0
   -1.7695   -0.4478   -0.7198 H   0  0  0  0  0  0  0  0  0  0  0  0
    2.2796    1.7359   -0.0364 N   0  0  0  0  0  0  0  0  0  0  0  0
    3.5888    2.3417    0.0515 C   0  0  2  0  0  0  0  0  0  0  0  0
    4.2221    1.9046    1.3658 C   0  0  0  0  0  0  0  0  0  0  0  0
    3.5659    1.5166    2.3301 O   0  0  0  0  0  0  0  0  0  0  0  0
    3.5038    3.8577   -0.0332 C   0  0  0  0  0  0  0  0  0  0  0  0
    1.9879    1.3809   -0.9422 H   0  0  0  0  0  0  0  0  0  0  0  0
    4.1759    1.9490   -0.7859 H   0  0  0  0  0  0  0  0  0  0  0  0
    2.9192    4.2694    0.7976 H   0  0  0  0  0  0  0  0  0  0  0  0
    4.4986    4.3137    0.0048 H   0  0  0  0  0  0  0  0  0  0  0  0
    3.0211    4.1696   -0.9657 H   0  0  0  0  0  0  0  0  0  0  0  0
    5.6033    2.0395    1.3499 N   0  0  0  0  0  0  0  0  0  0  0  0
    6.4326    1.7021    2.4832 C   0  0  0  0  0  0  0  0  0  0  0  0
    6.0652    2.3511    0.5006 H   0  0  0  0  0  0  0  0  0  0  0  0
    6.5904    2.5975    3.1023 H   0  0  0  0  0  0  0  0  0  0  0  0
    5.9358    0.9249    3.0825 H   0  0  0  0  0  0  0  0  0  0  0  0
    7.4035    1.3264    2.1279 H   0  0  0  0  0  0  0  0  0  0  0  0
  1  3  1  0  0  0  0
  1  7  1  0  0  0  0
  1  2  2  0  0  0  0
 37 38  1  0  0  0  0
 38 46  1  0  0  0  0
 38 39  2  0  0  0  0
  8  9  1  0  0  0  0
  9 17  1  0  0  0  0
  9 10  2  0  0  0  0
 18 19  1  0  0  0  0
 19 36  1  0  0  0  0
 19 20  2  0  0  0  0
 37 40  1  0  0  0  0
  8 11  1  0  0  0  0
 22 23  1  0  0  0  0
 22 24  1  0  0  0  0
 46 47  1  0  0  0  0
 18 21  1  0  0  0  0
 21 22  1  0  0  0  0
 36 37  1  0  0  0  0
  7  8  1  0  0  0  0
 17 18  1  0  0  0  0
  3  4  1  0  0  0  0
  3  5  1  0  0  0  0
  3  6  1  0  0  0  0
 40 43  1  0  0  0  0
 40 44  1  0  0  0  0
 40 45  1  0  0  0  0
 11 14  1  0  0  0  0
 11 15  1  0  0  0  0
 11 16  1  0  0  0  0
 23 30  1  0  0  0  0
 23 31  1  0  0  0  0
 23 32  1  0  0  0  0
 24 33  1  0  0  0  0
 24 34  1  0  0  0  0
 24 35  1  0  0  0  0
 47 49  1  0  0  0  0
 47 50  1  0  0  0  0
 47 51  1  0  0  0  0
 21 27  1  0  0  0  0
 21 28  1  0  0  0  0
 37 42  1  0  0  0  0
  8 13  1  0  0  0  0
 18 26  1  0  0  0  0
 22 29  1  0  0  0  0
 46 48  1  0  0  0  0
  7 12  1  0  0  0  0
 36 41  1  0  0  0  0
 17 25  1  0  0  0  0
M  END
$$$$

  -OEChem-05262214473D

 51 50  0     1  0  0  0  0  0999 V2000
    3.4018   -1.2440   -3.0186 C   0  0  0  0  0  0  0  0  0  0  0  0
    3.2697   -2.0909   -2.1427 O   0  0  0  0  0  0  0  0  0  0  0  0
    4.6845   -1.1645   -3.7779 C   0  0  0  0  0  0  0  0  0  0  0  0
    5.4123   -0.4862   -3.3041 H   0  0  0  0  0  0  0  0  0  0  0  0
    5.1949   -2.1387   -3.8443 H   0  0  0  0  0  0  0  0  0  0  0  0
    4.5953   -0.8128   -4.8182 H   0  0  0  0  0  0  0  0  0  0  0  0
    2.4540   -0.3103   -3.4040 N   0  0  0  0  0  0  0  0  0  0  0  0
    1.1494   -0.2128   -2.8039 C   0  0  2  0  0  0  0  0  0  0  0  0
    1.3350    0.0367   -1.3130 C   0  0  0  0  0  0  0  0  0  0  0  0
    2.3625   -0.2586   -0.7063 O   0  0  0  0  0  0  0  0  0  0  0  0
    0.3331   -1.4728   -3.0467 C   0  0  0  0  0  0  0  0  0  0  0  0
    2.6924    0.3404   -4.1502 H   0  0  0  0  0  0  0  0  0  0  0  0
    0.6550    0.6514   -3.2607 H   0  0  0  0  0  0  0  0  0  0  0  0
    0.8129   -2.3494   -2.5963 H   0  0  0  0  0  0  0  0  0  0  0  0
   -0.6690   -1.3857   -2.6142 H   0  0  0  0  0  0  0  0  0  0  0  0
    0.2259   -1.6670   -4.1194 H   0  0  0  0  0  0  0  0  0  0  0  0
    0.2019    0.5893   -0.7269 N   0  0  0  0  0  0  0  0  0  0  0  0
    0.1242    0.9059    0.6756 C   0  0  2  0  0  0  0  0  0  0  0  0
    1.4251    1.6092    1.0499 C   0  0  0  0  0  0  0  0  0  0  0  0
    1.8082    1.7338    2.2113 O   0  0  0  0  0  0  0  0  0  0  0  0
   -0.0716   -0.3441    1.5430 C   0  0  0  0  0  0  0  0  0  0  0  0
   -1.4192   -1.0667    1.3417 C   0  0  0  0  0  0  0  0  0  0  0  0
   -1.4312   -2.3699    2.1456 C   0  0  0  0  0  0  0  0  0  0  0  0
   -1.7052   -1.3670   -0.1303 C   0  0  0  0  0  0  0  0  0  0  0  0
   -0.5975    0.8179   -1.3140 H   0  0  0  0  0  0  0  0  0  0  0  0
   -0.7047    1.6103    0.7986 H   0  0  0  0  0  0  0  0  0  0  0  0
    0.0200   -0.0595    2.6007 H   0  0  0  0  0  0  0  0  0  0  0  0
    0.7466   -1.0512    1.3522 H   0  0  0  0  0  0  0  0  0  0  0  0
   -2.2280   -0.4338    1.7268 H   0  0  0  0  0  0  0  0  0  0  0  0
   -0.6402   -3.0457    1.8034 H   0  0  0  0  0  0  0  0  0  0  0  0
   -2.3873   -2.8909    2.0279 H   0  0  0  0  0  0  0  0  0  0  0  0
   -1.2769   -2.1805    3.2134 H   0  0  0  0  0  0  0  0  0  0  0  0
   -0.9238   -1.9991   -0.5656 H   0  0  0  0  0  0  0  0  0  0  0  0
   -2.6620   -1.8888   -0.2411 H   0  0  0  0  0  0  0  0  0  0  0  0
   -1.7695   -0.4478   -0.7198 H   0  0  0  0  0  0  0  0  0  0  0  0
    2.1280    2.0338   -0.0691 N   0  0  0  0  0  0  0  0  0  0  0  0
    3.4057    2.7050    0.0052 C   0  0  2  0  0  0  0  0  0  0  0  0
    4.2212    2.0433    1.1081 C   0  0  0  0  0  0  0  0  0  0  0  0
    3.7126    1.4061    2.0281 O   0  0  0  0  0  0  0  0  0  0  0  0
    3.2348    4.1922    0.2732 C   0  0  0  0  0  0  0  0  0  0  0  0
    1.7422    1.8624   -0.9928 H   0  0  0  0  0  0  0  0  0  0  0  0
    3.9011    2.5496   -0.9594 H   0  0  0  0  0  0  0  0  0  0  0  0
    2.7401    4.3677    1.2355 H   0  0  0  0  0  0  0  0  0  0  0  0
    4.2024    4.7041    0.3008 H   0  0  0  0  0  0  0  0  0  0  0  0
    2.6231    4.6607   -0.5053 H   0  0  0  0  0  0  0  0  0  0  0  0
    5.5808    2.2843    0.9682 N   0  0  0  0  0  0  0  0  0  0  0  0
    6.5627    1.7739    1.8963 C   0  0  0  0  0  0  0  0  0  0  0  0
    5.9154    2.8072    0.1642 H   0  0  0  0  0  0  0  0  0  0  0  0
    6.7524    2.5232    2.6790 H   0  0  0  0  0  0  0  0  0  0  0  0
    6.1852    0.8494    2.3576 H   0  0  0  0  0  0  0  0  0  0  0  0
    7.4985    1.5601    1.3591 H   0  0  0  0  0  0  0  0  0  0  0  0
  1  3  1  0  0  0  0
  1  7  1  0  0  0  0
  1  2  2  0  0  0  0
 37 38  1  0  0  0  0
 38 46  1  0  0  0  0
 38 39  2  0  0  0  0
  8  9  1  0  0  0  0
  9 17  1  0  0  0  0
  9 10  2  0  0  0  0
 18 19  1  0  0  0  0
 19 36  1  0  0  0  0
 19 20  2  0  0  0  0
 37 40  1  0  0  0  0
  8 11  1  0  0  0  0
 22 23  1  0  0  0  0
 22 24  1  0  0  0  0
 46 47  1  0  0  0  0
 18 21  1  0  0  0  0
 21 22  1  0  0  0  0
 36 37  1  0  0  0  0
  7  8  1  0  0  0  0
 17 18  1  0  0  0  0
  3  4  1  0  0  0  0
  3  5  1  0  0  0  0
  3  6  1  0  0  0  0
 40 43  1  0  0  0  0
 40 44  1  0  0  0  0
 40 45  1  0  0  0  0
 11 14  1  0  0  0  0
 11 15  1  0  0  0  0
 11 16  1  0  0  0  0
 23 30  1  0  0  0  0
 23 31  1  0  0  0  0
 23 32  1  0  0  0  0
 24 33  1  0  0  0  0
 24 34  1  0  0  0  0
 24 35  1  0  0  0  0
 47 49  1  0  0  0  0
 47 50  1  0  0  0  0
 47 51  1  0  0  0  0
 21 27  1  0  0  0  0
 21 28  1  0  0  0  0
 37 42  1  0  0  0  0
  8 13  1  0  0  0  0
 18 26  1  0  0  0  0
 22 29  1  0  0  0  0
 46 48  1  0  0  0  0
  7 12  1  0  0  0  0
 36 41  1  0  0  0  0
 17 25  1  0  0  0  0
M  END
$$$$

  -OEChem-05262214473D

 51 50  0     1  0  0  0  0  0999 V2000
    3.4018   -1.2440   -3.0186 C   0  0  0  0  0  0  0  0  0  0  0  0
    3.2697   -2.0909   -2.1427 O   0  0  0  0  0  0  0  0  0  0  0  0
    4.6845   -1.1645   -3.7779 C   0  0  0  0  0  0  0  0  0  0  0  0
    5.4123   -0.4862   -3.3041 H   0  0  0  0  0  0  0  0  0  0  0  0
    5.1949   -2.1387   -3.8443 H   0  0  0  0  0  0  0  0  0  0  0  0
    4.5953   -0.8128   -4.8182 H   0  0  0  0  0  0  0  0  0  0  0  0
    2.4540   -0.3103   -3.4040 N   0  0  0  0  0  0  0  0  0  0  0  0
    1.1494   -0.2128   -2.8039 C   0  0  2  0  0  0  0  0  0  0  0  0
    1.3350    0.0367   -1.3130 C   0  0  0  0  0  0  0  0  0  0  0  0
    2.3625   -0.2586   -0.7063 O   0  0  0  0  0  0  0  0  0  0  0  0
    0.3331   -1.4728   -3.0467 C   0  0  0  0  0  0  0  0  0  0  0  0
    2.6924    0.3404   -4.1502 H   0  0  0  0  0  0  0  0  0  0  0  0
    0.6550    0.6514   -3.2607 H   0  0  0  0  0  0  0  0  0  0  0  0
    0.8129   -2.3494   -2.5963 H   0  0  0  0  0  0  0  0  0  0  0  0
   -0.6690   -1.3857   -2.6142 H   0  0  0  0  0  0  0  0  0  0  0  0
    0.2259   -1.6670   -4.1194 H   0  0  0  0  0  0  0  0  0  0  0  0
    0.2019    0.5893   -0.7269 N   0  0  0  0  0  0  0  0  0  0  0  0
    0.1242    0.9059    0.6756 C   0  0  2  0  0  0  0  0  0  0  0  0
    1.4251    1.6092    1.0499 C   0  0  0  0  0  0  0  0  0  0  0  0
    1.9453    1.5081    2.1591 O   0  0  0  0  0  0  0  0  0  0  0  0
   -0.0716   -0.3441    1.5430 C   0  0  0  0  0  0  0  0  0  0  0  0
   -1.4192   -1.0667    1.3417 C   0  0  0  0  0  0  0  0  0  0  0  0
   -1.4312   -2.3699    2.1456 C   0  0  0  0  0  0  0  0  0  0  0  0
   -1.7052   -1.3670   -0.1303 C   0  0  0  0  0  0  0  0  0  0  0  0
   -0.5975    0.8179   -1.3140 H   0  0  0  0  0  0  0  0  0  0  0  0
   -0.7047    1.6103    0.7986 H   0  0  0  0  0  0  0  0  0  0  0  0
    0.0200   -0.0595    2.6007 H   0  0  0  0  0  0  0  0  0  0  0  0
    0.7466   -1.0512    1.3522 H   0  0  0  0  0  0  0  0  0  0  0  0
   -2.2280   -0.4338    1.7268 H   0  0  0  0  0  0  0  0  0  0  0  0
   -0.6402   -3.0457    1.8034 H   0  0  0  0  0  0  0  0  0  0  0  0
   -2.3873   -2.8909    2.0279 H   0  0  0  0  0  0  0  0  0  0  0  0
   -1.2769   -2.1805    3.2134 H   0  0  0  0  0  0  0  0  0  0  0  0
   -0.9238   -1.9991   -0.5656 H   0  0  0  0  0  0  0  0  0  0  0  0
   -2.6620   -1.8888   -0.2411 H   0  0  0  0  0  0  0  0  0  0  0  0
   -1.7695   -0.4478   -0.7198 H   0  0  0  0  0  0  0  0  0  0  0  0
    1.9587    2.3191   -0.0167 N   0  0  0  0  0  0  0  0  0  0  0  0
    3.2003    3.0545    0.0625 C   0  0  2  0  0  0  0  0  0  0  0  0
    4.1808    2.2341    0.8900 C   0  0  0  0  0  0  0  0  0  0  0  0
    3.8252    1.3754    1.6946 O   0  0  0  0  0  0  0  0  0  0  0  0
    2.9903    4.4305    0.6751 C   0  0  0  0  0  0  0  0  0  0  0  0
    1.4682    2.3229   -0.9062 H   0  0  0  0  0  0  0  0  0  0  0  0
    3.5769    3.1505   -0.9617 H   0  0  0  0  0  0  0  0  0  0  0  0
    2.6131    4.3546    1.7014 H   0  0  0  0  0  0  0  0  0  0  0  0
    3.9267    4.9972    0.7082 H   0  0  0  0  0  0  0  0  0  0  0  0
    2.2623    5.0083    0.0954 H   0  0  0  0  0  0  0  0  0  0  0  0
    5.4980    2.6035    0.6561 N   0  0  0  0  0  0  0  0  0  0  0  0
    6.6137    1.9811    1.3298 C   0  0  0  0  0  0  0  0  0  0  0  0
    5.7016    3.3125   -0.0422 H   0  0  0  0  0  0  0  0  0  0  0  0
    6.8630    2.5551    2.2344 H   0  0  0  0  0  0  0  0  0  0  0  0
    6.3444    0.9524    1.6111 H   0  0  0  0  0  0  0  0  0  0  0  0
    7.4836    1.9615    0.6568 H   0  0  0  0  0  0  0  0  0  0  0  0
  1  3  1  0  0  0  0
  1  7  1  0  0  0  0
  1  2  2  0  0  0  0
 37 38  1  0  0  0  0
 38 46  1  0  0  0  0
 38 39  2  0  0  0  0
  8  9  1  0  0  0  0
  9 17  1  0  0  0  0
  9 10  2  0  0  0  0
 18 19  1  0  0  0  0
 19 36  1  0  0  0  0
 19 20  2  0  0  0  0
 37 40  1  0  0  0  0
  8 11  1  0  0  0  0
 22 23  1  0  0  0  0
 22 24  1  0  0  0  0
 46 47  1  0  0  0  0
 18 21  1  0  0  0  0
 21 22  1  0  0  0  0
 36 37  1  0  0  0  0
  7  8  1  0  0  0  0
 17 18  1  0  0  0  0
  3  4  1  0  0  0  0
  3  5  1  0  0  0  0
  3  6  1  0  0  0  0
 40 43  1  0  0  0  0
 40 44  1  0  0  0  0
 40 45  1  0  0  0  0
 11 14  1  0  0  0  0
 11 15  1  0  0  0  0
 11 16  1  0  0  0  0
 23 30  1  0  0  0  0
 23 31  1  0  0  0  0
 23 32  1  0  0  0  0
 24 33  1  0  0  0  0
 24 34  1  0  0  0  0
 24 35  1  0  0  0  0
 47 49  1  0  0  0  0
 47 50  1  0  0  0  0
 47 51  1  0  0  0  0
 21 27  1  0  0  0  0
 21 28  1  0  0  0  0
 37 42  1  0  0  0  0
  8 13  1  0  0  0  0
 18 26  1  0  0  0  0
 22 29  1  0  0  0  0
 46 48  1  0  0  0  0
  7 12  1  0  0  0  0
 36 41  1  0  0  0  0
 17 25  1  0  0  0  0
M  END
$$$$

  -OEChem-05262214473D

 51 50  0     1  0  0  0  0  0999 V2000
    3.4018   -1.2440   -3.0186 C   0  0  0  0  0  0  0  0  0  0  0  0
    3.2697   -2.0909   -2.1427 O   0  0  0  0  0  0  0  0  0  0  0  0
    4.6845   -1.1645   -3.7779 C   0  0  0  0  0  0  0  0  0  0  0  0
    5.4123   -0.4862   -3.3041 H   0  0  0  0  0  0  0  0  0  0  0  0
    5.1949   -2.1387   -3.8443 H   0  0  0  0  0  0  0  0  0  0  0  0
    4.5953   -0.8128   -4.8182 H   0  0  0  0  0  0  0  0  0  0  0  0
    2.4540   -0.3103   -3.4040 N   0  0  0  0  0  0  0  0  0  0  0  0
    1.1494   -0.2128   -2.8039 C   0  0  2  0  0  0  0  0  0  0  0  0
    1.3350    0.0367   -1.3130 C   0  0  0  0  0  0  0  0  0  0  0  0
    2.3625   -0.2586   -0.7063 O   0  0  0  0  0  0  0  0  0  0  0  0
    0.3331   -1.4728   -3.0467 C   0  0  0  0  0  0  0  0  0  0  0  0
    2.6924    0.3404   -4.1502 H   0  0  0  0  0  0  0  0  0  0  0  0
    0.6550    0.6514   -3.2607 H   0  0  0  0  0  0  0  0  0  0  0  0
    0.8129   -2.3494   -2.5963 H   0  0  0  0  0  0  0  0  0  0  0  0
   -0.6690   -1.3857   -2.6142 H   0  0  0  0  0  0  0  0  0  0  0  0
    0.2259   -1.6670   -4.1194 H   0  0  0  0  0  0  0  0  0  0  0  0
    0.2019    0.5893   -0.7269 N   0  0  0  0  0  0  0  0  0  0  0  0
    0.1242    0.9059    0.6756 C   0  0  2  0  0  0  0  0  0  0  0  0
    1.4251    1.6092    1.0499 C   0  0  0  0  0  0  0  0  0  0  0  0
    2.0858    1.3103    2.0425 O   0  0  0  0  0  0  0  0  0  0  0  0
   -0.0716   -0.3441    1.5430 C   0  0  0  0  0  0  0  0  0  0  0  0
   -1.4192   -1.0667    1.3417 C   0  0  0  0  0  0  0  0  0  0  0  0
   -1.4312   -2.3699    2.1456 C   0  0  0  0  0  0  0  0  0  0  0  0
   -1.7052   -1.3670   -0.1303 C   0  0  0  0  0  0  0  0  0  0  0  0
   -0.5975    0.8179   -1.3140 H   0  0  0  0  0  0  0  0  0  0  0  0
   -0.7047    1.6103    0.7986 H   0  0  0  0  0  0  0  0  0  0  0  0
    0.0200   -0.0595    2.6007 H   0  0  0  0  0  0  0  0  0  0  0  0
    0.7466   -1.0512    1.3522 H   0  0  0  0  0  0  0  0  0  0  0  0
   -2.2280   -0.4338    1.7268 H   0  0  0  0  0  0  0  0  0  0  0  0
   -0.6402   -3.0457    1.8034 H   0  0  0  0  0  0  0  0  0  0  0  0
   -2.3873   -2.8909    2.0279 H   0  0  0  0  0  0  0  0  0  0  0  0
   -1.2769   -2.1805    3.2134 H   0  0  0  0  0  0  0  0  0  0  0  0
   -0.9238   -1.9991   -0.5656 H   0  0  0  0  0  0  0  0  0  0  0  0
   -2.6620   -1.8888   -0.2411 H   0  0  0  0  0  0  0  0  0  0  0  0
   -1.7695   -0.4478   -0.7198 H   0  0  0  0  0  0  0  0  0  0  0  0
    1.7832    2.5725    0.1170 N   0  0  0  0  0  0  0  0  0  0  0  0
    2.9865    3.3664    0.2195 C   0  0  2  0  0  0  0  0  0  0  0  0
    4.1037    2.4639    0.7263 C   0  0  0  0  0  0  0  0  0  0  0  0
    3.8961    1.4265    1.3521 O   0  0  0  0  0  0  0  0  0  0  0  0
    2.7869    4.5565    1.1450 C   0  0  0  0  0  0  0  0  0  0  0  0
    1.1847    2.7313   -0.6881 H   0  0  0  0  0  0  0  0  0  0  0  0
    3.2252    3.7109   -0.7926 H   0  0  0  0  0  0  0  0  0  0  0  0
    2.5469    4.2310    2.1638 H   0  0  0  0  0  0  0  0  0  0  0  0
    3.6904    5.1728    1.1992 H   0  0  0  0  0  0  0  0  0  0  0  0
    1.9635    5.1885    0.7953 H   0  0  0  0  0  0  0  0  0  0  0  0
    5.3605    2.9755    0.4351 N   0  0  0  0  0  0  0  0  0  0  0  0
    6.5822    2.3095    0.8222 C   0  0  0  0  0  0  0  0  0  0  0  0
    5.4384    3.8326   -0.1046 H   0  0  0  0  0  0  0  0  0  0  0  0
    6.9149    2.6911    1.7988 H   0  0  0  0  0  0  0  0  0  0  0  0
    6.4026    1.2267    0.8937 H   0  0  0  0  0  0  0  0  0  0  0  0
    7.3599    2.5033    0.0687 H   0  0  0  0  0  0  0  0  0  0  0  0
  1  3  1  0  0  0  0
  1  7  1  0  0  0  0
  1  2  2  0  0  0  0
 37 38  1  0  0  0  0
 38 46  1  0  0  0  0
 38 39  2  0  0  0  0
  8  9  1  0  0  0  0
  9 17  1  0  0  0  0
  9 10  2  0  0  0  0
 18 19  1  0  0  0  0
 19 36  1  0  0  0  0
 19 20  2  0  0  0  0
 37 40  1  0  0  0  0
  8 11  1  0  0  0  0
 22 23  1  0  0  0  0
 22 24  1  0  0  0  0
 46 47  1  0  0  0  0
 18 21  1  0  0  0  0
 21 22  1  0  0  0  0
 36 37  1  0  0  0  0
  7  8  1  0  0  0  0
 17 18  1  0  0  0  0
  3  4  1  0  0  0  0
  3  5  1  0  0  0  0
  3  6  1  0  0  0  0
 40 43  1  0  0  0  0
 40 44  1  0  0  0  0
 40 45  1  0  0  0  0
 11 14  1  0  0  0  0
 11 15  1  0  0  0  0
 11 16  1  0  0  0  0
 23 30  1  0  0  0  0
 23 31  1  0  0  0  0
 23 32  1  0  0  0  0
 24 33  1  0  0  0  0
 24 34  1  0  0  0  0
 24 35  1  0  0  0  0
 47 49  1  0  0  0  0
 47 50  1  0  0  0  0
 47 51  1  0  0  0  0
 21 27  1  0  0  0  0
 21 28  1  0  0  0  0
 37 42  1  0  0  0  0
  8 13  1  0  0  0  0
 18 26  1  0  0  0  0
 22 29  1  0  0  0  0
 46 48  1  0  0  0  0
  7 12  1  0  0  0  0
 36 41  1  0  0  0  0
 17 25  1  0  0  0  0
M  END
$$$$

  -OEChem-05262214473D

 51 50  0     1  0  0  0  0  0999 V2000
    3.4018   -1.2440   -3.0186 C   0  0  0  0  0  0  0  0  0  0  0  0
    3.2697   -2.0909   -2.1427 O   0  0  0  0  0  0  0  0  0  0  0  0
    4.6845   -1.1645   -3.7779 C   0  0  0  0  0  0  0  0  0  0  0  0
    5.4123   -0.4862   -3.3041 H   0  0  0  0  0  0  0  0  0  0  0  0
    5.1949   -2.1387   -3.8443 H   0  0  0  0  0  0  0  0  0  0  0  0
    4.5953   -0.8128   -4.8182 H   0  0  0  0  0  0  0  0  0  0  0  0
    2.4540   -0.3103   -3.4040 N   0  0  0  0  0  0  0  0  0  0  0  0
    1.1494   -0.2128   -2.8039 C   0  0  2  0  0  0  0  0  0  0  0  0
    1.3350    0.0367   -1.3130 C   0  0  0  0  0  0  0  0  0  0  0  0
    2.3625   -0.2586   -0.7063 O   0  0  0  0  0  0  0  0  0  0  0  0
    0.3331   -1.4728   -3.0467 C   0  0  0  0  0  0  0  0  0  0  0  0
    2.6924    0.3404   -4.1502 H   0  0  0  0  0  0  0  0  0  0  0  0
    0.6550    0.6514   -3.2607 H   0  0  0  0  0  0  0  0  0  0  0  0
    0.8129   -2.3494   -2.5963 H   0  0  0  0  0  0  0  0  0  0  0  0
   -0.6690   -1.3857   -2.6142 H   0  0  0  0  0  0  0  0  0  0  0  0
    0.2259   -1.6670   -4.1194 H   0  0  0  0  0  0  0  0  0  0  0  0
    0.2019    0.5893   -0.7269 N   0  0  0  0  0  0  0  0  0  0  0  0
    0.1242    0.9059    0.6756 C   0  0  2  0  0  0  0  0  0  0  0  0
    1.4251    1.6092    1.0499 C   0  0  0  0  0  0  0  0  0  0  0  0
    2.2202    1.1539    1.8695 O   0  0  0  0  0  0  0  0  0  0  0  0
   -0.0716   -0.3441    1.5430 C   0  0  0  0  0  0  0  0  0  0  0  0
   -1.4192   -1.0667    1.3417 C   0  0  0  0  0  0  0  0  0  0  0  0
   -1.4312   -2.3699    2.1456 C   0  0  0  0  0  0  0  0  0  0  0  0
   -1.7052   -1.3670   -0.1303 C   0  0  0  0  0  0  0  0  0  0  0  0
   -0.5975    0.8179   -1.3140 H   0  0  0  0  0  0  0  0  0  0  0  0
   -0.7047    1.6103    0.7986 H   0  0  0  0  0  0  0  0  0  0  0  0
    0.0200   -0.0595    2.6007 H   0  0  0  0  0  0  0  0  0  0  0  0
    0.7466   -1.0512    1.3522 H   0  0  0  0  0  0  0  0  0  0  0  0
   -2.2280   -0.4338    1.7268 H   0  0  0  0  0  0  0  0  0  0  0  0
   -0.6402   -3.0457    1.8034 H   0  0  0  0  0  0  0  0  0  0  0  0
   -2.3873   -2.8909    2.0279 H   0  0  0  0  0  0  0  0  0  0  0  0
   -1.2769   -2.1805    3.2134 H   0  0  0  0  0  0  0  0  0  0  0  0
   -0.9238   -1.9991   -0.5656 H   0  0  0  0  0  0  0  0  0  0  0  0
   -2.6620   -1.8888   -0.2411 H   0  0  0  0  0  0  0  0  0  0  0  0
   -1.7695   -0.4478   -0.7198 H   0  0  0  0  0  0  0  0  0  0  0  0
    1.6136    2.7765    0.3230 N   0  0  0  0  0  0  0  0  0  0  0  0
    2.7789    3.6195    0.4655 C   0  0  2  0  0  0  0  0  0  0  0  0
    3.9950    2.7172    0.6281 C   0  0  0  0  0  0  0  0  0  0  0  0
    3.9205    1.5559    1.0241 O   0  0  0  0  0  0  0  0  0  0  0  0
    2.6386    4.5615    1.6510 C   0  0  0  0  0  0  0  0  0  0  0  0
    0.9109    3.0596   -0.3535 H   0  0  0  0  0  0  0  0  0  0  0  0
    2.8702    4.1925   -0.4636 H   0  0  0  0  0  0  0  0  0  0  0  0
    2.5459    4.0054    2.5910 H   0  0  0  0  0  0  0  0  0  0  0  0
    3.5096    5.2190    1.7406 H   0  0  0  0  0  0  0  0  0  0  0  0
    1.7469    5.1891    1.5468 H   0  0  0  0  0  0  0  0  0  0  0  0
    5.1777    3.3749    0.3200 N   0  0  0  0  0  0  0  0  0  0  0  0
    6.4704    2.7368    0.4081 C   0  0  0  0  0  0  0  0  0  0  0  0
    5.1436    4.3319   -0.0186 H   0  0  0  0  0  0  0  0  0  0  0  0
    6.9043    2.9220    1.4018 H   0  0  0  0  0  0  0  0  0  0  0  0
    6.3557    1.6537    0.2543 H   0  0  0  0  0  0  0  0  0  0  0  0
    7.1358    3.1485   -0.3650 H   0  0  0  0  0  0  0  0  0  0  0  0
  1  3  1  0  0  0  0
  1  7  1  0  0  0  0
  1  2  2  0  0  0  0
 37 38  1  0  0  0  0
 38 46  1  0  0  0  0
 38 39  2  0  0  0  0
  8  9  1  0  0  0  0
  9 17  1  0  0  0  0
  9 10  2  0  0  0  0
 18 19  1  0  0  0  0
 19 36  1  0  0  0  0
 19 20  2  0  0  0  0
 37 40  1  0  0  0  0
  8 11  1  0  0  0  0
 22 23  1  0  0  0  0
 22 24  1  0  0  0  0
 46 47  1  0  0  0  0
 18 21  1  0  0  0  0
 21 22  1  0  0  0  0
 36 37  1  0  0  0  0
  7  8  1  0  0  0  0
 17 18  1  0  0  0  0
  3  4  1  0  0  0  0
  3  5  1  0  0  0  0
  3  6  1  0  0  0  0
 40 43  1  0  0  0  0
 40 44  1  0  0  0  0
 40 45  1  0  0  0  0
 11 14  1  0  0  0  0
 11 15  1  0  0  0  0
 11 16  1  0  0  0  0
 23 30  1  0  0  0  0
 23 31  1  0  0  0  0
 23 32  1  0  0  0  0
 24 33  1  0  0  0  0
 24 34  1  0  0  0  0
 24 35  1  0  0  0  0
 47 49  1  0  0  0  0
 47 50  1  0  0  0  0
 47 51  1  0  0  0  0
 21 27  1  0  0  0  0
 21 28  1  0  0  0  0
 37 42  1  0  0  0  0
  8 13  1  0  0  0  0
 18 26  1  0  0  0  0
 22 29  1  0  0  0  0
 46 48  1  0  0  0  0
  7 12  1  0  0  0  0
 36 41  1  0  0  0  0
 17 25  1  0  0  0  0
M  END
$$$$

  -OEChem-05262214473D

 51 50  0     1  0  0  0  0  0999 V2000
    3.4018   -1.2440   -3.0186 C   0  0  0  0  0  0  0  0  0  0  0  0
    3.2697   -2.0909   -2.1427 O   0  0  0  0  0  0  0  0  0  0  0  0
    4.6845   -1.1645   -3.7779 C   0  0  0  0  0  0  0  0  0  0  0  0
    5.4123   -0.4862   -3.3041 H   0  0  0  0  0  0  0  0  0  0  0  0
    5.1949   -2.1387   -3.8443 H   0  0  0  0  0  0  0  0  0  0  0  0
    4.5953   -0.8128   -4.8182 H   0  0  0  0  0  0  0  0  0  0  0  0
    2.4540   -0.3103   -3.4040 N   0  0  0  0  0  0  0  0  0  0  0  0
    1.1494   -0.2128   -2.8039 C   0  0  2  0  0  0  0  0  0  0  0  0
    1.3350    0.0367   -1.3130 C   0  0  0  0  0  0  0  0  0  0  0  0
    2.3625   -0.2586   -0.7063 O   0  0  0  0  0  0  0  0  0  0  0  0
    0.3331   -1.4728   -3.0467 C   0  0  0  0  0  0  0  0  0  0  0  0
    2.6924    0.3404   -4.1502 H   0  0  0  0  0  0  0  0  0  0  0  0
    0.6550    0.6514   -3.2607 H   0  0  0  0  0  0  0  0  0  0  0  0
    0.8129   -2.3494   -2.5963 H   0  0  0  0  0  0  0  0  0  0  0  0
   -0.6690   -1.3857   -2.6142 H   0  0  0  0  0  0  0  0  0  0  0  0
    0.2259   -1.6670   -4.1194 H   0  0  0  0  0  0  0  0  0  0  0  0
    0.2019    0.5893   -0.7269 N   0  0  0  0  0  0  0  0  0  0  0  0
    0.1242    0.9059    0.6756 C   0  0  2  0  0  0  0  0  0  0  0  0
    1.4251    1.6092    1.0499 C   0  0  0  0  0  0  0  0  0  0  0  0
    2.3392    1.0495    1.6518 O   0  0  0  0  0  0  0  0  0  0  0  0
   -0.0716   -0.3441    1.5430 C   0  0  0  0  0  0  0  0  0  0  0  0
   -1.4192   -1.0667    1.3417 C   0  0  0  0  0  0  0  0  0  0  0  0
   -1.4312   -2.3699    2.1456 C   0  0  0  0  0  0  0  0  0  0  0  0
   -1.7052   -1.3670   -0.1303 C   0  0  0  0  0  0  0  0  0  0  0  0
   -0.5975    0.8179   -1.3140 H   0  0  0  0  0  0  0  0  0  0  0  0
   -0.7047    1.6103    0.7986 H   0  0  0  0  0  0  0  0  0  0  0  0
    0.0200   -0.0595    2.6007 H   0  0  0  0  0  0  0  0  0  0  0  0
    0.7466   -1.0512    1.3522 H   0  0  0  0  0  0  0  0  0  0  0  0
   -2.2280   -0.4338    1.7268 H   0  0  0  0  0  0  0  0  0  0  0  0
   -0.6402   -3.0457    1.8034 H   0  0  0  0  0  0  0  0  0  0  0  0
   -2.3873   -2.8909    2.0279 H   0  0  0  0  0  0  0  0  0  0  0  0
   -1.2769   -2.1805    3.2134 H   0  0  0  0  0  0  0  0  0  0  0  0
   -0.9238   -1.9991   -0.5656 H   0  0  0  0  0  0  0  0  0  0  0  0
   -2.6620   -1.8888   -0.2411 H   0  0  0  0  0  0  0  0  0  0  0  0
   -1.7695   -0.4478   -0.7198 H   0  0  0  0  0  0  0  0  0  0  0  0
    1.4615    2.9173    0.5872 N   0  0  0  0  0  0  0  0  0  0  0  0
    2.5916    3.7964    0.7837 C   0  0  2  0  0  0  0  0  0  0  0  0
    3.8622    2.9766    0.6020 C   0  0  0  0  0  0  0  0  0  0  0  0
    3.8967    1.7548    0.7330 O   0  0  0  0  0  0  0  0  0  0  0  0
    2.5554    4.4453    2.1586 C   0  0  0  0  0  0  0  0  0  0  0  0
    0.6655    3.2855    0.0749 H   0  0  0  0  0  0  0  0  0  0  0  0
    2.5359    4.5626    0.0028 H   0  0  0  0  0  0  0  0  0  0  0  0
    2.6103    3.6931    2.9540 H   0  0  0  0  0  0  0  0  0  0  0  0
    3.3967    5.1327    2.2952 H   0  0  0  0  0  0  0  0  0  0  0  0
    1.6273    5.0100    2.2987 H   0  0  0  0  0  0  0  0  0  0  0  0
    4.9620    3.7744    0.3189 N   0  0  0  0  0  0  0  0  0  0  0  0
    6.2858    3.2338    0.1158 C   0  0  0  0  0  0  0  0  0  0  0  0
    4.8375    4.7766    0.2098 H   0  0  0  0  0  0  0  0  0  0  0  0
    6.8321    3.2319    1.0706 H   0  0  0  0  0  0  0  0  0  0  0  0
    6.2070    2.2042   -0.2635 H   0  0  0  0  0  0  0  0  0  0  0  0
    6.8267    3.8533   -0.6147 H   0  0  0  0  0  0  0  0  0  0  0  0
  1  3  1  0  0  0  0
  1  7  1  0  0  0  0
  1  2  2  0  0  0  0
 37 38  1  0  0  0  0
 38 46  1  0  0  0  0
 38 39  2  0  0  0  0
  8  9  1  0  0  0  0
  9 17  1  0  0  0  0
  9 10  2  0  0  0  0
 18 19  1  0  0  0  0
 19 36  1  0  0  0  0
 19 20  2  0  0  0  0
 37 40  1  0  0  0  0
  8 11  1  0  0  0  0
 22 23  1  0  0  0  0
 22 24  1  0  0  0  0
 46 47  1  0  0  0  0
 18 21  1  0  0  0  0
 21 22  1  0  0  0  0
 36 37  1  0  0  0  0
  7  8  1  0  0  0  0
 17 18  1  0  0  0  0
  3  4  1  0  0  0  0
  3  5  1  0  0  0  0
  3  6  1  0  0  0  0
 40 43  1  0  0  0  0
 40 44  1  0  0  0  0
 40 45  1  0  0  0  0
 11 14  1  0  0  0  0
 11 15  1  0  0  0  0
 11 16  1  0  0  0  0
 23 30  1  0  0  0  0
 23 31  1  0  0  0  0
 23 32  1  0  0  0  0
 24 33  1  0  0  0  0
 24 34  1  0  0  0  0
 24 35  1  0  0  0  0
 47 49  1  0  0  0  0
 47 50  1  0  0  0  0
 47 51  1  0  0  0  0
 21 27  1  0  0  0  0
 21 28  1  0  0  0  0
 37 42  1  0  0  0  0
  8 13  1  0  0  0  0
 18 26  1  0  0  0  0
 22 29  1  0  0  0  0
 46 48  1  0  0  0  0
  7 12  1  0  0  0  0
 36 41  1  0  0  0  0
 17 25  1  0  0  0  0
M  END
$$$$

  -OEChem-05262214473D

 51 50  0     1  0  0  0  0  0999 V2000
    3.4018   -1.2440   -3.0186 C   0  0  0  0  0  0  0  0  0  0  0  0
    3.2697   -2.0909   -2.1427 O   0  0  0  0  0  0  0  0  0  0  0  0
    4.6845   -1.1645   -3.7779 C   0  0  0  0  0  0  0  0  0  0  0  0
    5.4123   -0.4862   -3.3041 H   0  0  0  0  0  0  0  0  0  0  0  0
    5.1949   -2.1387   -3.8443 H   0  0  0  0  0  0  0  0  0  0  0  0
    4.5953   -0.8128   -4.8182 H   0  0  0  0  0  0  0  0  0  0  0  0
    2.4540   -0.3103   -3.4040 N   0  0  0  0  0  0  0  0  0  0  0  0
    1.1494   -0.2128   -2.8039 C   0  0  2  0  0  0  0  0  0  0  0  0
    1.3350    0.0367   -1.3130 C   0  0  0  0  0  0  0  0  0  0  0  0
    2.3625   -0.2586   -0.7063 O   0  0  0  0  0  0  0  0  0  0  0  0
    0.3331   -1.4728   -3.0467 C   0  0  0  0  0  0  0  0  0  0  0  0
    2.6924    0.3404   -4.1502 H   0  0  0  0  0  0  0  0  0  0  0  0
    0.6550    0.6514   -3.2607 H   0  0  0  0  0  0  0  0  0  0  0  0
    0.8129   -2.3494   -2.5963 H   0  0  0  0  0  0  0  0  0  0  0  0
   -0.6690   -1.3857   -2.6142 H   0  0  0  0  0  0  0  0  0  0  0  0
    0.2259   -1.6670   -4.1194 H   0  0  0  0  0  0  0  0  0  0  0  0
    0.2019    0.5893   -0.7269 N   0  0  0  0  0  0  0  0  0  0  0  0
    0.1242    0.9059    0.6756 C   0  0  2  0  0  0  0  0  0  0  0  0
    1.4251    1.6092    1.0499 C   0  0  0  0  0  0  0  0  0  0  0  0
    2.4349    1.0043    1.4042 O   0  0  0  0  0  0  0  0  0  0  0  0
   -0.0716   -0.3441    1.5430 C   0  0  0  0  0  0  0  0  0  0  0  0
   -1.4192   -1.0667    1.3417 C   0  0  0  0  0  0  0  0  0  0  0  0
   -1.4312   -2.3699    2.1456 C   0  0  0  0  0  0  0  0  0  0  0  0
   -1.7052   -1.3670   -0.1303 C   0  0  0  0  0  0  0  0  0  0  0  0
   -0.5975    0.8179   -1.3140 H   0  0  0  0  0  0  0  0  0  0  0  0
   -0.7047    1.6103    0.7986 H   0  0  0  0  0  0  0  0  0  0  0  0
    0.0200   -0.0595    2.6007 H   0  0  0  0  0  0  0  0  0  0  0  0
    0.7466   -1.0512    1.3522 H   0  0  0  0  0  0  0  0  0  0  0  0
   -2.2280   -0.4338    1.7268 H   0  0  0  0  0  0  0  0  0  0  0  0
   -0.6402   -3.0457    1.8034 H   0  0  0  0  0  0  0  0  0  0  0  0
   -2.3873   -2.8909    2.0279 H   0  0  0  0  0  0  0  0  0  0  0  0
   -1.2769   -2.1805    3.2134 H   0  0  0  0  0  0  0  0  0  0  0  0
   -0.9238   -1.9991   -0.5656 H   0  0  0  0  0  0  0  0  0  0  0  0
   -2.6620   -1.8888   -0.2411 H   0  0  0  0  0  0  0  0  0  0  0  0
   -1.7695   -0.4478   -0.7198 H   0  0  0  0  0  0  0  0  0  0  0  0
    1.3370    2.9854    0.8917 N   0  0  0  0  0  0  0  0  0  0  0  0
    2.4375    3.8851    1.1525 C   0  0  2  0  0  0  0  0  0  0  0  0
    3.7144    3.2245    0.6500 C   0  0  0  0  0  0  0  0  0  0  0  0
    3.8264    2.0098    0.4985 O   0  0  0  0  0  0  0  0  0  0  0  0
    2.5429    4.2157    2.6332 C   0  0  0  0  0  0  0  0  0  0  0  0
    0.4652    3.3935    0.5677 H   0  0  0  0  0  0  0  0  0  0  0  0
    2.2451    4.7959    0.5750 H   0  0  0  0  0  0  0  0  0  0  0  0
    2.7356    3.3154    3.2281 H   0  0  0  0  0  0  0  0  0  0  0  0
    3.3592    4.9198    2.8254 H   0  0  0  0  0  0  0  0  0  0  0  0
    1.6129    4.6635    2.9997 H   0  0  0  0  0  0  0  0  0  0  0  0
    4.7282    4.1469    0.4317 N   0  0  0  0  0  0  0  0  0  0  0  0
    6.0411    3.7666   -0.0348 C   0  0  0  0  0  0  0  0  0  0  0  0
    4.5408    5.1363    0.5652 H   0  0  0  0  0  0  0  0  0  0  0  0
    6.7031    3.5997    0.8276 H   0  0  0  0  0  0  0  0  0  0  0  0
    5.9667    2.8409   -0.6243 H   0  0  0  0  0  0  0  0  0  0  0  0
    6.4535    4.5695   -0.6635 H   0  0  0  0  0  0  0  0  0  0  0  0
  1  3  1  0  0  0  0
  1  7  1  0  0  0  0
  1  2  2  0  0  0  0
 37 38  1  0  0  0  0
 38 46  1  0  0  0  0
 38 39  2  0  0  0  0
  8  9  1  0  0  0  0
  9 17  1  0  0  0  0
  9 10  2  0  0  0  0
 18 19  1  0  0  0  0
 19 36  1  0  0  0  0
 19 20  2  0  0  0  0
 37 40  1  0  0  0  0
  8 11  1  0  0  0  0
 22 23  1  0  0  0  0
 22 24  1  0  0  0  0
 46 47  1  0  0  0  0
 18 21  1  0  0  0  0
 21 22  1  0  0  0  0
 36 37  1  0  0  0  0
  7  8  1  0  0  0  0
 17 18  1  0  0  0  0
  3  4  1  0  0  0  0
  3  5  1  0  0  0  0
  3  6  1  0  0  0  0
 40 43  1  0  0  0  0
 40 44  1  0  0  0  0
 40 45  1  0  0  0  0
 11 14  1  0  0  0  0
 11 15  1  0  0  0  0
 11 16  1  0  0  0  0
 23 30  1  0  0  0  0
 23 31  1  0  0  0  0
 23 32  1  0  0  0  0
 24 33  1  0  0  0  0
 24 34  1  0  0  0  0
 24 35  1  0  0  0  0
 47 49  1  0  0  0  0
 47 50  1  0  0  0  0
 47 51  1  0  0  0  0
 21 27  1  0  0  0  0
 21 28  1  0  0  0  0
 37 42  1  0  0  0  0
  8 13  1  0  0  0  0
 18 26  1  0  0  0  0
 22 29  1  0  0  0  0
 46 48  1  0  0  0  0
  7 12  1  0  0  0  0
 36 41  1  0  0  0  0
 17 25  1  0  0  0  0
M  END
$$$$

  -OEChem-05262214473D

 51 50  0     1  0  0  0  0  0999 V2000
    3.4018   -1.2440   -3.0186 C   0  0  0  0  0  0  0  0  0  0  0  0
    3.2697   -2.0909   -2.1427 O   0  0  0  0  0  0  0  0  0  0  0  0
    4.6845   -1.1645   -3.7779 C   0  0  0  0  0  0  0  0  0  0  0  0
    5.4123   -0.4862   -3.3041 H   0  0  0  0  0  0  0  0  0  0  0  0
    5.1949   -2.1387   -3.8443 H   0  0  0  0  0  0  0  0  0  0  0  0
    4.5953   -0.8128   -4.8182 H   0  0  0  0  0  0  0  0  0  0  0  0
    2.4540   -0.3103   -3.4040 N   0  0  0  0  0  0  0  0  0  0  0  0
    1.1494   -0.2128   -2.8039 C   0  0  2  0  0  0  0  0  0  0  0  0
    1.3350    0.0367   -1.3130 C   0  0  0  0  0  0  0  0  0  0  0  0
    2.3625   -0.2586   -0.7063 O   0  0  0  0  0  0  0  0  0  0  0  0
    0.3331   -1.4728   -3.0467 C   0  0  0  0  0  0  0  0  0  0  0  0
    2.6924    0.3404   -4.1502 H   0  0  0  0  0  0  0  0  0  0  0  0
    0.6550    0.6514   -3.2607 H   0  0  0  0  0  0  0  0  0  0  0  0
    0.8129   -2.3494   -2.5963 H   0  0  0  0  0  0  0  0  0  0  0  0
   -0.6690   -1.3857   -2.6142 H   0  0  0  0  0  0  0  0  0  0  0  0
    0.2259   -1.6670   -4.1194 H   0  0  0  0  0  0  0  0  0  0  0  0
    0.2019    0.5893   -0.7269 N   0  0  0  0  0  0  0  0  0  0  0  0
    0.1242    0.9059    0.6756 C   0  0  2  0  0  0  0  0  0  0  0  0
    1.4251    1.6092    1.0499 C   0  0  0  0  0  0  0  0  0  0  0  0
    2.5006    1.0214    1.1437 O   0  0  0  0  0  0  0  0  0  0  0  0
   -0.0716   -0.3441    1.5430 C   0  0  0  0  0  0  0  0  0  0  0  0
   -1.4192   -1.0667    1.3417 C   0  0  0  0  0  0  0  0  0  0  0  0
   -1.4312   -2.3699    2.1456 C   0  0  0  0  0  0  0  0  0  0  0  0
   -1.7052   -1.3670   -0.1303 C   0  0  0  0  0  0  0  0  0  0  0  0
   -0.5975    0.8179   -1.3140 H   0  0  0  0  0  0  0  0  0  0  0  0
   -0.7047    1.6103    0.7986 H   0  0  0  0  0  0  0  0  0  0  0  0
    0.0200   -0.0595    2.6007 H   0  0  0  0  0  0  0  0  0  0  0  0
    0.7466   -1.0512    1.3522 H   0  0  0  0  0  0  0  0  0  0  0  0
   -2.2280   -0.4338    1.7268 H   0  0  0  0  0  0  0  0  0  0  0  0
   -0.6402   -3.0457    1.8034 H   0  0  0  0  0  0  0  0  0  0  0  0
   -2.3873   -2.8909    2.0279 H   0  0  0  0  0  0  0  0  0  0  0  0
   -1.2769   -2.1805    3.2134 H   0  0  0  0  0  0  0  0  0  0  0  0
   -0.9238   -1.9991   -0.5656 H   0  0  0  0  0  0  0  0  0  0  0  0
   -2.6620   -1.8888   -0.2411 H   0  0  0  0  0  0  0  0  0  0  0  0
   -1.7695   -0.4478   -0.7198 H   0  0  0  0  0  0  0  0  0  0  0  0
    1.2489    2.9760    1.2157 N   0  0  0  0  0  0  0  0  0  0  0  0
    2.3270    3.8797    1.5468 C   0  0  2  0  0  0  0  0  0  0  0  0
    3.5616    3.4440    0.7687 C   0  0  0  0  0  0  0  0  0  0  0  0
    3.7143    2.3033    0.3367 O   0  0  0  0  0  0  0  0  0  0  0  0
    2.6021    3.8884    3.0424 C   0  0  0  0  0  0  0  0  0  0  0  0
    0.3237    3.3764    1.0916 H   0  0  0  0  0  0  0  0  0  0  0  0
    2.0177    4.8764    1.2138 H   0  0  0  0  0  0  0  0  0  0  0  0
    2.9134    2.8981    3.3944 H   0  0  0  0  0  0  0  0  0  0  0  0
    3.3999    4.5947    3.2950 H   0  0  0  0  0  0  0  0  0  0  0  0
    1.7047    4.1732    3.6021 H   0  0  0  0  0  0  0  0  0  0  0  0
    4.4921    4.4669    0.6508 N   0  0  0  0  0  0  0  0  0  0  0  0
    5.7529    4.2990   -0.0335 C   0  0  0  0  0  0  0  0  0  0  0  0
    4.2738    5.3864    1.0232 H   0  0  0  0  0  0  0  0  0  0  0  0
    6.5262    4.0005    0.6896 H   0  0  0  0  0  0  0  0  0  0  0  0
    5.6510    3.5202   -0.8037 H   0  0  0  0  0  0  0  0  0  0  0  0
    6.0417    5.2484   -0.5081 H   0  0  0  0  0  0  0  0  0  0  0  0
  1  3  1  0  0  0  0
  1  7  1  0  0  0  0
  1  2  2  0  0  0  0
 37 38  1  0  0  0  0
 38 46  1  0  0  0  0
 38 39  2  0  0  0  0
  8  9  1  0  0  0  0
  9 17  1  0  0  0  0
  9 10  2  0  0  0  0
 18 19  1  0  0  0  0
 19 36  1  0  0  0  0
 19 20  2  0  0  0  0
 37 40  1  0  0  0  0
  8 11  1  0  0  0  0
 22 23  1  0  0  0  0
 22 24  1  0  0  0  0
 46 47  1  0  0  0  0
 18 21  1  0  0  0  0
 21 22  1  0  0  0  0
 36 37  1  0  0  0  0
  7  8  1  0  0  0  0
 17 18  1  0  0  0  0
  3  4  1  0  0  0  0
  3  5  1  0  0  0  0
  3  6  1  0  0  0  0
 40 43  1  0  0  0  0
 40 44  1  0  0  0  0
 40 45  1  0  0  0  0
 11 14  1  0  0  0  0
 11 15  1  0  0  0  0
 11 16  1  0  0  0  0
 23 30  1  0  0  0  0
 23 31  1  0  0  0  0
 23 32  1  0  0  0  0
 24 33  1  0  0  0  0
 24 34  1  0  0  0  0
 24 35  1  0  0  0  0
 47 49  1  0  0  0  0
 47 50  1  0  0  0  0
 47 51  1  0  0  0  0
 21 27  1  0  0  0  0
 21 28  1  0  0  0  0
 37 42  1  0  0  0  0
  8 13  1  0  0  0  0
 18 26  1  0  0  0  0
 22 29  1  0  0  0  0
 46 48  1  0  0  0  0
  7 12  1  0  0  0  0
 36 41  1  0  0  0  0
 17 25  1  0  0  0  0
M  END
$$$$

  -OEChem-05262214473D

 51 50  0     1  0  0  0  0  0999 V2000
    3.4018   -1.2440   -3.0186 C   0  0  0  0  0  0  0  0  0  0  0  0
    3.2697   -2.0909   -2.1427 O   0  0  0  0  0  0  0  0  0  0  0  0
    4.6845   -1.1645   -3.7779 C   0  0  0  0  0  0  0  0  0  0  0  0
    5.4123   -0.4862   -3.3041 H   0  0  0  0  0  0  0  0  0  0  0  0
    5.1949   -2.1387   -3.8443 H   0  0  0  0  0  0  0  0  0  0  0  0
    4.5953   -0.8128   -4.8182 H   0  0  0  0  0  0  0  0  0  0  0  0
    2.4540   -0.3103   -3.4040 N   0  0  0  0  0  0  0  0  0  0  0  0
    1.1494   -0.2128   -2.8039 C   0  0  2  0  0  0  0  0  0  0  0  0
    1.3350    0.0367   -1.3130 C   0  0  0  0  0  0  0  0  0  0  0  0
    2.3625   -0.2586   -0.7063 O   0  0  0  0  0  0  0  0  0  0  0  0
    0.3331   -1.4728   -3.0467 C   0  0  0  0  0  0  0  0  0  0  0  0
    2.6924    0.3404   -4.1502 H   0  0  0  0  0  0  0  0  0  0  0  0
    0.6550    0.6514   -3.2607 H   0  0  0  0  0  0  0  0  0  0  0  0
    0.8129   -2.3494   -2.5963 H   0  0  0  0  0  0  0  0  0  0  0  0
   -0.6690   -1.3857   -2.6142 H   0  0  0  0  0  0  0  0  0  0  0  0
    0.2259   -1.6670   -4.1194 H   0  0  0  0  0  0  0  0  0  0  0  0
    0.2019    0.5893   -0.7269 N   0  0  0  0  0  0  0  0  0  0  0  0
    0.1242    0.9059    0.6756 C   0  0  2  0  0  0  0  0  0  0  0  0
    1.4251    1.6092    1.0499 C   0  0  0  0  0  0  0  0  0  0  0  0
    2.5320    1.0996    0.8881 O   0  0  0  0  0  0  0  0  0  0  0  0
   -0.0716   -0.3441    1.5430 C   0  0  0  0  0  0  0  0  0  0  0  0
   -1.4192   -1.0667    1.3417 C   0  0  0  0  0  0  0  0  0  0  0  0
   -1.4312   -2.3699    2.1456 C   0  0  0  0  0  0  0  0  0  0  0  0
   -1.7052   -1.3670   -0.1303 C   0  0  0  0  0  0  0  0  0  0  0  0
   -0.5975    0.8179   -1.3140 H   0  0  0  0  0  0  0  0  0  0  0  0
   -0.7047    1.6103    0.7986 H   0  0  0  0  0  0  0  0  0  0  0  0
    0.0200   -0.0595    2.6007 H   0  0  0  0  0  0  0  0  0  0  0  0
    0.7466   -1.0512    1.3522 H   0  0  0  0  0  0  0  0  0  0  0  0
   -2.2280   -0.4338    1.7268 H   0  0  0  0  0  0  0  0  0  0  0  0
   -0.6402   -3.0457    1.8034 H   0  0  0  0  0  0  0  0  0  0  0  0
   -2.3873   -2.8909    2.0279 H   0  0  0  0  0  0  0  0  0  0  0  0
   -1.2769   -2.1805    3.2134 H   0  0  0  0  0  0  0  0  0  0  0  0
   -0.9238   -1.9991   -0.5656 H   0  0  0  0  0  0  0  0  0  0  0  0
   -2.6620   -1.8888   -0.2411 H   0  0  0  0  0  0  0  0  0  0  0  0
   -1.7695   -0.4478   -0.7198 H   0  0  0  0  0  0  0  0  0  0  0  0
    1.2030    2.8898    1.5371 N   0  0  0  0  0  0  0  0  0  0  0  0
    2.2676    3.7804    1.9395 C   0  0  2  0  0  0  0  0  0  0  0  0
    3.4142    3.6201    0.9500 C   0  0  0  0  0  0  0  0  0  0  0  0
    3.5680    2.6154    0.2586 O   0  0  0  0  0  0  0  0  0  0  0  0
    2.7289    3.4857    3.3584 C   0  0  0  0  0  0  0  0  0  0  0  0
    0.2507    3.2353    1.6107 H   0  0  0  0  0  0  0  0  0  0  0  0
    1.8692    4.7988    1.8758 H   0  0  0  0  0  0  0  0  0  0  0  0
    3.1314    2.4696    3.4418 H   0  0  0  0  0  0  0  0  0  0  0  0
    3.5158    4.1796    3.6720 H   0  0  0  0  0  0  0  0  0  0  0  0
    1.8963    3.5724    4.0648 H   0  0  0  0  0  0  0  0  0  0  0  0
    4.2699    4.7127    0.9612 N   0  0  0  0  0  0  0  0  0  0  0  0
    5.4408    4.7946    0.1196 C   0  0  0  0  0  0  0  0  0  0  0  0
    4.0546    5.5099    1.5526 H   0  0  0  0  0  0  0  0  0  0  0  0
    6.3133    4.4068    0.6658 H   0  0  0  0  0  0  0  0  0  0  0  0
    5.2815    4.1959   -0.7893 H   0  0  0  0  0  0  0  0  0  0  0  0
    5.6194    5.8437   -0.1589 H   0  0  0  0  0  0  0  0  0  0  0  0
  1  3  1  0  0  0  0
  1  7  1  0  0  0  0
  1  2  2  0  0  0  0
 37 38  1  0  0  0  0
 38 46  1  0  0  0  0
 38 39  2  0  0  0  0
  8  9  1  0  0  0  0
  9 17  1  0  0  0  0
  9 10  2  0  0  0  0
 18 19  1  0  0  0  0
 19 36  1  0  0  0  0
 19 20  2  0  0  0  0
 37 40  1  0  0  0  0
  8 11  1  0  0  0  0
 22 23  1  0  0  0  0
 22 24  1  0  0  0  0
 46 47  1  0  0  0  0
 18 21  1  0  0  0  0
 21 22  1  0  0  0  0
 36 37  1  0  0  0  0
  7  8  1  0  0  0  0
 17 18  1  0  0  0  0
  3  4  1  0  0  0  0
  3  5  1  0  0  0  0
  3  6  1  0  0  0  0
 40 43  1  0  0  0  0
 40 44  1  0  0  0  0
 40 45  1  0  0  0  0
 11 14  1  0  0  0  0
 11 15  1  0  0  0  0
 11 16  1  0  0  0  0
 23 30  1  0  0  0  0
 23 31  1  0  0  0  0
 23 32  1  0  0  0  0
 24 33  1  0  0  0  0
 24 34  1  0  0  0  0
 24 35  1  0  0  0  0
 47 49  1  0  0  0  0
 47 50  1  0  0  0  0
 47 51  1  0  0  0  0
 21 27  1  0  0  0  0
 21 28  1  0  0  0  0
 37 42  1  0  0  0  0
  8 13  1  0  0  0  0
 18 26  1  0  0  0  0
 22 29  1  0  0  0  0
 46 48  1  0  0  0  0
  7 12  1  0  0  0  0
 36 41  1  0  0  0  0
 17 25  1  0  0  0  0
M  END
$$$$

  -OEChem-05262214473D

 51 50  0     1  0  0  0  0  0999 V2000
    3.4018   -1.2440   -3.0186 C   0  0  0  0  0  0  0  0  0  0  0  0
    3.2697   -2.0909   -2.1427 O   0  0  0  0  0  0  0  0  0  0  0  0
    4.6845   -1.1645   -3.7779 C   0  0  0  0  0  0  0  0  0  0  0  0
    5.4123   -0.4862   -3.3041 H   0  0  0  0  0  0  0  0  0  0  0  0
    5.1949   -2.1387   -3.8443 H   0  0  0  0  0  0  0  0  0  0  0  0
    4.5953   -0.8128   -4.8182 H   0  0  0  0  0  0  0  0  0  0  0  0
    2.4540   -0.3103   -3.4040 N   0  0  0  0  0  0  0  0  0  0  0  0
    1.1494   -0.2128   -2.8039 C   0  0  2  0  0  0  0  0  0  0  0  0
    1.3350    0.0367   -1.3130 C   0  0  0  0  0  0  0  0  0  0  0  0
    2.3625   -0.2586   -0.7063 O   0  0  0  0  0  0  0  0  0  0  0  0
    0.3331   -1.4728   -3.0467 C   0  0  0  0  0  0  0  0  0  0  0  0
    2.6924    0.3404   -4.1502 H   0  0  0  0  0  0  0  0  0  0  0  0
    0.6550    0.6514   -3.2607 H   0  0  0  0  0  0  0  0  0  0  0  0
    0.8129   -2.3494   -2.5963 H   0  0  0  0  0  0  0  0  0  0  0  0
   -0.6690   -1.3857   -2.6142 H   0  0  0  0  0  0  0  0  0  0  0  0
    0.2259   -1.6670   -4.1194 H   0  0  0  0  0  0  0  0  0  0  0  0
    0.2019    0.5893   -0.7269 N   0  0  0  0  0  0  0  0  0  0  0  0
    0.1242    0.9059    0.6756 C   0  0  2  0  0  0  0  0  0  0  0  0
    1.4251    1.6092    1.0499 C   0  0  0  0  0  0  0  0  0  0  0  0
    2.5267    1.2335    0.6546 O   0  0  0  0  0  0  0  0  0  0  0  0
   -0.0716   -0.3441    1.5430 C   0  0  0  0  0  0  0  0  0  0  0  0
   -1.4192   -1.0667    1.3417 C   0  0  0  0  0  0  0  0  0  0  0  0
   -1.4312   -2.3699    2.1456 C   0  0  0  0  0  0  0  0  0  0  0  0
   -1.7052   -1.3670   -0.1303 C   0  0  0  0  0  0  0  0  0  0  0  0
   -0.5975    0.8179   -1.3140 H   0  0  0  0  0  0  0  0  0  0  0  0
   -0.7047    1.6103    0.7986 H   0  0  0  0  0  0  0  0  0  0  0  0
    0.0200   -0.0595    2.6007 H   0  0  0  0  0  0  0  0  0  0  0  0
    0.7466   -1.0512    1.3522 H   0  0  0  0  0  0  0  0  0  0  0  0
   -2.2280   -0.4338    1.7268 H   0  0  0  0  0  0  0  0  0  0  0  0
   -0.6402   -3.0457    1.8034 H   0  0  0  0  0  0  0  0  0  0  0  0
   -2.3873   -2.8909    2.0279 H   0  0  0  0  0  0  0  0  0  0  0  0
   -1.2769   -2.1805    3.2134 H   0  0  0  0  0  0  0  0  0  0  0  0
   -0.9238   -1.9991   -0.5656 H   0  0  0  0  0  0  0  0  0  0  0  0
   -2.6620   -1.8888   -0.2411 H   0  0  0  0  0  0  0  0  0  0  0  0
   -1.7695   -0.4478   -0.7198 H   0  0  0  0  0  0  0  0  0  0  0  0
    1.2025    2.7327    1.8340 N   0  0  0  0  0  0  0  0  0  0  0  0
    2.2635    3.5940    2.3041 C   0  0  2  0  0  0  0  0  0  0  0  0
    3.2823    3.7408    1.1816 C   0  0  0  0  0  0  0  0  0  0  0  0
    3.3976    2.9248    0.2694 O   0  0  0  0  0  0  0  0  0  0  0  0
    2.9147    3.0350    3.5595 C   0  0  0  0  0  0  0  0  0  0  0  0
    0.2510    2.9797    2.0896 H   0  0  0  0  0  0  0  0  0  0  0  0
    1.8096    4.5683    2.5158 H   0  0  0  0  0  0  0  0  0  0  0  0
    3.3749    2.0590    3.3670 H   0  0  0  0  0  0  0  0  0  0  0  0
    3.6991    3.7029    3.9307 H   0  0  0  0  0  0  0  0  0  0  0  0
    2.1748    2.9022    4.3563 H   0  0  0  0  0  0  0  0  0  0  0  0
    4.0767    4.8675    1.3418 N   0  0  0  0  0  0  0  0  0  0  0  0
    5.1262    5.2198    0.4142 C   0  0  0  0  0  0  0  0  0  0  0  0
    3.8982    5.4985    2.1175 H   0  0  0  0  0  0  0  0  0  0  0  0
    6.0791    4.7910    0.7579 H   0  0  0  0  0  0  0  0  0  0  0  0
    4.8835    4.8220   -0.5822 H   0  0  0  0  0  0  0  0  0  0  0  0
    5.2153    6.3148    0.3601 H   0  0  0  0  0  0  0  0  0  0  0  0
  1  3  1  0  0  0  0
  1  7  1  0  0  0  0
  1  2  2  0  0  0  0
 37 38  1  0  0  0  0
 38 46  1  0  0  0  0
 38 39  2  0  0  0  0
  8  9  1  0  0  0  0
  9 17  1  0  0  0  0
  9 10  2  0  0  0  0
 18 19  1  0  0  0  0
 19 36  1  0  0  0  0
 19 20  2  0  0  0  0
 37 40  1  0  0  0  0
  8 11  1  0  0  0  0
 22 23  1  0  0  0  0
 22 24  1  0  0  0  0
 46 47  1  0  0  0  0
 18 21  1  0  0  0  0
 21 22  1  0  0  0  0
 36 37  1  0  0  0  0
  7  8  1  0  0  0  0
 17 18  1  0  0  0  0
  3  4  1  0  0  0  0
  3  5  1  0  0  0  0
  3  6  1  0  0  0  0
 40 43  1  0  0  0  0
 40 44  1  0  0  0  0
 40 45  1  0  0  0  0
 11 14  1  0  0  0  0
 11 15  1  0  0  0  0
 11 16  1  0  0  0  0
 23 30  1  0  0  0  0
 23 31  1  0  0  0  0
 23 32  1  0  0  0  0
 24 33  1  0  0  0  0
 24 34  1  0  0  0  0
 24 35  1  0  0  0  0
 47 49  1  0  0  0  0
 47 50  1  0  0  0  0
 47 51  1  0  0  0  0
 21 27  1  0  0  0  0
 21 28  1  0  0  0  0
 37 42  1  0  0  0  0
  8 13  1  0  0  0  0
 18 26  1  0  0  0  0
 22 29  1  0  0  0  0
 46 48  1  0  0  0  0
  7 12  1  0  0  0  0
 36 41  1  0  0  0  0
 17 25  1  0  0  0  0
M  END
$$$$

  -OEChem-05262214473D

 51 50  0     1  0  0  0  0  0999 V2000
    3.4018   -1.2440   -3.0186 C   0  0  0  0  0  0  0  0  0  0  0  0
    3.2697   -2.0909   -2.1427 O   0  0  0  0  0  0  0  0  0  0  0  0
    4.6845   -1.1645   -3.7779 C   0  0  0  0  0  0  0  0  0  0  0  0
    5.4123   -0.4862   -3.3041 H   0  0  0  0  0  0  0  0  0  0  0  0
    5.1949   -2.1387   -3.8443 H   0  0  0  0  0  0  0  0  0  0  0  0
    4.5953   -0.8128   -4.8182 H   0  0  0  0  0  0  0  0  0  0  0  0
    2.4540   -0.3103   -3.4040 N   0  0  0  0  0  0  0  0  0  0  0  0
    1.1494   -0.2128   -2.8039 C   0  0  2  0  0  0  0  0  0  0  0  0
    1.3350    0.0367   -1.3130 C   0  0  0  0  0  0  0  0  0  0  0  0
    2.3625   -0.2586   -0.7063 O   0  0  0  0  0  0  0  0  0  0  0  0
    0.3331   -1.4728   -3.0467 C   0  0  0  0  0  0  0  0  0  0  0  0
    2.6924    0.3404   -4.1502 H   0  0  0  0  0  0  0  0  0  0  0  0
    0.6550    0.6514   -3.2607 H   0  0  0  0  0  0  0  0  0  0  0  0
    0.8129   -2.3494   -2.5963 H   0  0  0  0  0  0  0  0  0  0  0  0
   -0.6690   -1.3857   -2.6142 H   0  0  0  0  0  0  0  0  0  0  0  0
    0.2259   -1.6670   -4.1194 H   0  0  0  0  0  0  0  0  0  0  0  0
    0.2019    0.5893   -0.7269 N   0  0  0  0  0  0  0  0  0  0  0  0
    0.1242    0.9059    0.6756 C   0  0  2  0  0  0  0  0  0  0  0  0
    1.4251    1.6092    1.0499 C   0  0  0  0  0  0  0  0  0  0  0  0
    2.4853    1.4140    0.4593 O   0  0  0  0  0  0  0  0  0  0  0  0
   -0.0716   -0.3441    1.5430 C   0  0  0  0  0  0  0  0  0  0  0  0
   -1.4192   -1.0667    1.3417 C   0  0  0  0  0  0  0  0  0  0  0  0
   -1.4312   -2.3699    2.1456 C   0  0  0  0  0  0  0  0  0  0  0  0
   -1.7052   -1.3670   -0.1303 C   0  0  0  0  0  0  0  0  0  0  0  0
   -0.5975    0.8179   -1.3140 H   0  0  0  0  0  0  0  0  0  0  0  0
   -0.7047    1.6103    0.7986 H   0  0  0  0  0  0  0  0  0  0  0  0
    0.0200   -0.0595    2.6007 H   0  0  0  0  0  0  0  0  0  0  0  0
    0.7466   -1.0512    1.3522 H   0  0  0  0  0  0  0  0  0  0  0  0
   -2.2280   -0.4338    1.7268 H   0  0  0  0  0  0  0  0  0  0  0  0
   -0.6402   -3.0457    1.8034 H   0  0  0  0  0  0  0  0  0  0  0  0
   -2.3873   -2.8909    2.0279 H   0  0  0  0  0  0  0  0  0  0  0  0
   -1.2769   -2.1805    3.2134 H   0  0  0  0  0  0  0  0  0  0  0  0
   -0.9238   -1.9991   -0.5656 H   0  0  0  0  0  0  0  0  0  0  0  0
   -2.6620   -1.8888   -0.2411 H   0  0  0  0  0  0  0  0  0  0  0  0
   -1.7695   -0.4478   -0.7198 H   0  0  0  0  0  0  0  0  0  0  0  0
    1.2474    2.5154    2.0861 N   0  0  0  0  0  0  0  0  0  0  0  0
    2.3148    3.3333    2.6156 C   0  0  2  0  0  0  0  0  0  0  0  0
    3.1749    3.7979    1.4477 C   0  0  0  0  0  0  0  0  0  0  0  0
    3.2146    3.2105    0.3686 O   0  0  0  0  0  0  0  0  0  0  0  0
    3.1467    2.5671    3.6322 C   0  0  0  0  0  0  0  0  0  0  0  0
    0.3247    2.6272    2.4958 H   0  0  0  0  0  0  0  0  0  0  0  0
    1.8431    4.2006    3.0902 H   0  0  0  0  0  0  0  0  0  0  0  0
    3.6273    1.6945    3.1750 H   0  0  0  0  0  0  0  0  0  0  0  0
    3.9373    3.1969    4.0534 H   0  0  0  0  0  0  0  0  0  0  0  0
    2.5211    2.2082    4.4566 H   0  0  0  0  0  0  0  0  0  0  0  0
    3.9256    4.9207    1.7666 N   0  0  0  0  0  0  0  0  0  0  0  0
    4.8304    5.5454    0.8301 C   0  0  0  0  0  0  0  0  0  0  0  0
    3.8153    5.3529    2.6792 H   0  0  0  0  0  0  0  0  0  0  0  0
    5.8395    5.1269    0.9596 H   0  0  0  0  0  0  0  0  0  0  0  0
    4.4839    5.3557   -0.1965 H   0  0  0  0  0  0  0  0  0  0  0  0
    4.8570    6.6297    1.0137 H   0  0  0  0  0  0  0  0  0  0  0  0
  1  3  1  0  0  0  0
  1  7  1  0  0  0  0
  1  2  2  0  0  0  0
 37 38  1  0  0  0  0
 38 46  1  0  0  0  0
 38 39  2  0  0  0  0
  8  9  1  0  0  0  0
  9 17  1  0  0  0  0
  9 10  2  0  0  0  0
 18 19  1  0  0  0  0
 19 36  1  0  0  0  0
 19 20  2  0  0  0  0
 37 40  1  0  0  0  0
  8 11  1  0  0  0  0
 22 23  1  0  0  0  0
 22 24  1  0  0  0  0
 46 47  1  0  0  0  0
 18 21  1  0  0  0  0
 21 22  1  0  0  0  0
 36 37  1  0  0  0  0
  7  8  1  0  0  0  0
 17 18  1  0  0  0  0
  3  4  1  0  0  0  0
  3  5  1  0  0  0  0
  3  6  1  0  0  0  0
 40 43  1  0  0  0  0
 40 44  1  0  0  0  0
 40 45  1  0  0  0  0
 11 14  1  0  0  0  0
 11 15  1  0  0  0  0
 11 16  1  0  0  0  0
 23 30  1  0  0  0  0
 23 31  1  0  0  0  0
 23 32  1  0  0  0  0
 24 33  1  0  0  0  0
 24 34  1  0  0  0  0
 24 35  1  0  0  0  0
 47 49  1  0  0  0  0
 47 50  1  0  0  0  0
 47 51  1  0  0  0  0
 21 27  1  0  0  0  0
 21 28  1  0  0  0  0
 37 42  1  0  0  0  0
  8 13  1  0  0  0  0
 18 26  1  0  0  0  0
 22 29  1  0  0  0  0
 46 48  1  0  0  0  0
  7 12  1  0  0  0  0
 36 41  1  0  0  0  0
 17 25  1  0  0  0  0
M  END
$$$$

  -OEChem-05262214473D

 51 50  0     1  0  0  0  0  0999 V2000
    3.4018   -1.2440   -3.0186 C   0  0  0  0  0  0  0  0  0  0  0  0
    3.2697   -2.0909   -2.1427 O   0  0  0  0  0  0  0  0  0  0  0  0
    4.6845   -1.1645   -3.7779 C   0  0  0  0  0  0  0  0  0  0  0  0
    5.4123   -0.4862   -3.3041 H   0  0  0  0  0  0  0  0  0  0  0  0
    5.1949   -2.1387   -3.8443 H   0  0  0  0  0  0  0  0  0  0  0  0
    4.5953   -0.8128   -4.8182 H   0  0  0  0  0  0  0  0  0  0  0  0
    2.4540   -0.3103   -3.4040 N   0  0  0  0  0  0  0  0  0  0  0  0
    1.1494   -0.2128   -2.8039 C   0  0  2  0  0  0  0  0  0  0  0  0
    1.3350    0.0367   -1.3130 C   0  0  0  0  0  0  0  0  0  0  0  0
    2.3625   -0.2586   -0.7063 O   0  0  0  0  0  0  0  0  0  0  0  0
    0.3331   -1.4728   -3.0467 C   0  0  0  0  0  0  0  0  0  0  0  0
    2.6924    0.3404   -4.1502 H   0  0  0  0  0  0  0  0  0  0  0  0
    0.6550    0.6514   -3.2607 H   0  0  0  0  0  0  0  0  0  0  0  0
    0.8129   -2.3494   -2.5963 H   0  0  0  0  0  0  0  0  0  0  0  0
   -0.6690   -1.3857   -2.6142 H   0  0  0  0  0  0  0  0  0  0  0  0
    0.2259   -1.6670   -4.1194 H   0  0  0  0  0  0  0  0  0  0  0  0
    0.2019    0.5893   -0.7269 N   0  0  0  0  0  0  0  0  0  0  0  0
    0.1242    0.9059    0.6756 C   0  0  2  0  0  0  0  0  0  0  0  0
    1.4251    1.6092    1.0499 C   0  0  0  0  0  0  0  0  0  0  0  0
    2.4106    1.6289    0.3154 O   0  0  0  0  0  0  0  0  0  0  0  0
   -0.0716   -0.3441    1.5430 C   0  0  0  0  0  0  0  0  0  0  0  0
   -1.4192   -1.0667    1.3417 C   0  0  0  0  0  0  0  0  0  0  0  0
   -1.4312   -2.3699    2.1456 C   0  0  0  0  0  0  0  0  0  0  0  0
   -1.7052   -1.3670   -0.1303 C   0  0  0  0  0  0  0  0  0  0  0  0
   -0.5975    0.8179   -1.3140 H   0  0  0  0  0  0  0  0  0  0  0  0
   -0.7047    1.6103    0.7986 H   0  0  0  0  0  0  0  0  0  0  0  0
    0.0200   -0.0595    2.6007 H   0  0  0  0  0  0  0  0  0  0  0  0
    0.7466   -1.0512    1.3522 H   0  0  0  0  0  0  0  0  0  0  0  0
   -2.2280   -0.4338    1.7268 H   0  0  0  0  0  0  0  0  0  0  0  0
   -0.6402   -3.0457    1.8034 H   0  0  0  0  0  0  0  0  0  0  0  0
   -2.3873   -2.8909    2.0279 H   0  0  0  0  0  0  0  0  0  0  0  0
   -1.2769   -2.1805    3.2134 H   0  0  0  0  0  0  0  0  0  0  0  0
   -0.9238   -1.9991   -0.5656 H   0  0  0  0  0  0  0  0  0  0  0  0
   -2.6620   -1.8888   -0.2411 H   0  0  0  0  0  0  0  0  0  0  0  0
   -1.7695   -0.4478   -0.7198 H   0  0  0  0  0  0  0  0  0  0  0  0
    1.3346    2.2528    2.2764 N   0  0  0  0  0  0  0  0  0  0  0  0
    2.4181    3.0160    2.8528 C   0  0  2  0  0  0  0  0  0  0  0  0
    3.0992    3.7875    1.7301 C   0  0  0  0  0  0  0  0  0  0  0  0
    3.0316    3.4529    0.5492 O   0  0  0  0  0  0  0  0  0  0  0  0
    3.4093    2.1139    3.5715 C   0  0  0  0  0  0  0  0  0  0  0  0
    0.4668    2.2017    2.8016 H   0  0  0  0  0  0  0  0  0  0  0  0
    1.9673    3.7208    3.5599 H   0  0  0  0  0  0  0  0  0  0  0  0
    3.8713    1.4007    2.8791 H   0  0  0  0  0  0  0  0  0  0  0  0
    4.2142    2.6962    4.0319 H   0  0  0  0  0  0  0  0  0  0  0  0
    2.9117    1.5377    4.3591 H   0  0  0  0  0  0  0  0  0  0  0  0
    3.8270    4.8688    2.2068 N   0  0  0  0  0  0  0  0  0  0  0  0
    4.5737    5.7494    1.3390 C   0  0  0  0  0  0  0  0  0  0  0  0
    3.8115    5.0829    3.1996 H   0  0  0  0  0  0  0  0  0  0  0  0
    5.6107    5.3917    1.2571 H   0  0  0  0  0  0  0  0  0  0  0  0
    4.1101    5.7608    0.3416 H   0  0  0  0  0  0  0  0  0  0  0  0
    4.5689    6.7668    1.7572 H   0  0  0  0  0  0  0  0  0  0  0  0
  1  3  1  0  0  0  0
  1  7  1  0  0  0  0
  1  2  2  0  0  0  0
 37 38  1  0  0  0  0
 38 46  1  0  0  0  0
 38 39  2  0  0  0  0
  8  9  1  0  0  0  0
  9 17  1  0  0  0  0
  9 10  2  0  0  0  0
 18 19  1  0  0  0  0
 19 36  1  0  0  0  0
 19 20  2  0  0  0  0
 37 40  1  0  0  0  0
  8 11  1  0  0  0  0
 22 23  1  0  0  0  0
 22 24  1  0  0  0  0
 46 47  1  0  0  0  0
 18 21  1  0  0  0  0
 21 22  1  0  0  0  0
 36 37  1  0  0  0  0
  7  8  1  0  0  0  0
 17 18  1  0  0  0  0
  3  4  1  0  0  0  0
  3  5  1  0  0  0  0
  3  6  1  0  0  0  0
 40 43  1  0  0  0  0
 40 44  1  0  0  0  0
 40 45  1  0  0  0  0
 11 14  1  0  0  0  0
 11 15  1  0  0  0  0
 11 16  1  0  0  0  0
 23 30  1  0  0  0  0
 23 31  1  0  0  0  0
 23 32  1  0  0  0  0
 24 33  1  0  0  0  0
 24 34  1  0  0  0  0
 24 35  1  0  0  0  0
 47 49  1  0  0  0  0
 47 50  1  0  0  0  0
 47 51  1  0  0  0  0
 21 27  1  0  0  0  0
 21 28  1  0  0  0  0
 37 42  1  0  0  0  0
  8 13  1  0  0  0  0
 18 26  1  0  0  0  0
 22 29  1  0  0  0  0
 46 48  1  0  0  0  0
  7 12  1  0  0  0  0
 36 41  1  0  0  0  0
 17 25  1  0  0  0  0
M  END
$$$$

  -OEChem-05262214473D

 51 50  0     1  0  0  0  0  0999 V2000
    3.4018   -1.2440   -3.0186 C   0  0  0  0  0  0  0  0  0  0  0  0
    3.2697   -2.0909   -2.1427 O   0  0  0  0  0  0  0  0  0  0  0  0
    4.6845   -1.1645   -3.7779 C   0  0  0  0  0  0  0  0  0  0  0  0
    5.4123   -0.4862   -3.3041 H   0  0  0  0  0  0  0  0  0  0  0  0
    5.1949   -2.1387   -3.8443 H   0  0  0  0  0  0  0  0  0  0  0  0
    4.5953   -0.8128   -4.8182 H   0  0  0  0  0  0  0  0  0  0  0  0
    2.4540   -0.3103   -3.4040 N   0  0  0  0  0  0  0  0  0  0  0  0
    1.1494   -0.2128   -2.8039 C   0  0  2  0  0  0  0  0  0  0  0  0
    1.3350    0.0367   -1.3130 C   0  0  0  0  0  0  0  0  0  0  0  0
    2.3625   -0.2586   -0.7063 O   0  0  0  0  0  0  0  0  0  0  0  0
    0.3331   -1.4728   -3.0467 C   0  0  0  0  0  0  0  0  0  0  0  0
    2.6924    0.3404   -4.1502 H   0  0  0  0  0  0  0  0  0  0  0  0
    0.6550    0.6514   -3.2607 H   0  0  0  0  0  0  0  0  0  0  0  0
    0.8129   -2.3494   -2.5963 H   0  0  0  0  0  0  0  0  0  0  0  0
   -0.6690   -1.3857   -2.6142 H   0  0  0  0  0  0  0  0  0  0  0  0
    0.2259   -1.6670   -4.1194 H   0  0  0  0  0  0  0  0  0  0  0  0
    0.2019    0.5893   -0.7269 N   0  0  0  0  0  0  0  0  0  0  0  0
    0.1242    0.9059    0.6756 C   0  0  2  0  0  0  0  0  0  0  0  0
    1.2239    1.9218    0.9682 C   0  0  0  0  0  0  0  0  0  0  0  0
    1.9672    2.3725    0.0990 O   0  0  0  0  0  0  0  0  0  0  0  0
    0.2985   -0.3344    1.5613 C   0  0  0  0  0  0  0  0  0  0  0  0
   -0.8320   -1.3770    1.4443 C   0  0  0  0  0  0  0  0  0  0  0  0
   -0.4702   -2.6239    2.2562 C   0  0  0  0  0  0  0  0  0  0  0  0
   -1.1135   -1.7709   -0.0063 C   0  0  0  0  0  0  0  0  0  0  0  0
   -0.5975    0.8179   -1.3140 H   0  0  0  0  0  0  0  0  0  0  0  0
   -0.8476    1.3815    0.8424 H   0  0  0  0  0  0  0  0  0  0  0  0
    0.3735   -0.0135    2.6099 H   0  0  0  0  0  0  0  0  0  0  0  0
    1.2569   -0.8167    1.3276 H   0  0  0  0  0  0  0  0  0  0  0  0
   -1.7518   -0.9600    1.8720 H   0  0  0  0  0  0  0  0  0  0  0  0
    0.4457   -3.0860    1.8727 H   0  0  0  0  0  0  0  0  0  0  0  0
   -1.2687   -3.3712    2.1983 H   0  0  0  0  0  0  0  0  0  0  0  0
   -0.3101   -2.3791    3.3118 H   0  0  0  0  0  0  0  0  0  0  0  0
   -0.2231   -2.1951   -0.4825 H   0  0  0  0  0  0  0  0  0  0  0  0
   -1.9122   -2.5189   -0.0573 H   0  0  0  0  0  0  0  0  0  0  0  0
   -1.4402   -0.9102   -0.5972 H   0  0  0  0  0  0  0  0  0  0  0  0
    1.2408    2.3006    2.3034 N   0  0  0  0  0  0  0  0  0  0  0  0
    2.1677    3.2708    2.8404 C   0  0  2  0  0  0  0  0  0  0  0  0
    2.3262    4.3868    1.8162 C   0  0  0  0  0  0  0  0  0  0  0  0
    2.0855    4.2385    0.6199 O   0  0  0  0  0  0  0  0  0  0  0  0
    3.5106    2.6338    3.1624 C   0  0  0  0  0  0  0  0  0  0  0  0
    0.5677    1.8913    2.9446 H   0  0  0  0  0  0  0  0  0  0  0  0
    1.7120    3.6727    3.7519 H   0  0  0  0  0  0  0  0  0  0  0  0
    3.9823    2.2254    2.2612 H   0  0  0  0  0  0  0  0  0  0  0  0
    4.2022    3.3638    3.5956 H   0  0  0  0  0  0  0  0  0  0  0  0
    3.3908    1.8119    3.8765 H   0  0  0  0  0  0  0  0  0  0  0  0
    2.8092    5.5554    2.3883 N   0  0  0  0  0  0  0  0  0  0  0  0
    3.0567    6.7542    1.6218 C   0  0  0  0  0  0  0  0  0  0  0  0
    2.9630    5.5941    3.3916 H   0  0  0  0  0  0  0  0  0  0  0  0
    4.1045    6.7663    1.2873 H   0  0  0  0  0  0  0  0  0  0  0  0
    2.3919    6.7728    0.7456 H   0  0  0  0  0  0  0  0  0  0  0  0
    2.8618    7.6368    2.2487 H   0  0  0  0  0  0  0  0  0  0  0  0
  1  3  1  0  0  0  0
  1  7  1  0  0  0  0
  1  2  2  0  0  0  0
 37 38  1  0  0  0  0
 38 46  1  0  0  0  0
 38 39  2  0  0  0  0
  8  9  1  0  0  0  0
  9 17  1  0  0  0  0
  9 10  2  0  0  0  0
 18 19  1  0  0  0  0
 19 36  1  0  0  0  0
 19 20  2  0  0  0  0
 37 40  1  0  0  0  0
  8 11  1  0  0  0  0
 22 23  1  0  0  0  0
 22 24  1  0  0  0  0
 46 47  1  0  0  0  0
 18 21  1  0  0  0  0
 21 22  1  0  0  0  0
 36 37  1  0  0  0  0
  7  8  1  0  0  0  0
 17 18  1  0  0  0  0
  3  4  1  0  0  0  0
  3  5  1  0  0  0  0
  3  6  1  0  0  0  0
 40 43  1  0  0  0  0
 40 44  1  0  0  0  0
 40 45  1  0  0  0  0
 11 14  1  0  0  0  0
 11 15  1  0  0  0  0
 11 16  1  0  0  0  0
 23 30  1  0  0  0  0
 23 31  1  0  0  0  0
 23 32  1  0  0  0  0
 24 33  1  0  0  0  0
 24 34  1  0  0  0  0
 24 35  1  0  0  0  0
 47 49  1  0  0  0  0
 47 50  1  0  0  0  0
 47 51  1  0  0  0  0
 21 27  1  0  0  0  0
 21 28  1  0  0  0  0
 37 42  1  0  0  0  0
  8 13  1  0  0  0  0
 18 26  1  0  0  0  0
 22 29  1  0  0  0  0
 46 48  1  0  0  0  0
  7 12  1  0  0  0  0
 36 41  1  0  0  0  0
 17 25  1  0  0  0  0
M  END
$$$$

  -OEChem-05262214473D

 51 50  0     1  0  0  0  0  0999 V2000
    3.4018   -1.2440   -3.0186 C   0  0  0  0  0  0  0  0  0  0  0  0
    3.2697   -2.0909   -2.1427 O   0  0  0  0  0  0  0  0  0  0  0  0
    4.6845   -1.1645   -3.7779 C   0  0  0  0  0  0  0  0  0  0  0  0
    5.4123   -0.4862   -3.3041 H   0  0  0  0  0  0  0  0  0  0  0  0
    5.1949   -2.1387   -3.8443 H   0  0  0  0  0  0  0  0  0  0  0  0
    4.5953   -0.8128   -4.8182 H   0  0  0  0  0  0  0  0  0  0  0  0
    2.4540   -0.3103   -3.4040 N   0  0  0  0  0  0  0  0  0  0  0  0
    1.1494   -0.2128   -2.8039 C   0  0  2  0  0  0  0  0  0  0  0  0
    1.3350    0.0367   -1.3130 C   0  0  0  0  0  0  0  0  0  0  0  0
    2.3625   -0.2586   -0.7063 O   0  0  0  0  0  0  0  0  0  0  0  0
    0.3331   -1.4728   -3.0467 C   0  0  0  0  0  0  0  0  0  0  0  0
    2.6924    0.3404   -4.1502 H   0  0  0  0  0  0  0  0  0  0  0  0
    0.6550    0.6514   -3.2607 H   0  0  0  0  0  0  0  0  0  0  0  0
    0.8129   -2.3494   -2.5963 H   0  0  0  0  0  0  0  0  0  0  0  0
   -0.6690   -1.3857   -2.6142 H   0  0  0  0  0  0  0  0  0  0  0  0
    0.2259   -1.6670   -4.1194 H   0  0  0  0  0  0  0  0  0  0  0  0
    0.2019    0.5893   -0.7269 N   0  0  0  0  0  0  0  0  0  0  0  0
    0.1242    0.9059    0.6756 C   0  0  2  0  0  0  0  0  0  0  0  0
    1.2239    1.9218    0.9682 C   0  0  0  0  0  0  0  0  0  0  0  0
    1.7861    2.5714    0.0889 O   0  0  0  0  0  0  0  0  0  0  0  0
    0.2985   -0.3344    1.5613 C   0  0  0  0  0  0  0  0  0  0  0  0
   -0.8320   -1.3770    1.4443 C   0  0  0  0  0  0  0  0  0  0  0  0
   -0.4702   -2.6239    2.2562 C   0  0  0  0  0  0  0  0  0  0  0  0
   -1.1135   -1.7709   -0.0063 C   0  0  0  0  0  0  0  0  0  0  0  0
   -0.5975    0.8179   -1.3140 H   0  0  0  0  0  0  0  0  0  0  0  0
   -0.8476    1.3815    0.8424 H   0  0  0  0  0  0  0  0  0  0  0  0
    0.3735   -0.0135    2.6099 H   0  0  0  0  0  0  0  0  0  0  0  0
    1.2569   -0.8167    1.3276 H   0  0  0  0  0  0  0  0  0  0  0  0
   -1.7518   -0.9600    1.8720 H   0  0  0  0  0  0  0  0  0  0  0  0
    0.4457   -3.0860    1.8727 H   0  0  0  0  0  0  0  0  0  0  0  0
   -1.2687   -3.3712    2.1983 H   0  0  0  0  0  0  0  0  0  0  0  0
   -0.3101   -2.3791    3.3118 H   0  0  0  0  0  0  0  0  0  0  0  0
   -0.2231   -2.1951   -0.4825 H   0  0  0  0  0  0  0  0  0  0  0  0
   -1.9122   -2.5189   -0.0573 H   0  0  0  0  0  0  0  0  0  0  0  0
   -1.4402   -0.9102   -0.5972 H   0  0  0  0  0  0  0  0  0  0  0  0
    1.4643    2.0512    2.3291 N   0  0  0  0  0  0  0  0  0  0  0  0
    2.4388    2.9663    2.8783 C   0  0  2  0  0  0  0  0  0  0  0  0
    2.3762    4.2583    2.0743 C   0  0  0  0  0  0  0  0  0  0  0  0
    1.9326    4.3149    0.9293 O   0  0  0  0  0  0  0  0  0  0  0  0
    3.8380    2.3714    2.8430 C   0  0  0  0  0  0  0  0  0  0  0  0
    0.9295    1.4884    2.9839 H   0  0  0  0  0  0  0  0  0  0  0  0
    2.1387    3.1645    3.9130 H   0  0  0  0  0  0  0  0  0  0  0  0
    4.1560    2.1661    1.8143 H   0  0  0  0  0  0  0  0  0  0  0  0
    4.5707    3.0543    3.2854 H   0  0  0  0  0  0  0  0  0  0  0  0
    3.8740    1.4271    3.3968 H   0  0  0  0  0  0  0  0  0  0  0  0
    2.9137    5.3323    2.7697 N   0  0  0  0  0  0  0  0  0  0  0  0
    2.9816    6.6645    2.2158 C   0  0  0  0  0  0  0  0  0  0  0  0
    3.2414    5.1976    3.7217 H   0  0  0  0  0  0  0  0  0  0  0  0
    3.9526    6.8065    1.7189 H   0  0  0  0  0  0  0  0  0  0  0  0
    2.1719    6.7985    1.4833 H   0  0  0  0  0  0  0  0  0  0  0  0
    2.8715    7.4032    3.0233 H   0  0  0  0  0  0  0  0  0  0  0  0
  1  3  1  0  0  0  0
  1  7  1  0  0  0  0
  1  2  2  0  0  0  0
 37 38  1  0  0  0  0
 38 46  1  0  0  0  0
 38 39  2  0  0  0  0
  8  9  1  0  0  0  0
  9 17  1  0  0  0  0
  9 10  2  0  0  0  0
 18 19  1  0  0  0  0
 19 36  1  0  0  0  0
 19 20  2  0  0  0  0
 37 40  1  0  0  0  0
  8 11  1  0  0  0  0
 22 23  1  0  0  0  0
 22 24  1  0  0  0  0
 46 47  1  0  0  0  0
 18 21  1  0  0  0  0
 21 22  1  0  0  0  0
 36 37  1  0  0  0  0
  7  8  1  0  0  0  0
 17 18  1  0  0  0  0
  3  4  1  0  0  0  0
  3  5  1  0  0  0  0
  3  6  1  0  0  0  0
 40 43  1  0  0  0  0
 40 44  1  0  0  0  0
 40 45  1  0  0  0  0
 11 14  1  0  0  0  0
 11 15  1  0  0  0  0
 11 16  1  0  0  0  0
 23 30  1  0  0  0  0
 23 31  1  0  0  0  0
 23 32  1  0  0  0  0
 24 33  1  0  0  0  0
 24 34  1  0  0  0  0
 24 35  1  0  0  0  0
 47 49  1  0  0  0  0
 47 50  1  0  0  0  0
 47 51  1  0  0  0  0
 21 27  1  0  0  0  0
 21 28  1  0  0  0  0
 37 42  1  0  0  0  0
  8 13  1  0  0  0  0
 18 26  1  0  0  0  0
 22 29  1  0  0  0  0
 46 48  1  0  0  0  0
  7 12  1  0  0  0  0
 36 41  1  0  0  0  0
 17 25  1  0  0  0  0
M  END
$$$$

  -OEChem-05262214473D

 51 50  0     1  0  0  0  0  0999 V2000
    3.4018   -1.2440   -3.0186 C   0  0  0  0  0  0  0  0  0  0  0  0
    3.2697   -2.0909   -2.1427 O   0  0  0  0  0  0  0  0  0  0  0  0
    4.6845   -1.1645   -3.7779 C   0  0  0  0  0  0  0  0  0  0  0  0
    5.4123   -0.4862   -3.3041 H   0  0  0  0  0  0  0  0  0  0  0  0
    5.1949   -2.1387   -3.8443 H   0  0  0  0  0  0  0  0  0  0  0  0
    4.5953   -0.8128   -4.8182 H   0  0  0  0  0  0  0  0  0  0  0  0
    2.4540   -0.3103   -3.4040 N   0  0  0  0  0  0  0  0  0  0  0  0
    1.1494   -0.2128   -2.8039 C   0  0  2  0  0  0  0  0  0  0  0  0
    1.3350    0.0367   -1.3130 C   0  0  0  0  0  0  0  0  0  0  0  0
    2.3625   -0.2586   -0.7063 O   0  0  0  0  0  0  0  0  0  0  0  0
    0.3331   -1.4728   -3.0467 C   0  0  0  0  0  0  0  0  0  0  0  0
    2.6924    0.3404   -4.1502 H   0  0  0  0  0  0  0  0  0  0  0  0
    0.6550    0.6514   -3.2607 H   0  0  0  0  0  0  0  0  0  0  0  0
    0.8129   -2.3494   -2.5963 H   0  0  0  0  0  0  0  0  0  0  0  0
   -0.6690   -1.3857   -2.6142 H   0  0  0  0  0  0  0  0  0  0  0  0
    0.2259   -1.6670   -4.1194 H   0  0  0  0  0  0  0  0  0  0  0  0
    0.2019    0.5893   -0.7269 N   0  0  0  0  0  0  0  0  0  0  0  0
    0.1242    0.9059    0.6756 C   0  0  2  0  0  0  0  0  0  0  0  0
    1.2239    1.9218    0.9682 C   0  0  0  0  0  0  0  0  0  0  0  0
    1.5996    2.7565    0.1476 O   0  0  0  0  0  0  0  0  0  0  0  0
    0.2985   -0.3344    1.5613 C   0  0  0  0  0  0  0  0  0  0  0  0
   -0.8320   -1.3770    1.4443 C   0  0  0  0  0  0  0  0  0  0  0  0
   -0.4702   -2.6239    2.2562 C   0  0  0  0  0  0  0  0  0  0  0  0
   -1.1135   -1.7709   -0.0063 C   0  0  0  0  0  0  0  0  0  0  0  0
   -0.5975    0.8179   -1.3140 H   0  0  0  0  0  0  0  0  0  0  0  0
   -0.8476    1.3815    0.8424 H   0  0  0  0  0  0  0  0  0  0  0  0
    0.3735   -0.0135    2.6099 H   0  0  0  0  0  0  0  0  0  0  0  0
    1.2569   -0.8167    1.3276 H   0  0  0  0  0  0  0  0  0  0  0  0
   -1.7518   -0.9600    1.8720 H   0  0  0  0  0  0  0  0  0  0  0  0
    0.4457   -3.0860    1.8727 H   0  0  0  0  0  0  0  0  0  0  0  0
   -1.2687   -3.3712    2.1983 H   0  0  0  0  0  0  0  0  0  0  0  0
   -0.3101   -2.3791    3.3118 H   0  0  0  0  0  0  0  0  0  0  0  0
   -0.2231   -2.1951   -0.4825 H   0  0  0  0  0  0  0  0  0  0  0  0
   -1.9122   -2.5189   -0.0573 H   0  0  0  0  0  0  0  0  0  0  0  0
   -1.4402   -0.9102   -0.5972 H   0  0  0  0  0  0  0  0  0  0  0  0
    1.6971    1.8166    2.2688 N   0  0  0  0  0  0  0  0  0  0  0  0
    2.7224    2.6786    2.8113 C   0  0  2  0  0  0  0  0  0  0  0  0
    2.4754    4.0885    2.2909 C   0  0  0  0  0  0  0  0  0  0  0  0
    1.8344    4.3234    1.2687 O   0  0  0  0  0  0  0  0  0  0  0  0
    4.1122    2.1938    2.4290 C   0  0  0  0  0  0  0  0  0  0  0  0
    1.3056    1.1099    2.8844 H   0  0  0  0  0  0  0  0  0  0  0  0
    2.6038    2.6647    3.9003 H   0  0  0  0  0  0  0  0  0  0  0  0
    4.2498    2.2008    1.3416 H   0  0  0  0  0  0  0  0  0  0  0  0
    4.8886    2.8315    2.8645 H   0  0  0  0  0  0  0  0  0  0  0  0
    4.2771    1.1688    2.7783 H   0  0  0  0  0  0  0  0  0  0  0  0
    3.0915    5.0509    3.0785 N   0  0  0  0  0  0  0  0  0  0  0  0
    3.0158    6.4632    2.7857 C   0  0  0  0  0  0  0  0  0  0  0  0
    3.5869    4.7669    3.9186 H   0  0  0  0  0  0  0  0  0  0  0  0
    3.8782    6.7572    2.1694 H   0  0  0  0  0  0  0  0  0  0  0  0
    2.0853    6.6747    2.2386 H   0  0  0  0  0  0  0  0  0  0  0  0
    3.0260    7.0336    3.7262 H   0  0  0  0  0  0  0  0  0  0  0  0
  1  3  1  0  0  0  0
  1  7  1  0  0  0  0
  1  2  2  0  0  0  0
 37 38  1  0  0  0  0
 38 46  1  0  0  0  0
 38 39  2  0  0  0  0
  8  9  1  0  0  0  0
  9 17  1  0  0  0  0
  9 10  2  0  0  0  0
 18 19  1  0  0  0  0
 19 36  1  0  0  0  0
 19 20  2  0  0  0  0
 37 40  1  0  0  0  0
  8 11  1  0  0  0  0
 22 23  1  0  0  0  0
 22 24  1  0  0  0  0
 46 47  1  0  0  0  0
 18 21  1  0  0  0  0
 21 22  1  0  0  0  0
 36 37  1  0  0  0  0
  7  8  1  0  0  0  0
 17 18  1  0  0  0  0
  3  4  1  0  0  0  0
  3  5  1  0  0  0  0
  3  6  1  0  0  0  0
 40 43  1  0  0  0  0
 40 44  1  0  0  0  0
 40 45  1  0  0  0  0
 11 14  1  0  0  0  0
 11 15  1  0  0  0  0
 11 16  1  0  0  0  0
 23 30  1  0  0  0  0
 23 31  1  0  0  0  0
 23 32  1  0  0  0  0
 24 33  1  0  0  0  0
 24 34  1  0  0  0  0
 24 35  1  0  0  0  0
 47 49  1  0  0  0  0
 47 50  1  0  0  0  0
 47 51  1  0  0  0  0
 21 27  1  0  0  0  0
 21 28  1  0  0  0  0
 37 42  1  0  0  0  0
  8 13  1  0  0  0  0
 18 26  1  0  0  0  0
 22 29  1  0  0  0  0
 46 48  1  0  0  0  0
  7 12  1  0  0  0  0
 36 41  1  0  0  0  0
 17 25  1  0  0  0  0
M  END
$$$$

  -OEChem-05262214473D

 51 50  0     1  0  0  0  0  0999 V2000
    3.4018   -1.2440   -3.0186 C   0  0  0  0  0  0  0  0  0  0  0  0
    3.2697   -2.0909   -2.1427 O   0  0  0  0  0  0  0  0  0  0  0  0
    4.6845   -1.1645   -3.7779 C   0  0  0  0  0  0  0  0  0  0  0  0
    5.4123   -0.4862   -3.3041 H   0  0  0  0  0  0  0  0  0  0  0  0
    5.1949   -2.1387   -3.8443 H   0  0  0  0  0  0  0  0  0  0  0  0
    4.5953   -0.8128   -4.8182 H   0  0  0  0  0  0  0  0  0  0  0  0
    2.4540   -0.3103   -3.4040 N   0  0  0  0  0  0  0  0  0  0  0  0
    1.1494   -0.2128   -2.8039 C   0  0  2  0  0  0  0  0  0  0  0  0
    1.3350    0.0367   -1.3130 C   0  0  0  0  0  0  0  0  0  0  0  0
    2.3625   -0.2586   -0.7063 O   0  0  0  0  0  0  0  0  0  0  0  0
    0.3331   -1.4728   -3.0467 C   0  0  0  0  0  0  0  0  0  0  0  0
    2.6924    0.3404   -4.1502 H   0  0  0  0  0  0  0  0  0  0  0  0
    0.6550    0.6514   -3.2607 H   0  0  0  0  0  0  0  0  0  0  0  0
    0.8129   -2.3494   -2.5963 H   0  0  0  0  0  0  0  0  0  0  0  0
   -0.6690   -1.3857   -2.6142 H   0  0  0  0  0  0  0  0  0  0  0  0
    0.2259   -1.6670   -4.1194 H   0  0  0  0  0  0  0  0  0  0  0  0
    0.2019    0.5893   -0.7269 N   0  0  0  0  0  0  0  0  0  0  0  0
    0.1242    0.9059    0.6756 C   0  0  2  0  0  0  0  0  0  0  0  0
    1.2239    1.9218    0.9682 C   0  0  0  0  0  0  0  0  0  0  0  0
    1.4203    2.9150    0.2709 O   0  0  0  0  0  0  0  0  0  0  0  0
    0.2985   -0.3344    1.5613 C   0  0  0  0  0  0  0  0  0  0  0  0
   -0.8320   -1.3770    1.4443 C   0  0  0  0  0  0  0  0  0  0  0  0
   -0.4702   -2.6239    2.2562 C   0  0  0  0  0  0  0  0  0  0  0  0
   -1.1135   -1.7709   -0.0063 C   0  0  0  0  0  0  0  0  0  0  0  0
   -0.5975    0.8179   -1.3140 H   0  0  0  0  0  0  0  0  0  0  0  0
   -0.8476    1.3815    0.8424 H   0  0  0  0  0  0  0  0  0  0  0  0
    0.3735   -0.0135    2.6099 H   0  0  0  0  0  0  0  0  0  0  0  0
    1.2569   -0.8167    1.3276 H   0  0  0  0  0  0  0  0  0  0  0  0
   -1.7518   -0.9600    1.8720 H   0  0  0  0  0  0  0  0  0  0  0  0
    0.4457   -3.0860    1.8727 H   0  0  0  0  0  0  0  0  0  0  0  0
   -1.2687   -3.3712    2.1983 H   0  0  0  0  0  0  0  0  0  0  0  0
   -0.3101   -2.3791    3.3118 H   0  0  0  0  0  0  0  0  0  0  0  0
   -0.2231   -2.1951   -0.4825 H   0  0  0  0  0  0  0  0  0  0  0  0
   -1.9122   -2.5189   -0.0573 H   0  0  0  0  0  0  0  0  0  0  0  0
   -1.4402   -0.9102   -0.5972 H   0  0  0  0  0  0  0  0  0  0  0  0
    1.9231    1.6129    2.1267 N   0  0  0  0  0  0  0  0  0  0  0  0
    2.9990    2.4273    2.6441 C   0  0  2  0  0  0  0  0  0  0  0  0
    2.6170    3.8890    2.4514 C   0  0  0  0  0  0  0  0  0  0  0  0
    1.7976    4.2634    1.6150 O   0  0  0  0  0  0  0  0  0  0  0  0
    4.3145    2.1131    1.9488 C   0  0  0  0  0  0  0  0  0  0  0  0
    1.6706    0.7815    2.6528 H   0  0  0  0  0  0  0  0  0  0  0  0
    3.0756    2.2074    3.7145 H   0  0  0  0  0  0  0  0  0  0  0  0
    4.2571    2.3272    0.8753 H   0  0  0  0  0  0  0  0  0  0  0  0
    5.1341    2.7106    2.3616 H   0  0  0  0  0  0  0  0  0  0  0  0
    4.5728    1.0548    2.0632 H   0  0  0  0  0  0  0  0  0  0  0  0
    3.3305    4.7303    3.2936 N   0  0  0  0  0  0  0  0  0  0  0  0
    3.1571    6.1642    3.2928 C   0  0  0  0  0  0  0  0  0  0  0  0
    3.9759    4.3313    3.9688 H   0  0  0  0  0  0  0  0  0  0  0  0
    3.8865    6.6218    2.6083 H   0  0  0  0  0  0  0  0  0  0  0  0
    2.1379    6.4100    2.9600 H   0  0  0  0  0  0  0  0  0  0  0  0
    3.3147    6.5530    4.3096 H   0  0  0  0  0  0  0  0  0  0  0  0
  1  3  1  0  0  0  0
  1  7  1  0  0  0  0
  1  2  2  0  0  0  0
 37 38  1  0  0  0  0
 38 46  1  0  0  0  0
 38 39  2  0  0  0  0
  8  9  1  0  0  0  0
  9 17  1  0  0  0  0
  9 10  2  0  0  0  0
 18 19  1  0  0  0  0
 19 36  1  0  0  0  0
 19 20  2  0  0  0  0
 37 40  1  0  0  0  0
  8 11  1  0  0  0  0
 22 23  1  0  0  0  0
 22 24  1  0  0  0  0
 46 47  1  0  0  0  0
 18 21  1  0  0  0  0
 21 22  1  0  0  0  0
 36 37  1  0  0  0  0
  7  8  1  0  0  0  0
 17 18  1  0  0  0  0
  3  4  1  0  0  0  0
  3  5  1  0  0  0  0
  3  6  1  0  0  0  0
 40 43  1  0  0  0  0
 40 44  1  0  0  0  0
 40 45  1  0  0  0  0
 11 14  1  0  0  0  0
 11 15  1  0  0  0  0
 11 16  1  0  0  0  0
 23 30  1  0  0  0  0
 23 31  1  0  0  0  0
 23 32  1  0  0  0  0
 24 33  1  0  0  0  0
 24 34  1  0  0  0  0
 24 35  1  0  0  0  0
 47 49  1  0  0  0  0
 47 50  1  0  0  0  0
 47 51  1  0  0  0  0
 21 27  1  0  0  0  0
 21 28  1  0  0  0  0
 37 42  1  0  0  0  0
  8 13  1  0  0  0  0
 18 26  1  0  0  0  0
 22 29  1  0  0  0  0
 46 48  1  0  0  0  0
  7 12  1  0  0  0  0
 36 41  1  0  0  0  0
 17 25  1  0  0  0  0
M  END
$$$$

  -OEChem-05262214473D

 51 50  0     1  0  0  0  0  0999 V2000
    3.4018   -1.2440   -3.0186 C   0  0  0  0  0  0  0  0  0  0  0  0
    3.2697   -2.0909   -2.1427 O   0  0  0  0  0  0  0  0  0  0  0  0
    4.6845   -1.1645   -3.7779 C   0  0  0  0  0  0  0  0  0  0  0  0
    5.4123   -0.4862   -3.3041 H   0  0  0  0  0  0  0  0  0  0  0  0
    5.1949   -2.1387   -3.8443 H   0  0  0  0  0  0  0  0  0  0  0  0
    4.5953   -0.8128   -4.8182 H   0  0  0  0  0  0  0  0  0  0  0  0
    2.4540   -0.3103   -3.4040 N   0  0  0  0  0  0  0  0  0  0  0  0
    1.1494   -0.2128   -2.8039 C   0  0  2  0  0  0  0  0  0  0  0  0
    1.3350    0.0367   -1.3130 C   0  0  0  0  0  0  0  0  0  0  0  0
    2.3625   -0.2586   -0.7063 O   0  0  0  0  0  0  0  0  0  0  0  0
    0.3331   -1.4728   -3.0467 C   0  0  0  0  0  0  0  0  0  0  0  0
    2.6924    0.3404   -4.1502 H   0  0  0  0  0  0  0  0  0  0  0  0
    0.6550    0.6514   -3.2607 H   0  0  0  0  0  0  0  0  0  0  0  0
    0.8129   -2.3494   -2.5963 H   0  0  0  0  0  0  0  0  0  0  0  0
   -0.6690   -1.3857   -2.6142 H   0  0  0  0  0  0  0  0  0  0  0  0
    0.2259   -1.6670   -4.1194 H   0  0  0  0  0  0  0  0  0  0  0  0
    0.2019    0.5893   -0.7269 N   0  0  0  0  0  0  0  0  0  0  0  0
    0.1242    0.9059    0.6756 C   0  0  2  0  0  0  0  0  0  0  0  0
    1.2239    1.9218    0.9682 C   0  0  0  0  0  0  0  0  0  0  0  0
    1.2606    3.0362    0.4505 O   0  0  0  0  0  0  0  0  0  0  0  0
    0.2985   -0.3344    1.5613 C   0  0  0  0  0  0  0  0  0  0  0  0
   -0.8320   -1.3770    1.4443 C   0  0  0  0  0  0  0  0  0  0  0  0
   -0.4702   -2.6239    2.2562 C   0  0  0  0  0  0  0  0  0  0  0  0
   -1.1135   -1.7709   -0.0063 C   0  0  0  0  0  0  0  0  0  0  0  0
   -0.5975    0.8179   -1.3140 H   0  0  0  0  0  0  0  0  0  0  0  0
   -0.8476    1.3815    0.8424 H   0  0  0  0  0  0  0  0  0  0  0  0
    0.3735   -0.0135    2.6099 H   0  0  0  0  0  0  0  0  0  0  0  0
    1.2569   -0.8167    1.3276 H   0  0  0  0  0  0  0  0  0  0  0  0
   -1.7518   -0.9600    1.8720 H   0  0  0  0  0  0  0  0  0  0  0  0
    0.4457   -3.0860    1.8727 H   0  0  0  0  0  0  0  0  0  0  0  0
   -1.2687   -3.3712    2.1983 H   0  0  0  0  0  0  0  0  0  0  0  0
   -0.3101   -2.3791    3.3118 H   0  0  0  0  0  0  0  0  0  0  0  0
   -0.2231   -2.1951   -0.4825 H   0  0  0  0  0  0  0  0  0  0  0  0
   -1.9122   -2.5189   -0.0573 H   0  0  0  0  0  0  0  0  0  0  0  0
   -1.4402   -0.9102   -0.5972 H   0  0  0  0  0  0  0  0  0  0  0  0
    2.1271    1.4538    1.9125 N   0  0  0  0  0  0  0  0  0  0  0  0
    3.2499    2.2295    2.3880 C   0  0  2  0  0  0  0  0  0  0  0  0
    2.7914    3.6733    2.5447 C   0  0  0  0  0  0  0  0  0  0  0  0
    1.8248    4.1390    1.9447 O   0  0  0  0  0  0  0  0  0  0  0  0
    4.4312    2.1348    1.4350 C   0  0  0  0  0  0  0  0  0  0  0  0
    1.9996    0.5256    2.3049 H   0  0  0  0  0  0  0  0  0  0  0  0
    3.5221    1.8237    3.3685 H   0  0  0  0  0  0  0  0  0  0  0  0
    4.1775    2.5367    0.4473 H   0  0  0  0  0  0  0  0  0  0  0  0
    5.2906    2.6998    1.8109 H   0  0  0  0  0  0  0  0  0  0  0  0
    4.7407    1.0927    1.3003 H   0  0  0  0  0  0  0  0  0  0  0  0
    3.6142    4.3923    3.4003 N   0  0  0  0  0  0  0  0  0  0  0  0
    3.3959    5.7877    3.7024 C   0  0  0  0  0  0  0  0  0  0  0  0
    4.3820    3.9205    3.8690 H   0  0  0  0  0  0  0  0  0  0  0  0
    3.9769    6.4096    3.0055 H   0  0  0  0  0  0  0  0  0  0  0  0
    2.3262    6.0222    3.5984 H   0  0  0  0  0  0  0  0  0  0  0  0
    3.7179    5.9943    4.7337 H   0  0  0  0  0  0  0  0  0  0  0  0
  1  3  1  0  0  0  0
  1  7  1  0  0  0  0
  1  2  2  0  0  0  0
 37 38  1  0  0  0  0
 38 46  1  0  0  0  0
 38 39  2  0  0  0  0
  8  9  1  0  0  0  0
  9 17  1  0  0  0  0
  9 10  2  0  0  0  0
 18 19  1  0  0  0  0
 19 36  1  0  0  0  0
 19 20  2  0  0  0  0
 37 40  1  0  0  0  0
  8 11  1  0  0  0  0
 22 23  1  0  0  0  0
 22 24  1  0  0  0  0
 46 47  1  0  0  0  0
 18 21  1  0  0  0  0
 21 22  1  0  0  0  0
 36 37  1  0  0  0  0
  7  8  1  0  0  0  0
 17 18  1  0  0  0  0
  3  4  1  0  0  0  0
  3  5  1  0  0  0  0
  3  6  1  0  0  0  0
 40 43  1  0  0  0  0
 40 44  1  0  0  0  0
 40 45  1  0  0  0  0
 11 14  1  0  0  0  0
 11 15  1  0  0  0  0
 11 16  1  0  0  0  0
 23 30  1  0  0  0  0
 23 31  1  0  0  0  0
 23 32  1  0  0  0  0
 24 33  1  0  0  0  0
 24 34  1  0  0  0  0
 24 35  1  0  0  0  0
 47 49  1  0  0  0  0
 47 50  1  0  0  0  0
 47 51  1  0  0  0  0
 21 27  1  0  0  0  0
 21 28  1  0  0  0  0
 37 42  1  0  0  0  0
  8 13  1  0  0  0  0
 18 26  1  0  0  0  0
 22 29  1  0  0  0  0
 46 48  1  0  0  0  0
  7 12  1  0  0  0  0
 36 41  1  0  0  0  0
 17 25  1  0  0  0  0
M  END
$$$$

  -OEChem-05262214473D

 51 50  0     1  0  0  0  0  0999 V2000
    3.4018   -1.2440   -3.0186 C   0  0  0  0  0  0  0  0  0  0  0  0
    3.2697   -2.0909   -2.1427 O   0  0  0  0  0  0  0  0  0  0  0  0
    4.6845   -1.1645   -3.7779 C   0  0  0  0  0  0  0  0  0  0  0  0
    5.4123   -0.4862   -3.3041 H   0  0  0  0  0  0  0  0  0  0  0  0
    5.1949   -2.1387   -3.8443 H   0  0  0  0  0  0  0  0  0  0  0  0
    4.5953   -0.8128   -4.8182 H   0  0  0  0  0  0  0  0  0  0  0  0
    2.4540   -0.3103   -3.4040 N   0  0  0  0  0  0  0  0  0  0  0  0
    1.1494   -0.2128   -2.8039 C   0  0  2  0  0  0  0  0  0  0  0  0
    1.3350    0.0367   -1.3130 C   0  0  0  0  0  0  0  0  0  0  0  0
    2.3625   -0.2586   -0.7063 O   0  0  0  0  0  0  0  0  0  0  0  0
    0.3331   -1.4728   -3.0467 C   0  0  0  0  0  0  0  0  0  0  0  0
    2.6924    0.3404   -4.1502 H   0  0  0  0  0  0  0  0  0  0  0  0
    0.6550    0.6514   -3.2607 H   0  0  0  0  0  0  0  0  0  0  0  0
    0.8129   -2.3494   -2.5963 H   0  0  0  0  0  0  0  0  0  0  0  0
   -0.6690   -1.3857   -2.6142 H   0  0  0  0  0  0  0  0  0  0  0  0
    0.2259   -1.6670   -4.1194 H   0  0  0  0  0  0  0  0  0  0  0  0
    0.2019    0.5893   -0.7269 N   0  0  0  0  0  0  0  0  0  0  0  0
    0.1242    0.9059    0.6756 C   0  0  2  0  0  0  0  0  0  0  0  0
    1.2239    1.9218    0.9682 C   0  0  0  0  0  0  0  0  0  0  0  0
    1.1312    3.1118    0.6741 O   0  0  0  0  0  0  0  0  0  0  0  0
    0.2985   -0.3344    1.5613 C   0  0  0  0  0  0  0  0  0  0  0  0
   -0.8320   -1.3770    1.4443 C   0  0  0  0  0  0  0  0  0  0  0  0
   -0.4702   -2.6239    2.2562 C   0  0  0  0  0  0  0  0  0  0  0  0
   -1.1135   -1.7709   -0.0063 C   0  0  0  0  0  0  0  0  0  0  0  0
   -0.5975    0.8179   -1.3140 H   0  0  0  0  0  0  0  0  0  0  0  0
   -0.8476    1.3815    0.8424 H   0  0  0  0  0  0  0  0  0  0  0  0
    0.3735   -0.0135    2.6099 H   0  0  0  0  0  0  0  0  0  0  0  0
    1.2569   -0.8167    1.3276 H   0  0  0  0  0  0  0  0  0  0  0  0
   -1.7518   -0.9600    1.8720 H   0  0  0  0  0  0  0  0  0  0  0  0
    0.4457   -3.0860    1.8727 H   0  0  0  0  0  0  0  0  0  0  0  0
   -1.2687   -3.3712    2.1983 H   0  0  0  0  0  0  0  0  0  0  0  0
   -0.3101   -2.3791    3.3118 H   0  0  0  0  0  0  0  0  0  0  0  0
   -0.2231   -2.1951   -0.4825 H   0  0  0  0  0  0  0  0  0  0  0  0
   -1.9122   -2.5189   -0.0573 H   0  0  0  0  0  0  0  0  0  0  0  0
   -1.4402   -0.9102   -0.5972 H   0  0  0  0  0  0  0  0  0  0  0  0
    2.2951    1.3502    1.6407 N   0  0  0  0  0  0  0  0  0  0  0  0
    3.4579    2.0987    2.0605 C   0  0  2  0  0  0  0  0  0  0  0  0
    2.9866    3.4563    2.5646 C   0  0  0  0  0  0  0  0  0  0  0  0
    1.9141    3.9587    2.2353 O   0  0  0  0  0  0  0  0  0  0  0  0
    4.4543    2.2574    0.9226 C   0  0  0  0  0  0  0  0  0  0  0  0
    2.2701    0.3597    1.8644 H   0  0  0  0  0  0  0  0  0  0  0  0
    3.9128    1.5399    2.8857 H   0  0  0  0  0  0  0  0  0  0  0  0
    4.0164    2.8149    0.0866 H   0  0  0  0  0  0  0  0  0  0  0  0
    5.3473    2.7999    1.2500 H   0  0  0  0  0  0  0  0  0  0  0  0
    4.7696    1.2801    0.5415 H   0  0  0  0  0  0  0  0  0  0  0  0
    3.9235    4.0601    3.3915 N   0  0  0  0  0  0  0  0  0  0  0  0
    3.7158    5.3595    3.9867 C   0  0  0  0  0  0  0  0  0  0  0  0
    4.7774    3.5624    3.6260 H   0  0  0  0  0  0  0  0  0  0  0  0
    4.1432    6.1349    3.3339 H   0  0  0  0  0  0  0  0  0  0  0  0
    2.6374    5.5379    4.1102 H   0  0  0  0  0  0  0  0  0  0  0  0
    4.2083    5.3955    4.9696 H   0  0  0  0  0  0  0  0  0  0  0  0
  1  3  1  0  0  0  0
  1  7  1  0  0  0  0
  1  2  2  0  0  0  0
 37 38  1  0  0  0  0
 38 46  1  0  0  0  0
 38 39  2  0  0  0  0
  8  9  1  0  0  0  0
  9 17  1  0  0  0  0
  9 10  2  0  0  0  0
 18 19  1  0  0  0  0
 19 36  1  0  0  0  0
 19 20  2  0  0  0  0
 37 40  1  0  0  0  0
  8 11  1  0  0  0  0
 22 23  1  0  0  0  0
 22 24  1  0  0  0  0
 46 47  1  0  0  0  0
 18 21  1  0  0  0  0
 21 22  1  0  0  0  0
 36 37  1  0  0  0  0
  7  8  1  0  0  0  0
 17 18  1  0  0  0  0
  3  4  1  0  0  0  0
  3  5  1  0  0  0  0
  3  6  1  0  0  0  0
 40 43  1  0  0  0  0
 40 44  1  0  0  0  0
 40 45  1  0  0  0  0
 11 14  1  0  0  0  0
 11 15  1  0  0  0  0
 11 16  1  0  0  0  0
 23 30  1  0  0  0  0
 23 31  1  0  0  0  0
 23 32  1  0  0  0  0
 24 33  1  0  0  0  0
 24 34  1  0  0  0  0
 24 35  1  0  0  0  0
 47 49  1  0  0  0  0
 47 50  1  0  0  0  0
 47 51  1  0  0  0  0
 21 27  1  0  0  0  0
 21 28  1  0  0  0  0
 37 42  1  0  0  0  0
  8 13  1  0  0  0  0
 18 26  1  0  0  0  0
 22 29  1  0  0  0  0
 46 48  1  0  0  0  0
  7 12  1  0  0  0  0
 36 41  1  0  0  0  0
 17 25  1  0  0  0  0
M  END
$$$$

  -OEChem-05262214473D

 51 50  0     1  0  0  0  0  0999 V2000
    3.4018   -1.2440   -3.0186 C   0  0  0  0  0  0  0  0  0  0  0  0
    3.2697   -2.0909   -2.1427 O   0  0  0  0  0  0  0  0  0  0  0  0
    4.6845   -1.1645   -3.7779 C   0  0  0  0  0  0  0  0  0  0  0  0
    5.4123   -0.4862   -3.3041 H   0  0  0  0  0  0  0  0  0  0  0  0
    5.1949   -2.1387   -3.8443 H   0  0  0  0  0  0  0  0  0  0  0  0
    4.5953   -0.8128   -4.8182 H   0  0  0  0  0  0  0  0  0  0  0  0
    2.4540   -0.3103   -3.4040 N   0  0  0  0  0  0  0  0  0  0  0  0
    1.1494   -0.2128   -2.8039 C   0  0  2  0  0  0  0  0  0  0  0  0
    1.3350    0.0367   -1.3130 C   0  0  0  0  0  0  0  0  0  0  0  0
    2.3625   -0.2586   -0.7063 O   0  0  0  0  0  0  0  0  0  0  0  0
    0.3331   -1.4728   -3.0467 C   0  0  0  0  0  0  0  0  0  0  0  0
    2.6924    0.3404   -4.1502 H   0  0  0  0  0  0  0  0  0  0  0  0
    0.6550    0.6514   -3.2607 H   0  0  0  0  0  0  0  0  0  0  0  0
    0.8129   -2.3494   -2.5963 H   0  0  0  0  0  0  0  0  0  0  0  0
   -0.6690   -1.3857   -2.6142 H   0  0  0  0  0  0  0  0  0  0  0  0
    0.2259   -1.6670   -4.1194 H   0  0  0  0  0  0  0  0  0  0  0  0
    0.2019    0.5893   -0.7269 N   0  0  0  0  0  0  0  0  0  0  0  0
    0.1242    0.9059    0.6756 C   0  0  2  0  0  0  0  0  0  0  0  0
    1.2239    1.9218    0.9682 C   0  0  0  0  0  0  0  0  0  0  0  0
    1.0410    3.1367    0.9265 O   0  0  0  0  0  0  0  0  0  0  0  0
    0.2985   -0.3344    1.5613 C   0  0  0  0  0  0  0  0  0  0  0  0
   -0.8320   -1.3770    1.4443 C   0  0  0  0  0  0  0  0  0  0  0  0
   -0.4702   -2.6239    2.2562 C   0  0  0  0  0  0  0  0  0  0  0  0
   -1.1135   -1.7709   -0.0063 C   0  0  0  0  0  0  0  0  0  0  0  0
   -0.5975    0.8179   -1.3140 H   0  0  0  0  0  0  0  0  0  0  0  0
   -0.8476    1.3815    0.8424 H   0  0  0  0  0  0  0  0  0  0  0  0
    0.3735   -0.0135    2.6099 H   0  0  0  0  0  0  0  0  0  0  0  0
    1.2569   -0.8167    1.3276 H   0  0  0  0  0  0  0  0  0  0  0  0
   -1.7518   -0.9600    1.8720 H   0  0  0  0  0  0  0  0  0  0  0  0
    0.4457   -3.0860    1.8727 H   0  0  0  0  0  0  0  0  0  0  0  0
   -1.2687   -3.3712    2.1983 H   0  0  0  0  0  0  0  0  0  0  0  0
   -0.3101   -2.3791    3.3118 H   0  0  0  0  0  0  0  0  0  0  0  0
   -0.2231   -2.1951   -0.4825 H   0  0  0  0  0  0  0  0  0  0  0  0
   -1.9122   -2.5189   -0.0573 H   0  0  0  0  0  0  0  0  0  0  0  0
   -1.4402   -0.9102   -0.5972 H   0  0  0  0  0  0  0  0  0  0  0  0
    2.4157    1.3092    1.3299 N   0  0  0  0  0  0  0  0  0  0  0  0
    3.6089    2.0437    1.6839 C   0  0  2  0  0  0  0  0  0  0  0  0
    3.1893    3.2526    2.5097 C   0  0  0  0  0  0  0  0  0  0  0  0
    2.0593    3.7348    2.4669 O   0  0  0  0  0  0  0  0  0  0  0  0
    4.3822    2.4726    0.4466 C   0  0  0  0  0  0  0  0  0  0  0  0
    2.4636    0.2951    1.3613 H   0  0  0  0  0  0  0  0  0  0  0  0
    4.2210    1.3752    2.2990 H   0  0  0  0  0  0  0  0  0  0  0  0
    3.7849    3.1429   -0.1821 H   0  0  0  0  0  0  0  0  0  0  0  0
    5.3005    3.0041    0.7171 H   0  0  0  0  0  0  0  0  0  0  0  0
    4.6574    1.6041   -0.1614 H   0  0  0  0  0  0  0  0  0  0  0  0
    4.2373    3.7561    3.2676 N   0  0  0  0  0  0  0  0  0  0  0  0
    4.0950    4.9088    4.1262 C   0  0  0  0  0  0  0  0  0  0  0  0
    5.1353    3.2815    3.2563 H   0  0  0  0  0  0  0  0  0  0  0  0
    4.3740    5.8166    3.5713 H   0  0  0  0  0  0  0  0  0  0  0  0
    3.0502    4.9901    4.4606 H   0  0  0  0  0  0  0  0  0  0  0  0
    4.7524    4.7974    5.0012 H   0  0  0  0  0  0  0  0  0  0  0  0
  1  3  1  0  0  0  0
  1  7  1  0  0  0  0
  1  2  2  0  0  0  0
 37 38  1  0  0  0  0
 38 46  1  0  0  0  0
 38 39  2  0  0  0  0
  8  9  1  0  0  0  0
  9 17  1  0  0  0  0
  9 10  2  0  0  0  0
 18 19  1  0  0  0  0
 19 36  1  0  0  0  0
 19 20  2  0  0  0  0
 37 40  1  0  0  0  0
  8 11  1  0  0  0  0
 22 23  1  0  0  0  0
 22 24  1  0  0  0  0
 46 47  1  0  0  0  0
 18 21  1  0  0  0  0
 21 22  1  0  0  0  0
 36 37  1  0  0  0  0
  7  8  1  0  0  0  0
 17 18  1  0  0  0  0
  3  4  1  0  0  0  0
  3  5  1  0  0  0  0
  3  6  1  0  0  0  0
 40 43  1  0  0  0  0
 40 44  1  0  0  0  0
 40 45  1  0  0  0  0
 11 14  1  0  0  0  0
 11 15  1  0  0  0  0
 11 16  1  0  0  0  0
 23 30  1  0  0  0  0
 23 31  1  0  0  0  0
 23 32  1  0  0  0  0
 24 33  1  0  0  0  0
 24 34  1  0  0  0  0
 24 35  1  0  0  0  0
 47 49  1  0  0  0  0
 47 50  1  0  0  0  0
 47 51  1  0  0  0  0
 21 27  1  0  0  0  0
 21 28  1  0  0  0  0
 37 42  1  0  0  0  0
  8 13  1  0  0  0  0
 18 26  1  0  0  0  0
 22 29  1  0  0  0  0
 46 48  1  0  0  0  0
  7 12  1  0  0  0  0
 36 41  1  0  0  0  0
 17 25  1  0  0  0  0
M  END
$$$$

  -OEChem-05262214473D

 51 50  0     1  0  0  0  0  0999 V2000
    3.4018   -1.2440   -3.0186 C   0  0  0  0  0  0  0  0  0  0  0  0
    3.2697   -2.0909   -2.1427 O   0  0  0  0  0  0  0  0  0  0  0  0
    4.6845   -1.1645   -3.7779 C   0  0  0  0  0  0  0  0  0  0  0  0
    5.4123   -0.4862   -3.3041 H   0  0  0  0  0  0  0  0  0  0  0  0
    5.1949   -2.1387   -3.8443 H   0  0  0  0  0  0  0  0  0  0  0  0
    4.5953   -0.8128   -4.8182 H   0  0  0  0  0  0  0  0  0  0  0  0
    2.4540   -0.3103   -3.4040 N   0  0  0  0  0  0  0  0  0  0  0  0
    1.1494   -0.2128   -2.8039 C   0  0  2  0  0  0  0  0  0  0  0  0
    1.3350    0.0367   -1.3130 C   0  0  0  0  0  0  0  0  0  0  0  0
    2.3625   -0.2586   -0.7063 O   0  0  0  0  0  0  0  0  0  0  0  0
    0.3331   -1.4728   -3.0467 C   0  0  0  0  0  0  0  0  0  0  0  0
    2.6924    0.3404   -4.1502 H   0  0  0  0  0  0  0  0  0  0  0  0
    0.6550    0.6514   -3.2607 H   0  0  0  0  0  0  0  0  0  0  0  0
    0.8129   -2.3494   -2.5963 H   0  0  0  0  0  0  0  0  0  0  0  0
   -0.6690   -1.3857   -2.6142 H   0  0  0  0  0  0  0  0  0  0  0  0
    0.2259   -1.6670   -4.1194 H   0  0  0  0  0  0  0  0  0  0  0  0
    0.2019    0.5893   -0.7269 N   0  0  0  0  0  0  0  0  0  0  0  0
    0.1242    0.9059    0.6756 C   0  0  2  0  0  0  0  0  0  0  0  0
    1.2239    1.9218    0.9682 C   0  0  0  0  0  0  0  0  0  0  0  0
    0.9962    3.1092    1.1905 O   0  0  0  0  0  0  0  0  0  0  0  0
    0.2985   -0.3344    1.5613 C   0  0  0  0  0  0  0  0  0  0  0  0
   -0.8320   -1.3770    1.4443 C   0  0  0  0  0  0  0  0  0  0  0  0
   -0.4702   -2.6239    2.2562 C   0  0  0  0  0  0  0  0  0  0  0  0
   -1.1135   -1.7709   -0.0063 C   0  0  0  0  0  0  0  0  0  0  0  0
   -0.5975    0.8179   -1.3140 H   0  0  0  0  0  0  0  0  0  0  0  0
   -0.8476    1.3815    0.8424 H   0  0  0  0  0  0  0  0  0  0  0  0
    0.3735   -0.0135    2.6099 H   0  0  0  0  0  0  0  0  0  0  0  0
    1.2569   -0.8167    1.3276 H   0  0  0  0  0  0  0  0  0  0  0  0
   -1.7518   -0.9600    1.8720 H   0  0  0  0  0  0  0  0  0  0  0  0
    0.4457   -3.0860    1.8727 H   0  0  0  0  0  0  0  0  0  0  0  0
   -1.2687   -3.3712    2.1983 H   0  0  0  0  0  0  0  0  0  0  0  0
   -0.3101   -2.3791    3.3118 H   0  0  0  0  0  0  0  0  0  0  0  0
   -0.2231   -2.1951   -0.4825 H   0  0  0  0  0  0  0  0  0  0  0  0
   -1.9122   -2.5189   -0.0573 H   0  0  0  0  0  0  0  0  0  0  0  0
   -1.4402   -0.9102   -0.5972 H   0  0  0  0  0  0  0  0  0  0  0  0
    2.4806    1.3335    1.0013 N   0  0  0  0  0  0  0  0  0  0  0  0
    3.6926    2.0684    1.2839 C   0  0  2  0  0  0  0  0  0  0  0  0
    3.3858    3.0762    2.3837 C   0  0  0  0  0  0  0  0  0  0  0  0
    2.2507    3.4824    2.6238 O   0  0  0  0  0  0  0  0  0  0  0  0
    4.2198    2.7657    0.0394 C   0  0  0  0  0  0  0  0  0  0  0  0
    2.5671    0.3362    0.8300 H   0  0  0  0  0  0  0  0  0  0  0  0
    4.4258    1.3409    1.6485 H   0  0  0  0  0  0  0  0  0  0  0  0
    3.4986    3.4985   -0.3405 H   0  0  0  0  0  0  0  0  0  0  0  0
    5.1533    3.2984    0.2486 H   0  0  0  0  0  0  0  0  0  0  0  0
    4.4117    2.0426   -0.7606 H   0  0  0  0  0  0  0  0  0  0  0  0
    4.5341    3.5012    3.0372 N   0  0  0  0  0  0  0  0  0  0  0  0
    4.5078    4.4662    4.1116 C   0  0  0  0  0  0  0  0  0  0  0  0
    5.4311    3.0970    2.7851 H   0  0  0  0  0  0  0  0  0  0  0  0
    4.6538    5.4764    3.7014 H   0  0  0  0  0  0  0  0  0  0  0  0
    3.5366    4.4161    4.6256 H   0  0  0  0  0  0  0  0  0  0  0  0
    5.3130    4.2409    4.8263 H   0  0  0  0  0  0  0  0  0  0  0  0
  1  3  1  0  0  0  0
  1  7  1  0  0  0  0
  1  2  2  0  0  0  0
 37 38  1  0  0  0  0
 38 46  1  0  0  0  0
 38 39  2  0  0  0  0
  8  9  1  0  0  0  0
  9 17  1  0  0  0  0
  9 10  2  0  0  0  0
 18 19  1  0  0  0  0
 19 36  1  0  0  0  0
 19 20  2  0  0  0  0
 37 40  1  0  0  0  0
  8 11  1  0  0  0  0
 22 23  1  0  0  0  0
 22 24  1  0  0  0  0
 46 47  1  0  0  0  0
 18 21  1  0  0  0  0
 21 22  1  0  0  0  0
 36 37  1  0  0  0  0
  7  8  1  0  0  0  0
 17 18  1  0  0  0  0
  3  4  1  0  0  0  0
  3  5  1  0  0  0  0
  3  6  1  0  0  0  0
 40 43  1  0  0  0  0
 40 44  1  0  0  0  0
 40 45  1  0  0  0  0
 11 14  1  0  0  0  0
 11 15  1  0  0  0  0
 11 16  1  0  0  0  0
 23 30  1  0  0  0  0
 23 31  1  0  0  0  0
 23 32  1  0  0  0  0
 24 33  1  0  0  0  0
 24 34  1  0  0  0  0
 24 35  1  0  0  0  0
 47 49  1  0  0  0  0
 47 50  1  0  0  0  0
 47 51  1  0  0  0  0
 21 27  1  0  0  0  0
 21 28  1  0  0  0  0
 37 42  1  0  0  0  0
  8 13  1  0  0  0  0
 18 26  1  0  0  0  0
 22 29  1  0  0  0  0
 46 48  1  0  0  0  0
  7 12  1  0  0  0  0
 36 41  1  0  0  0  0
 17 25  1  0  0  0  0
M  END
$$$$

  -OEChem-05262214473D

 51 50  0     1  0  0  0  0  0999 V2000
    3.4018   -1.2440   -3.0186 C   0  0  0  0  0  0  0  0  0  0  0  0
    3.2697   -2.0909   -2.1427 O   0  0  0  0  0  0  0  0  0  0  0  0
    4.6845   -1.1645   -3.7779 C   0  0  0  0  0  0  0  0  0  0  0  0
    5.4123   -0.4862   -3.3041 H   0  0  0  0  0  0  0  0  0  0  0  0
    5.1949   -2.1387   -3.8443 H   0  0  0  0  0  0  0  0  0  0  0  0
    4.5953   -0.8128   -4.8182 H   0  0  0  0  0  0  0  0  0  0  0  0
    2.4540   -0.3103   -3.4040 N   0  0  0  0  0  0  0  0  0  0  0  0
    1.1494   -0.2128   -2.8039 C   0  0  2  0  0  0  0  0  0  0  0  0
    1.3350    0.0367   -1.3130 C   0  0  0  0  0  0  0  0  0  0  0  0
    2.3625   -0.2586   -0.7063 O   0  0  0  0  0  0  0  0  0  0  0  0
    0.3331   -1.4728   -3.0467 C   0  0  0  0  0  0  0  0  0  0  0  0
    2.6924    0.3404   -4.1502 H   0  0  0  0  0  0  0  0  0  0  0  0
    0.6550    0.6514   -3.2607 H   0  0  0  0  0  0  0  0  0  0  0  0
    0.8129   -2.3494   -2.5963 H   0  0  0  0  0  0  0  0  0  0  0  0
   -0.6690   -1.3857   -2.6142 H   0  0  0  0  0  0  0  0  0  0  0  0
    0.2259   -1.6670   -4.1194 H   0  0  0  0  0  0  0  0  0  0  0  0
    0.2019    0.5893   -0.7269 N   0  0  0  0  0  0  0  0  0  0  0  0
    0.1242    0.9059    0.6756 C   0  0  2  0  0  0  0  0  0  0  0  0
    1.2239    1.9218    0.9682 C   0  0  0  0  0  0  0  0  0  0  0  0
    0.9997    3.0311    1.4481 O   0  0  0  0  0  0  0  0  0  0  0  0
    0.2985   -0.3344    1.5613 C   0  0  0  0  0  0  0  0  0  0  0  0
   -0.8320   -1.3770    1.4443 C   0  0  0  0  0  0  0  0  0  0  0  0
   -0.4702   -2.6239    2.2562 C   0  0  0  0  0  0  0  0  0  0  0  0
   -1.1135   -1.7709   -0.0063 C   0  0  0  0  0  0  0  0  0  0  0  0
   -0.5975    0.8179   -1.3140 H   0  0  0  0  0  0  0  0  0  0  0  0
   -0.8476    1.3815    0.8424 H   0  0  0  0  0  0  0  0  0  0  0  0
    0.3735   -0.0135    2.6099 H   0  0  0  0  0  0  0  0  0  0  0  0
    1.2569   -0.8167    1.3276 H   0  0  0  0  0  0  0  0  0  0  0  0
   -1.7518   -0.9600    1.8720 H   0  0  0  0  0  0  0  0  0  0  0  0
    0.4457   -3.0860    1.8727 H   0  0  0  0  0  0  0  0  0  0  0  0
   -1.2687   -3.3712    2.1983 H   0  0  0  0  0  0  0  0  0  0  0  0
   -0.3101   -2.3791    3.3118 H   0  0  0  0  0  0  0  0  0  0  0  0
   -0.2231   -2.1951   -0.4825 H   0  0  0  0  0  0  0  0  0  0  0  0
   -1.9122   -2.5189   -0.0573 H   0  0  0  0  0  0  0  0  0  0  0  0
   -1.4402   -0.9102   -0.5972 H   0  0  0  0  0  0  0  0  0  0  0  0
    2.4855    1.4216    0.6772 N   0  0  0  0  0  0  0  0  0  0  0  0
    3.7032    2.1711    0.8876 C   0  0  2  0  0  0  0  0  0  0  0  0
    3.5626    2.9391    2.1953 C   0  0  0  0  0  0  0  0  0  0  0  0
    2.4751    3.2189    2.6953 O   0  0  0  0  0  0  0  0  0  0  0  0
    3.9782    3.1167   -0.2712 C   0  0  0  0  0  0  0  0  0  0  0  0
    2.5734    0.4801    0.3066 H   0  0  0  0  0  0  0  0  0  0  0  0
    4.5133    1.4393    0.9785 H   0  0  0  0  0  0  0  0  0  0  0  0
    3.1772    3.8572   -0.3779 H   0  0  0  0  0  0  0  0  0  0  0  0
    4.9157    3.6629   -0.1237 H   0  0  0  0  0  0  0  0  0  0  0  0
    4.0494    2.5658   -1.2153 H   0  0  0  0  0  0  0  0  0  0  0  0
    4.7937    3.3128    2.7159 N   0  0  0  0  0  0  0  0  0  0  0  0
    4.9260    4.0619    3.9437 C   0  0  0  0  0  0  0  0  0  0  0  0
    5.6449    3.0213    2.2445 H   0  0  0  0  0  0  0  0  0  0  0  0
    4.9633    5.1373    3.7154 H   0  0  0  0  0  0  0  0  0  0  0  0
    4.0633    3.8549    4.5941 H   0  0  0  0  0  0  0  0  0  0  0  0
    5.8521    3.7638    4.4570 H   0  0  0  0  0  0  0  0  0  0  0  0
  1  3  1  0  0  0  0
  1  7  1  0  0  0  0
  1  2  2  0  0  0  0
 37 38  1  0  0  0  0
 38 46  1  0  0  0  0
 38 39  2  0  0  0  0
  8  9  1  0  0  0  0
  9 17  1  0  0  0  0
  9 10  2  0  0  0  0
 18 19  1  0  0  0  0
 19 36  1  0  0  0  0
 19 20  2  0  0  0  0
 37 40  1  0  0  0  0
  8 11  1  0  0  0  0
 22 23  1  0  0  0  0
 22 24  1  0  0  0  0
 46 47  1  0  0  0  0
 18 21  1  0  0  0  0
 21 22  1  0  0  0  0
 36 37  1  0  0  0  0
  7  8  1  0  0  0  0
 17 18  1  0  0  0  0
  3  4  1  0  0  0  0
  3  5  1  0  0  0  0
  3  6  1  0  0  0  0
 40 43  1  0  0  0  0
 40 44  1  0  0  0  0
 40 45  1  0  0  0  0
 11 14  1  0  0  0  0
 11 15  1  0  0  0  0
 11 16  1  0  0  0  0
 23 30  1  0  0  0  0
 23 31  1  0  0  0  0
 23 32  1  0  0  0  0
 24 33  1  0  0  0  0
 24 34  1  0  0  0  0
 24 35  1  0  0  0  0
 47 49  1  0  0  0  0
 47 50  1  0  0  0  0
 47 51  1  0  0  0  0
 21 27  1  0  0  0  0
 21 28  1  0  0  0  0
 37 42  1  0  0  0  0
  8 13  1  0  0  0  0
 18 26  1  0  0  0  0
 22 29  1  0  0  0  0
 46 48  1  0  0  0  0
  7 12  1  0  0  0  0
 36 41  1  0  0  0  0
 17 25  1  0  0  0  0
M  END
$$$$

  -OEChem-05262214473D

 51 50  0     1  0  0  0  0  0999 V2000
    3.4018   -1.2440   -3.0186 C   0  0  0  0  0  0  0  0  0  0  0  0
    3.2697   -2.0909   -2.1427 O   0  0  0  0  0  0  0  0  0  0  0  0
    4.6845   -1.1645   -3.7779 C   0  0  0  0  0  0  0  0  0  0  0  0
    5.4123   -0.4862   -3.3041 H   0  0  0  0  0  0  0  0  0  0  0  0
    5.1949   -2.1387   -3.8443 H   0  0  0  0  0  0  0  0  0  0  0  0
    4.5953   -0.8128   -4.8182 H   0  0  0  0  0  0  0  0  0  0  0  0
    2.4540   -0.3103   -3.4040 N   0  0  0  0  0  0  0  0  0  0  0  0
    1.1494   -0.2128   -2.8039 C   0  0  2  0  0  0  0  0  0  0  0  0
    1.3350    0.0367   -1.3130 C   0  0  0  0  0  0  0  0  0  0  0  0
    2.3625   -0.2586   -0.7063 O   0  0  0  0  0  0  0  0  0  0  0  0
    0.3331   -1.4728   -3.0467 C   0  0  0  0  0  0  0  0  0  0  0  0
    2.6924    0.3404   -4.1502 H   0  0  0  0  0  0  0  0  0  0  0  0
    0.6550    0.6514   -3.2607 H   0  0  0  0  0  0  0  0  0  0  0  0
    0.8129   -2.3494   -2.5963 H   0  0  0  0  0  0  0  0  0  0  0  0
   -0.6690   -1.3857   -2.6142 H   0  0  0  0  0  0  0  0  0  0  0  0
    0.2259   -1.6670   -4.1194 H   0  0  0  0  0  0  0  0  0  0  0  0
    0.2019    0.5893   -0.7269 N   0  0  0  0  0  0  0  0  0  0  0  0
    0.1242    0.9059    0.6756 C   0  0  2  0  0  0  0  0  0  0  0  0
    1.2239    1.9218    0.9682 C   0  0  0  0  0  0  0  0  0  0  0  0
    1.0515    2.9078    1.6818 O   0  0  0  0  0  0  0  0  0  0  0  0
    0.2985   -0.3344    1.5613 C   0  0  0  0  0  0  0  0  0  0  0  0
   -0.8320   -1.3770    1.4443 C   0  0  0  0  0  0  0  0  0  0  0  0
   -0.4702   -2.6239    2.2562 C   0  0  0  0  0  0  0  0  0  0  0  0
   -1.1135   -1.7709   -0.0063 C   0  0  0  0  0  0  0  0  0  0  0  0
   -0.5975    0.8179   -1.3140 H   0  0  0  0  0  0  0  0  0  0  0  0
   -0.8476    1.3815    0.8424 H   0  0  0  0  0  0  0  0  0  0  0  0
    0.3735   -0.0135    2.6099 H   0  0  0  0  0  0  0  0  0  0  0  0
    1.2569   -0.8167    1.3276 H   0  0  0  0  0  0  0  0  0  0  0  0
   -1.7518   -0.9600    1.8720 H   0  0  0  0  0  0  0  0  0  0  0  0
    0.4457   -3.0860    1.8727 H   0  0  0  0  0  0  0  0  0  0  0  0
   -1.2687   -3.3712    2.1983 H   0  0  0  0  0  0  0  0  0  0  0  0
   -0.3101   -2.3791    3.3118 H   0  0  0  0  0  0  0  0  0  0  0  0
   -0.2231   -2.1951   -0.4825 H   0  0  0  0  0  0  0  0  0  0  0  0
   -1.9122   -2.5189   -0.0573 H   0  0  0  0  0  0  0  0  0  0  0  0
   -1.4402   -0.9102   -0.5972 H   0  0  0  0  0  0  0  0  0  0  0  0
    2.4300    1.5674    0.3797 N   0  0  0  0  0  0  0  0  0  0  0  0
    3.6400    2.3447    0.5222 C   0  0  2  0  0  0  0  0  0  0  0  0
    3.7078    2.8506    1.9571 C   0  0  0  0  0  0  0  0  0  0  0  0
    2.7173    2.9622    2.6765 O   0  0  0  0  0  0  0  0  0  0  0  0
    3.6739    3.5017   -0.4642 C   0  0  0  0  0  0  0  0  0  0  0  0
    2.4822    0.7171   -0.1732 H   0  0  0  0  0  0  0  0  0  0  0  0
    4.4773    1.6637    0.3345 H   0  0  0  0  0  0  0  0  0  0  0  0
    2.8424    4.1947   -0.2916 H   0  0  0  0  0  0  0  0  0  0  0  0
    4.6040    4.0725   -0.3744 H   0  0  0  0  0  0  0  0  0  0  0  0
    3.5951    3.1380   -1.4944 H   0  0  0  0  0  0  0  0  0  0  0  0
    4.9984    3.2035    2.3257 N   0  0  0  0  0  0  0  0  0  0  0  0
    5.3210    3.7234    3.6340 C   0  0  0  0  0  0  0  0  0  0  0  0
    5.7619    3.0597    1.6714 H   0  0  0  0  0  0  0  0  0  0  0  0
    5.2815    4.8225    3.6123 H   0  0  0  0  0  0  0  0  0  0  0  0
    4.5946    3.3450    4.3682 H   0  0  0  0  0  0  0  0  0  0  0  0
    6.3328    3.3986    3.9183 H   0  0  0  0  0  0  0  0  0  0  0  0
  1  3  1  0  0  0  0
  1  7  1  0  0  0  0
  1  2  2  0  0  0  0
 37 38  1  0  0  0  0
 38 46  1  0  0  0  0
 38 39  2  0  0  0  0
  8  9  1  0  0  0  0
  9 17  1  0  0  0  0
  9 10  2  0  0  0  0
 18 19  1  0  0  0  0
 19 36  1  0  0  0  0
 19 20  2  0  0  0  0
 37 40  1  0  0  0  0
  8 11  1  0  0  0  0
 22 23  1  0  0  0  0
 22 24  1  0  0  0  0
 46 47  1  0  0  0  0
 18 21  1  0  0  0  0
 21 22  1  0  0  0  0
 36 37  1  0  0  0  0
  7  8  1  0  0  0  0
 17 18  1  0  0  0  0
  3  4  1  0  0  0  0
  3  5  1  0  0  0  0
  3  6  1  0  0  0  0
 40 43  1  0  0  0  0
 40 44  1  0  0  0  0
 40 45  1  0  0  0  0
 11 14  1  0  0  0  0
 11 15  1  0  0  0  0
 11 16  1  0  0  0  0
 23 30  1  0  0  0  0
 23 31  1  0  0  0  0
 23 32  1  0  0  0  0
 24 33  1  0  0  0  0
 24 34  1  0  0  0  0
 24 35  1  0  0  0  0
 47 49  1  0  0  0  0
 47 50  1  0  0  0  0
 47 51  1  0  0  0  0
 21 27  1  0  0  0  0
 21 28  1  0  0  0  0
 37 42  1  0  0  0  0
  8 13  1  0  0  0  0
 18 26  1  0  0  0  0
 22 29  1  0  0  0  0
 46 48  1  0  0  0  0
  7 12  1  0  0  0  0
 36 41  1  0  0  0  0
 17 25  1  0  0  0  0
M  END
$$$$

  -OEChem-05262214473D

 51 50  0     1  0  0  0  0  0999 V2000
    3.4018   -1.2440   -3.0186 C   0  0  0  0  0  0  0  0  0  0  0  0
    3.2697   -2.0909   -2.1427 O   0  0  0  0  0  0  0  0  0  0  0  0
    4.6845   -1.1645   -3.7779 C   0  0  0  0  0  0  0  0  0  0  0  0
    5.4123   -0.4862   -3.3041 H   0  0  0  0  0  0  0  0  0  0  0  0
    5.1949   -2.1387   -3.8443 H   0  0  0  0  0  0  0  0  0  0  0  0
    4.5953   -0.8128   -4.8182 H   0  0  0  0  0  0  0  0  0  0  0  0
    2.4540   -0.3103   -3.4040 N   0  0  0  0  0  0  0  0  0  0  0  0
    1.1494   -0.2128   -2.8039 C   0  0  2  0  0  0  0  0  0  0  0  0
    1.3350    0.0367   -1.3130 C   0  0  0  0  0  0  0  0  0  0  0  0
    2.3625   -0.2586   -0.7063 O   0  0  0  0  0  0  0  0  0  0  0  0
    0.3331   -1.4728   -3.0467 C   0  0  0  0  0  0  0  0  0  0  0  0
    2.6924    0.3404   -4.1502 H   0  0  0  0  0  0  0  0  0  0  0  0
    0.6550    0.6514   -3.2607 H   0  0  0  0  0  0  0  0  0  0  0  0
    0.8129   -2.3494   -2.5963 H   0  0  0  0  0  0  0  0  0  0  0  0
   -0.6690   -1.3857   -2.6142 H   0  0  0  0  0  0  0  0  0  0  0  0
    0.2259   -1.6670   -4.1194 H   0  0  0  0  0  0  0  0  0  0  0  0
    0.2019    0.5893   -0.7269 N   0  0  0  0  0  0  0  0  0  0  0  0
    0.1242    0.9059    0.6756 C   0  0  2  0  0  0  0  0  0  0  0  0
    1.2239    1.9218    0.9682 C   0  0  0  0  0  0  0  0  0  0  0  0
    1.1478    2.7477    1.8755 O   0  0  0  0  0  0  0  0  0  0  0  0
    0.2985   -0.3344    1.5613 C   0  0  0  0  0  0  0  0  0  0  0  0
   -0.8320   -1.3770    1.4443 C   0  0  0  0  0  0  0  0  0  0  0  0
   -0.4702   -2.6239    2.2562 C   0  0  0  0  0  0  0  0  0  0  0  0
   -1.1135   -1.7709   -0.0063 C   0  0  0  0  0  0  0  0  0  0  0  0
   -0.5975    0.8179   -1.3140 H   0  0  0  0  0  0  0  0  0  0  0  0
   -0.8476    1.3815    0.8424 H   0  0  0  0  0  0  0  0  0  0  0  0
    0.3735   -0.0135    2.6099 H   0  0  0  0  0  0  0  0  0  0  0  0
    1.2569   -0.8167    1.3276 H   0  0  0  0  0  0  0  0  0  0  0  0
   -1.7518   -0.9600    1.8720 H   0  0  0  0  0  0  0  0  0  0  0  0
    0.4457   -3.0860    1.8727 H   0  0  0  0  0  0  0  0  0  0  0  0
   -1.2687   -3.3712    2.1983 H   0  0  0  0  0  0  0  0  0  0  0  0
   -0.3101   -2.3791    3.3118 H   0  0  0  0  0  0  0  0  0  0  0  0
   -0.2231   -2.1951   -0.4825 H   0  0  0  0  0  0  0  0  0  0  0  0
   -1.9122   -2.5189   -0.0573 H   0  0  0  0  0  0  0  0  0  0  0  0
   -1.4402   -0.9102   -0.5972 H   0  0  0  0  0  0  0  0  0  0  0  0
    2.3178    1.7610    0.1292 N   0  0  0  0  0  0  0  0  0  0  0  0
    3.5074    2.5774    0.2126 C   0  0  2  0  0  0  0  0  0  0  0  0
    3.8113    2.8167    1.6856 C   0  0  0  0  0  0  0  0  0  0  0  0
    2.9607    2.7297    2.5687 O   0  0  0  0  0  0  0  0  0  0  0  0
    3.3276    3.8945   -0.5262 C   0  0  0  0  0  0  0  0  0  0  0  0
    2.2996    1.0310   -0.5768 H   0  0  0  0  0  0  0  0  0  0  0  0
    4.3204    1.9988   -0.2394 H   0  0  0  0  0  0  0  0  0  0  0  0
    2.5172    4.4881   -0.0876 H   0  0  0  0  0  0  0  0  0  0  0  0
    4.2393    4.4995   -0.4863 H   0  0  0  0  0  0  0  0  0  0  0  0
    3.0797    3.7202   -1.5788 H   0  0  0  0  0  0  0  0  0  0  0  0
    5.1343    3.1810    1.8931 N   0  0  0  0  0  0  0  0  0  0  0  0
    5.6660    3.4739    3.2036 C   0  0  0  0  0  0  0  0  0  0  0  0
    5.7743    3.2096    1.1048 H   0  0  0  0  0  0  0  0  0  0  0  0
    5.5867    4.5535    3.3991 H   0  0  0  0  0  0  0  0  0  0  0  0
    5.0941    2.9209    3.9632 H   0  0  0  0  0  0  0  0  0  0  0  0
    6.7224    3.1702    3.2469 H   0  0  0  0  0  0  0  0  0  0  0  0
  1  3  1  0  0  0  0
  1  7  1  0  0  0  0
  1  2  2  0  0  0  0
 37 38  1  0  0  0  0
 38 46  1  0  0  0  0
 38 39  2  0  0  0  0
  8  9  1  0  0  0  0
  9 17  1  0  0  0  0
  9 10  2  0  0  0  0
 18 19  1  0  0  0  0
 19 36  1  0  0  0  0
 19 20  2  0  0  0  0
 37 40  1  0  0  0  0
  8 11  1  0  0  0  0
 22 23  1  0  0  0  0
 22 24  1  0  0  0  0
 46 47  1  0  0  0  0
 18 21  1  0  0  0  0
 21 22  1  0  0  0  0
 36 37  1  0  0  0  0
  7  8  1  0  0  0  0
 17 18  1  0  0  0  0
  3  4  1  0  0  0  0
  3  5  1  0  0  0  0
  3  6  1  0  0  0  0
 40 43  1  0  0  0  0
 40 44  1  0  0  0  0
 40 45  1  0  0  0  0
 11 14  1  0  0  0  0
 11 15  1  0  0  0  0
 11 16  1  0  0  0  0
 23 30  1  0  0  0  0
 23 31  1  0  0  0  0
 23 32  1  0  0  0  0
 24 33  1  0  0  0  0
 24 34  1  0  0  0  0
 24 35  1  0  0  0  0
 47 49  1  0  0  0  0
 47 50  1  0  0  0  0
 47 51  1  0  0  0  0
 21 27  1  0  0  0  0
 21 28  1  0  0  0  0
 37 42  1  0  0  0  0
  8 13  1  0  0  0  0
 18 26  1  0  0  0  0
 22 29  1  0  0  0  0
 46 48  1  0  0  0  0
  7 12  1  0  0  0  0
 36 41  1  0  0  0  0
 17 25  1  0  0  0  0
M  END
$$$$

  -OEChem-05262214473D

 51 50  0     1  0  0  0  0  0999 V2000
    3.4018   -1.2440   -3.0186 C   0  0  0  0  0  0  0  0  0  0  0  0
    3.2697   -2.0909   -2.1427 O   0  0  0  0  0  0  0  0  0  0  0  0
    4.6845   -1.1645   -3.7779 C   0  0  0  0  0  0  0  0  0  0  0  0
    5.4123   -0.4862   -3.3041 H   0  0  0  0  0  0  0  0  0  0  0  0
    5.1949   -2.1387   -3.8443 H   0  0  0  0  0  0  0  0  0  0  0  0
    4.5953   -0.8128   -4.8182 H   0  0  0  0  0  0  0  0  0  0  0  0
    2.4540   -0.3103   -3.4040 N   0  0  0  0  0  0  0  0  0  0  0  0
    1.1494   -0.2128   -2.8039 C   0  0  2  0  0  0  0  0  0  0  0  0
    1.3350    0.0367   -1.3130 C   0  0  0  0  0  0  0  0  0  0  0  0
    2.3625   -0.2586   -0.7063 O   0  0  0  0  0  0  0  0  0  0  0  0
    0.3331   -1.4728   -3.0467 C   0  0  0  0  0  0  0  0  0  0  0  0
    2.6924    0.3404   -4.1502 H   0  0  0  0  0  0  0  0  0  0  0  0
    0.6550    0.6514   -3.2607 H   0  0  0  0  0  0  0  0  0  0  0  0
    0.8129   -2.3494   -2.5963 H   0  0  0  0  0  0  0  0  0  0  0  0
   -0.6690   -1.3857   -2.6142 H   0  0  0  0  0  0  0  0  0  0  0  0
    0.2259   -1.6670   -4.1194 H   0  0  0  0  0  0  0  0  0  0  0  0
    0.2019    0.5893   -0.7269 N   0  0  0  0  0  0  0  0  0  0  0  0
    0.1242    0.9059    0.6756 C   0  0  2  0  0  0  0  0  0  0  0  0
    1.2239    1.9218    0.9682 C   0  0  0  0  0  0  0  0  0  0  0  0
    1.2822    2.5617    2.0162 O   0  0  0  0  0  0  0  0  0  0  0  0
    0.2985   -0.3344    1.5613 C   0  0  0  0  0  0  0  0  0  0  0  0
   -0.8320   -1.3770    1.4443 C   0  0  0  0  0  0  0  0  0  0  0  0
   -0.4702   -2.6239    2.2562 C   0  0  0  0  0  0  0  0  0  0  0  0
   -1.1135   -1.7709   -0.0063 C   0  0  0  0  0  0  0  0  0  0  0  0
   -0.5975    0.8179   -1.3140 H   0  0  0  0  0  0  0  0  0  0  0  0
   -0.8476    1.3815    0.8424 H   0  0  0  0  0  0  0  0  0  0  0  0
    0.3735   -0.0135    2.6099 H   0  0  0  0  0  0  0  0  0  0  0  0
    1.2569   -0.8167    1.3276 H   0  0  0  0  0  0  0  0  0  0  0  0
   -1.7518   -0.9600    1.8720 H   0  0  0  0  0  0  0  0  0  0  0  0
    0.4457   -3.0860    1.8727 H   0  0  0  0  0  0  0  0  0  0  0  0
   -1.2687   -3.3712    2.1983 H   0  0  0  0  0  0  0  0  0  0  0  0
   -0.3101   -2.3791    3.3118 H   0  0  0  0  0  0  0  0  0  0  0  0
   -0.2231   -2.1951   -0.4825 H   0  0  0  0  0  0  0  0  0  0  0  0
   -1.9122   -2.5189   -0.0573 H   0  0  0  0  0  0  0  0  0  0  0  0
   -1.4402   -0.9102   -0.5972 H   0  0  0  0  0  0  0  0  0  0  0  0
    2.1567    1.9892   -0.0574 N   0  0  0  0  0  0  0  0  0  0  0  0
    3.3144    2.8534   -0.0203 C   0  0  2  0  0  0  0  0  0  0  0  0
    3.8662    2.8398    1.3992 C   0  0  0  0  0  0  0  0  0  0  0  0
    3.1888    2.5374    2.3793 O   0  0  0  0  0  0  0  0  0  0  0  0
    2.9628    4.2682   -0.4532 C   0  0  0  0  0  0  0  0  0  0  0  0
    2.0381    1.4004   -0.8765 H   0  0  0  0  0  0  0  0  0  0  0  0
    4.0534    2.4218   -0.7042 H   0  0  0  0  0  0  0  0  0  0  0  0
    2.2236    4.7172    0.2202 H   0  0  0  0  0  0  0  0  0  0  0  0
    3.8466    4.9148   -0.4520 H   0  0  0  0  0  0  0  0  0  0  0  0
    2.5385    4.2727   -1.4630 H   0  0  0  0  0  0  0  0  0  0  0  0
    5.1922    3.2467    1.4476 N   0  0  0  0  0  0  0  0  0  0  0  0
    5.9375    3.3304    2.6819 C   0  0  0  0  0  0  0  0  0  0  0  0
    5.6811    3.4606    0.5833 H   0  0  0  0  0  0  0  0  0  0  0  0
    5.8581    4.3486    3.0904 H   0  0  0  0  0  0  0  0  0  0  0  0
    5.5278    2.6116    3.4069 H   0  0  0  0  0  0  0  0  0  0  0  0
    6.9943    3.0943    2.4887 H   0  0  0  0  0  0  0  0  0  0  0  0
  1  3  1  0  0  0  0
  1  7  1  0  0  0  0
  1  2  2  0  0  0  0
 37 38  1  0  0  0  0
 38 46  1  0  0  0  0
 38 39  2  0  0  0  0
  8  9  1  0  0  0  0
  9 17  1  0  0  0  0
  9 10  2  0  0  0  0
 18 19  1  0  0  0  0
 19 36  1  0  0  0  0
 19 20  2  0  0  0  0
 37 40  1  0  0  0  0
  8 11  1  0  0  0  0
 22 23  1  0  0  0  0
 22 24  1  0  0  0  0
 46 47  1  0  0  0  0
 18 21  1  0  0  0  0
 21 22  1  0  0  0  0
 36 37  1  0  0  0  0
  7  8  1  0  0  0  0
 17 18  1  0  0  0  0
  3  4  1  0  0  0  0
  3  5  1  0  0  0  0
  3  6  1  0  0  0  0
 40 43  1  0  0  0  0
 40 44  1  0  0  0  0
 40 45  1  0  0  0  0
 11 14  1  0  0  0  0
 11 15  1  0  0  0  0
 11 16  1  0  0  0  0
 23 30  1  0  0  0  0
 23 31  1  0  0  0  0
 23 32  1  0  0  0  0
 24 33  1  0  0  0  0
 24 34  1  0  0  0  0
 24 35  1  0  0  0  0
 47 49  1  0  0  0  0
 47 50  1  0  0  0  0
 47 51  1  0  0  0  0
 21 27  1  0  0  0  0
 21 28  1  0  0  0  0
 37 42  1  0  0  0  0
  8 13  1  0  0  0  0
 18 26  1  0  0  0  0
 22 29  1  0  0  0  0
 46 48  1  0  0  0  0
  7 12  1  0  0  0  0
 36 41  1  0  0  0  0
 17 25  1  0  0  0  0
M  END
$$$$

  -OEChem-05262214473D

 51 50  0     1  0  0  0  0  0999 V2000
    3.4018   -1.2440   -3.0186 C   0  0  0  0  0  0  0  0  0  0  0  0
    3.2697   -2.0909   -2.1427 O   0  0  0  0  0  0  0  0  0  0  0  0
    4.6845   -1.1645   -3.7779 C   0  0  0  0  0  0  0  0  0  0  0  0
    5.4123   -0.4862   -3.3041 H   0  0  0  0  0  0  0  0  0  0  0  0
    5.1949   -2.1387   -3.8443 H   0  0  0  0  0  0  0  0  0  0  0  0
    4.5953   -0.8128   -4.8182 H   0  0  0  0  0  0  0  0  0  0  0  0
    2.4540   -0.3103   -3.4040 N   0  0  0  0  0  0  0  0  0  0  0  0
    1.1494   -0.2128   -2.8039 C   0  0  2  0  0  0  0  0  0  0  0  0
    1.3350    0.0367   -1.3130 C   0  0  0  0  0  0  0  0  0  0  0  0
    2.3625   -0.2586   -0.7063 O   0  0  0  0  0  0  0  0  0  0  0  0
    0.3331   -1.4728   -3.0467 C   0  0  0  0  0  0  0  0  0  0  0  0
    2.6924    0.3404   -4.1502 H   0  0  0  0  0  0  0  0  0  0  0  0
    0.6550    0.6514   -3.2607 H   0  0  0  0  0  0  0  0  0  0  0  0
    0.8129   -2.3494   -2.5963 H   0  0  0  0  0  0  0  0  0  0  0  0
   -0.6690   -1.3857   -2.6142 H   0  0  0  0  0  0  0  0  0  0  0  0
    0.2259   -1.6670   -4.1194 H   0  0  0  0  0  0  0  0  0  0  0  0
    0.2019    0.5893   -0.7269 N   0  0  0  0  0  0  0  0  0  0  0  0
    0.1242    0.9059    0.6756 C   0  0  2  0  0  0  0  0  0  0  0  0
    1.2239    1.9218    0.9682 C   0  0  0  0  0  0  0  0  0  0  0  0
    1.4455    2.3624    2.0942 O   0  0  0  0  0  0  0  0  0  0  0  0
    0.2985   -0.3344    1.5613 C   0  0  0  0  0  0  0  0  0  0  0  0
   -0.8320   -1.3770    1.4443 C   0  0  0  0  0  0  0  0  0  0  0  0
   -0.4702   -2.6239    2.2562 C   0  0  0  0  0  0  0  0  0  0  0  0
   -1.1135   -1.7709   -0.0063 C   0  0  0  0  0  0  0  0  0  0  0  0
   -0.5975    0.8179   -1.3140 H   0  0  0  0  0  0  0  0  0  0  0  0
   -0.8476    1.3815    0.8424 H   0  0  0  0  0  0  0  0  0  0  0  0
    0.3735   -0.0135    2.6099 H   0  0  0  0  0  0  0  0  0  0  0  0
    1.2569   -0.8167    1.3276 H   0  0  0  0  0  0  0  0  0  0  0  0
   -1.7518   -0.9600    1.8720 H   0  0  0  0  0  0  0  0  0  0  0  0
    0.4457   -3.0860    1.8727 H   0  0  0  0  0  0  0  0  0  0  0  0
   -1.2687   -3.3712    2.1983 H   0  0  0  0  0  0  0  0  0  0  0  0
   -0.3101   -2.3791    3.3118 H   0  0  0  0  0  0  0  0  0  0  0  0
   -0.2231   -2.1951   -0.4825 H   0  0  0  0  0  0  0  0  0  0  0  0
   -1.9122   -2.5189   -0.0573 H   0  0  0  0  0  0  0  0  0  0  0  0
   -1.4402   -0.9102   -0.5972 H   0  0  0  0  0  0  0  0  0  0  0  0
    1.9576    2.2364   -0.1673 N   0  0  0  0  0  0  0  0  0  0  0  0
    3.0742    3.1539   -0.1604 C   0  0  2  0  0  0  0  0  0  0  0  0
    3.8687    2.9183    1.1173 C   0  0  0  0  0  0  0  0  0  0  0  0
    3.3860    2.3983    2.1211 O   0  0  0  0  0  0  0  0  0  0  0  0
    2.6046    4.5976   -0.2501 C   0  0  0  0  0  0  0  0  0  0  0  0
    1.7155    1.8002   -1.0520 H   0  0  0  0  0  0  0  0  0  0  0  0
    3.6943    2.9039   -1.0282 H   0  0  0  0  0  0  0  0  0  0  0  0
    1.9817    4.8665    0.6109 H   0  0  0  0  0  0  0  0  0  0  0  0
    3.4526    5.2899   -0.2736 H   0  0  0  0  0  0  0  0  0  0  0  0
    2.0082    4.7580   -1.1547 H   0  0  0  0  0  0  0  0  0  0  0  0
    5.1680    3.3962    1.0195 N   0  0  0  0  0  0  0  0  0  0  0  0
    6.1169    3.3025    2.1044 C   0  0  0  0  0  0  0  0  0  0  0  0
    5.4888    3.7958    0.1425 H   0  0  0  0  0  0  0  0  0  0  0  0
    6.0773    4.2218    2.7072 H   0  0  0  0  0  0  0  0  0  0  0  0
    5.8662    2.4383    2.7370 H   0  0  0  0  0  0  0  0  0  0  0  0
    7.1301    3.1759    1.6952 H   0  0  0  0  0  0  0  0  0  0  0  0
  1  3  1  0  0  0  0
  1  7  1  0  0  0  0
  1  2  2  0  0  0  0
 37 38  1  0  0  0  0
 38 46  1  0  0  0  0
 38 39  2  0  0  0  0
  8  9  1  0  0  0  0
  9 17  1  0  0  0  0
  9 10  2  0  0  0  0
 18 19  1  0  0  0  0
 19 36  1  0  0  0  0
 19 20  2  0  0  0  0
 37 40  1  0  0  0  0
  8 11  1  0  0  0  0
 22 23  1  0  0  0  0
 22 24  1  0  0  0  0
 46 47  1  0  0  0  0
 18 21  1  0  0  0  0
 21 22  1  0  0  0  0
 36 37  1  0  0  0  0
  7  8  1  0  0  0  0
 17 18  1  0  0  0  0
  3  4  1  0  0  0  0
  3  5  1  0  0  0  0
  3  6  1  0  0  0  0
 40 43  1  0  0  0  0
 40 44  1  0  0  0  0
 40 45  1  0  0  0  0
 11 14  1  0  0  0  0
 11 15  1  0  0  0  0
 11 16  1  0  0  0  0
 23 30  1  0  0  0  0
 23 31  1  0  0  0  0
 23 32  1  0  0  0  0
 24 33  1  0  0  0  0
 24 34  1  0  0  0  0
 24 35  1  0  0  0  0
 47 49  1  0  0  0  0
 47 50  1  0  0  0  0
 47 51  1  0  0  0  0
 21 27  1  0  0  0  0
 21 28  1  0  0  0  0
 37 42  1  0  0  0  0
  8 13  1  0  0  0  0
 18 26  1  0  0  0  0
 22 29  1  0  0  0  0
 46 48  1  0  0  0  0
  7 12  1  0  0  0  0
 36 41  1  0  0  0  0
 17 25  1  0  0  0  0
M  END
$$$$

  -OEChem-05262214473D

 51 50  0     1  0  0  0  0  0999 V2000
    3.4018   -1.2440   -3.0186 C   0  0  0  0  0  0  0  0  0  0  0  0
    3.2697   -2.0909   -2.1427 O   0  0  0  0  0  0  0  0  0  0  0  0
    4.6845   -1.1645   -3.7779 C   0  0  0  0  0  0  0  0  0  0  0  0
    5.4123   -0.4862   -3.3041 H   0  0  0  0  0  0  0  0  0  0  0  0
    5.1949   -2.1387   -3.8443 H   0  0  0  0  0  0  0  0  0  0  0  0
    4.5953   -0.8128   -4.8182 H   0  0  0  0  0  0  0  0  0  0  0  0
    2.4540   -0.3103   -3.4040 N   0  0  0  0  0  0  0  0  0  0  0  0
    1.1494   -0.2128   -2.8039 C   0  0  2  0  0  0  0  0  0  0  0  0
    1.3350    0.0367   -1.3130 C   0  0  0  0  0  0  0  0  0  0  0  0
    2.3625   -0.2586   -0.7063 O   0  0  0  0  0  0  0  0  0  0  0  0
    0.3331   -1.4728   -3.0467 C   0  0  0  0  0  0  0  0  0  0  0  0
    2.6924    0.3404   -4.1502 H   0  0  0  0  0  0  0  0  0  0  0  0
    0.6550    0.6514   -3.2607 H   0  0  0  0  0  0  0  0  0  0  0  0
    0.8129   -2.3494   -2.5963 H   0  0  0  0  0  0  0  0  0  0  0  0
   -0.6690   -1.3857   -2.6142 H   0  0  0  0  0  0  0  0  0  0  0  0
    0.2259   -1.6670   -4.1194 H   0  0  0  0  0  0  0  0  0  0  0  0
    0.2019    0.5893   -0.7269 N   0  0  0  0  0  0  0  0  0  0  0  0
    0.1242    0.9059    0.6756 C   0  0  2  0  0  0  0  0  0  0  0  0
    1.2239    1.9218    0.9682 C   0  0  0  0  0  0  0  0  0  0  0  0
    1.6266    2.1635    2.1042 O   0  0  0  0  0  0  0  0  0  0  0  0
    0.2985   -0.3344    1.5613 C   0  0  0  0  0  0  0  0  0  0  0  0
   -0.8320   -1.3770    1.4443 C   0  0  0  0  0  0  0  0  0  0  0  0
   -0.4702   -2.6239    2.2562 C   0  0  0  0  0  0  0  0  0  0  0  0
   -1.1135   -1.7709   -0.0063 C   0  0  0  0  0  0  0  0  0  0  0  0
   -0.5975    0.8179   -1.3140 H   0  0  0  0  0  0  0  0  0  0  0  0
   -0.8476    1.3815    0.8424 H   0  0  0  0  0  0  0  0  0  0  0  0
    0.3735   -0.0135    2.6099 H   0  0  0  0  0  0  0  0  0  0  0  0
    1.2569   -0.8167    1.3276 H   0  0  0  0  0  0  0  0  0  0  0  0
   -1.7518   -0.9600    1.8720 H   0  0  0  0  0  0  0  0  0  0  0  0
    0.4457   -3.0860    1.8727 H   0  0  0  0  0  0  0  0  0  0  0  0
   -1.2687   -3.3712    2.1983 H   0  0  0  0  0  0  0  0  0  0  0  0
   -0.3101   -2.3791    3.3118 H   0  0  0  0  0  0  0  0  0  0  0  0
   -0.2231   -2.1951   -0.4825 H   0  0  0  0  0  0  0  0  0  0  0  0
   -1.9122   -2.5189   -0.0573 H   0  0  0  0  0  0  0  0  0  0  0  0
   -1.4402   -0.9102   -0.5972 H   0  0  0  0  0  0  0  0  0  0  0  0
    1.7341    2.4857   -0.1929 N   0  0  0  0  0  0  0  0  0  0  0  0
    2.8030    3.4584   -0.1983 C   0  0  2  0  0  0  0  0  0  0  0  0
    3.8187    3.0468    0.8593 C   0  0  0  0  0  0  0  0  0  0  0  0
    3.5389    2.3218    1.8118 O   0  0  0  0  0  0  0  0  0  0  0  0
    2.2771    4.8600    0.0694 C   0  0  0  0  0  0  0  0  0  0  0  0
    1.3537    2.2031   -1.0913 H   0  0  0  0  0  0  0  0  0  0  0  0
    3.2677    3.4121   -1.1893 H   0  0  0  0  0  0  0  0  0  0  0  0
    1.8080    4.9258    1.0578 H   0  0  0  0  0  0  0  0  0  0  0  0
    3.0841    5.5995    0.0366 H   0  0  0  0  0  0  0  0  0  0  0  0
    1.5250    5.1428   -0.6750 H   0  0  0  0  0  0  0  0  0  0  0  0
    5.0635    3.6192    0.6381 N   0  0  0  0  0  0  0  0  0  0  0  0
    6.1920    3.3923    1.5104 C   0  0  0  0  0  0  0  0  0  0  0  0
    5.2104    4.1923   -0.1876 H   0  0  0  0  0  0  0  0  0  0  0  0
    6.2292    4.1816    2.2756 H   0  0  0  0  0  0  0  0  0  0  0  0
    6.0863    2.4126    1.9993 H   0  0  0  0  0  0  0  0  0  0  0  0
    7.1204    3.4095    0.9206 H   0  0  0  0  0  0  0  0  0  0  0  0
  1  3  1  0  0  0  0
  1  7  1  0  0  0  0
  1  2  2  0  0  0  0
 37 38  1  0  0  0  0
 38 46  1  0  0  0  0
 38 39  2  0  0  0  0
  8  9  1  0  0  0  0
  9 17  1  0  0  0  0
  9 10  2  0  0  0  0
 18 19  1  0  0  0  0
 19 36  1  0  0  0  0
 19 20  2  0  0  0  0
 37 40  1  0  0  0  0
  8 11  1  0  0  0  0
 22 23  1  0  0  0  0
 22 24  1  0  0  0  0
 46 47  1  0  0  0  0
 18 21  1  0  0  0  0
 21 22  1  0  0  0  0
 36 37  1  0  0  0  0
  7  8  1  0  0  0  0
 17 18  1  0  0  0  0
  3  4  1  0  0  0  0
  3  5  1  0  0  0  0
  3  6  1  0  0  0  0
 40 43  1  0  0  0  0
 40 44  1  0  0  0  0
 40 45  1  0  0  0  0
 11 14  1  0  0  0  0
 11 15  1  0  0  0  0
 11 16  1  0  0  0  0
 23 30  1  0  0  0  0
 23 31  1  0  0  0  0
 23 32  1  0  0  0  0
 24 33  1  0  0  0  0
 24 34  1  0  0  0  0
 24 35  1  0  0  0  0
 47 49  1  0  0  0  0
 47 50  1  0  0  0  0
 47 51  1  0  0  0  0
 21 27  1  0  0  0  0
 21 28  1  0  0  0  0
 37 42  1  0  0  0  0
  8 13  1  0  0  0  0
 18 26  1  0  0  0  0
 22 29  1  0  0  0  0
 46 48  1  0  0  0  0
  7 12  1  0  0  0  0
 36 41  1  0  0  0  0
 17 25  1  0  0  0  0
M  END
$$$$

  -OEChem-05262214473D

 51 50  0     1  0  0  0  0  0999 V2000
    3.4018   -1.2440   -3.0186 C   0  0  0  0  0  0  0  0  0  0  0  0
    3.2697   -2.0909   -2.1427 O   0  0  0  0  0  0  0  0  0  0  0  0
    4.6845   -1.1645   -3.7779 C   0  0  0  0  0  0  0  0  0  0  0  0
    5.4123   -0.4862   -3.3041 H   0  0  0  0  0  0  0  0  0  0  0  0
    5.1949   -2.1387   -3.8443 H   0  0  0  0  0  0  0  0  0  0  0  0
    4.5953   -0.8128   -4.8182 H   0  0  0  0  0  0  0  0  0  0  0  0
    2.4540   -0.3103   -3.4040 N   0  0  0  0  0  0  0  0  0  0  0  0
    1.1494   -0.2128   -2.8039 C   0  0  2  0  0  0  0  0  0  0  0  0
    1.3350    0.0367   -1.3130 C   0  0  0  0  0  0  0  0  0  0  0  0
    2.3625   -0.2586   -0.7063 O   0  0  0  0  0  0  0  0  0  0  0  0
    0.3331   -1.4728   -3.0467 C   0  0  0  0  0  0  0  0  0  0  0  0
    2.6924    0.3404   -4.1502 H   0  0  0  0  0  0  0  0  0  0  0  0
    0.6550    0.6514   -3.2607 H   0  0  0  0  0  0  0  0  0  0  0  0
    0.8129   -2.3494   -2.5963 H   0  0  0  0  0  0  0  0  0  0  0  0
   -0.6690   -1.3857   -2.6142 H   0  0  0  0  0  0  0  0  0  0  0  0
    0.2259   -1.6670   -4.1194 H   0  0  0  0  0  0  0  0  0  0  0  0
    0.2019    0.5893   -0.7269 N   0  0  0  0  0  0  0  0  0  0  0  0
    0.1242    0.9059    0.6756 C   0  0  2  0  0  0  0  0  0  0  0  0
    1.2239    1.9218    0.9682 C   0  0  0  0  0  0  0  0  0  0  0  0
    1.8132    1.9785    2.0456 O   0  0  0  0  0  0  0  0  0  0  0  0
    0.2985   -0.3344    1.5613 C   0  0  0  0  0  0  0  0  0  0  0  0
   -0.8320   -1.3770    1.4443 C   0  0  0  0  0  0  0  0  0  0  0  0
   -0.4702   -2.6239    2.2562 C   0  0  0  0  0  0  0  0  0  0  0  0
   -1.1135   -1.7709   -0.0063 C   0  0  0  0  0  0  0  0  0  0  0  0
   -0.5975    0.8179   -1.3140 H   0  0  0  0  0  0  0  0  0  0  0  0
   -0.8476    1.3815    0.8424 H   0  0  0  0  0  0  0  0  0  0  0  0
    0.3735   -0.0135    2.6099 H   0  0  0  0  0  0  0  0  0  0  0  0
    1.2569   -0.8167    1.3276 H   0  0  0  0  0  0  0  0  0  0  0  0
   -1.7518   -0.9600    1.8720 H   0  0  0  0  0  0  0  0  0  0  0  0
    0.4457   -3.0860    1.8727 H   0  0  0  0  0  0  0  0  0  0  0  0
   -1.2687   -3.3712    2.1983 H   0  0  0  0  0  0  0  0  0  0  0  0
   -0.3101   -2.3791    3.3118 H   0  0  0  0  0  0  0  0  0  0  0  0
   -0.2231   -2.1951   -0.4825 H   0  0  0  0  0  0  0  0  0  0  0  0
   -1.9122   -2.5189   -0.0573 H   0  0  0  0  0  0  0  0  0  0  0  0
   -1.4402   -0.9102   -0.5972 H   0  0  0  0  0  0  0  0  0  0  0  0
    1.5013    2.7203   -0.1327 N   0  0  0  0  0  0  0  0  0  0  0  0
    2.5194    3.7460   -0.1314 C   0  0  2  0  0  0  0  0  0  0  0  0
    3.7194    3.2166    0.6426 C   0  0  0  0  0  0  0  0  0  0  0  0
    3.6371    2.3134    1.4724 O   0  0  0  0  0  0  0  0  0  0  0  0
    2.0029    5.0376    0.4833 C   0  0  0  0  0  0  0  0  0  0  0  0
    0.9776    2.5816   -0.9918 H   0  0  0  0  0  0  0  0  0  0  0  0
    2.8026    3.9119   -1.1766 H   0  0  0  0  0  0  0  0  0  0  0  0
    1.7143    4.8910    1.5305 H   0  0  0  0  0  0  0  0  0  0  0  0
    2.7662    5.8223    0.4576 H   0  0  0  0  0  0  0  0  0  0  0  0
    1.1219    5.4010   -0.0565 H   0  0  0  0  0  0  0  0  0  0  0  0
    4.8857    3.9006    0.3293 N   0  0  0  0  0  0  0  0  0  0  0  0
    6.1578    3.5935    0.9405 C   0  0  0  0  0  0  0  0  0  0  0  0
    4.8649    4.6230   -0.3845 H   0  0  0  0  0  0  0  0  0  0  0  0
    6.3036    4.2309    1.8250 H   0  0  0  0  0  0  0  0  0  0  0  0
    6.1729    2.5363    1.2440 H   0  0  0  0  0  0  0  0  0  0  0  0
    6.9660    3.7791    0.2177 H   0  0  0  0  0  0  0  0  0  0  0  0
  1  3  1  0  0  0  0
  1  7  1  0  0  0  0
  1  2  2  0  0  0  0
 37 38  1  0  0  0  0
 38 46  1  0  0  0  0
 38 39  2  0  0  0  0
  8  9  1  0  0  0  0
  9 17  1  0  0  0  0
  9 10  2  0  0  0  0
 18 19  1  0  0  0  0
 19 36  1  0  0  0  0
 19 20  2  0  0  0  0
 37 40  1  0  0  0  0
  8 11  1  0  0  0  0
 22 23  1  0  0  0  0
 22 24  1  0  0  0  0
 46 47  1  0  0  0  0
 18 21  1  0  0  0  0
 21 22  1  0  0  0  0
 36 37  1  0  0  0  0
  7  8  1  0  0  0  0
 17 18  1  0  0  0  0
  3  4  1  0  0  0  0
  3  5  1  0  0  0  0
  3  6  1  0  0  0  0
 40 43  1  0  0  0  0
 40 44  1  0  0  0  0
 40 45  1  0  0  0  0
 11 14  1  0  0  0  0
 11 15  1  0  0  0  0
 11 16  1  0  0  0  0
 23 30  1  0  0  0  0
 23 31  1  0  0  0  0
 23 32  1  0  0  0  0
 24 33  1  0  0  0  0
 24 34  1  0  0  0  0
 24 35  1  0  0  0  0
 47 49  1  0  0  0  0
 47 50  1  0  0  0  0
 47 51  1  0  0  0  0
 21 27  1  0  0  0  0
 21 28  1  0  0  0  0
 37 42  1  0  0  0  0
  8 13  1  0  0  0  0
 18 26  1  0  0  0  0
 22 29  1  0  0  0  0
 46 48  1  0  0  0  0
  7 12  1  0  0  0  0
 36 41  1  0  0  0  0
 17 25  1  0  0  0  0
M  END
$$$$

  -OEChem-05262214473D

 51 50  0     1  0  0  0  0  0999 V2000
    3.4018   -1.2440   -3.0186 C   0  0  0  0  0  0  0  0  0  0  0  0
    3.2697   -2.0909   -2.1427 O   0  0  0  0  0  0  0  0  0  0  0  0
    4.6845   -1.1645   -3.7779 C   0  0  0  0  0  0  0  0  0  0  0  0
    5.4123   -0.4862   -3.3041 H   0  0  0  0  0  0  0  0  0  0  0  0
    5.1949   -2.1387   -3.8443 H   0  0  0  0  0  0  0  0  0  0  0  0
    4.5953   -0.8128   -4.8182 H   0  0  0  0  0  0  0  0  0  0  0  0
    2.4540   -0.3103   -3.4040 N   0  0  0  0  0  0  0  0  0  0  0  0
    1.1494   -0.2128   -2.8039 C   0  0  2  0  0  0  0  0  0  0  0  0
    1.3350    0.0367   -1.3130 C   0  0  0  0  0  0  0  0  0  0  0  0
    2.3625   -0.2586   -0.7063 O   0  0  0  0  0  0  0  0  0  0  0  0
    0.3331   -1.4728   -3.0467 C   0  0  0  0  0  0  0  0  0  0  0  0
    2.6924    0.3404   -4.1502 H   0  0  0  0  0  0  0  0  0  0  0  0
    0.6550    0.6514   -3.2607 H   0  0  0  0  0  0  0  0  0  0  0  0
    0.8129   -2.3494   -2.5963 H   0  0  0  0  0  0  0  0  0  0  0  0
   -0.6690   -1.3857   -2.6142 H   0  0  0  0  0  0  0  0  0  0  0  0
    0.2259   -1.6670   -4.1194 H   0  0  0  0  0  0  0  0  0  0  0  0
    0.2019    0.5893   -0.7269 N   0  0  0  0  0  0  0  0  0  0  0  0
    0.1242    0.9059    0.6756 C   0  0  2  0  0  0  0  0  0  0  0  0
    1.2239    1.9218    0.9682 C   0  0  0  0  0  0  0  0  0  0  0  0
    1.9924    1.8200    1.9223 O   0  0  0  0  0  0  0  0  0  0  0  0
    0.2985   -0.3344    1.5613 C   0  0  0  0  0  0  0  0  0  0  0  0
   -0.8320   -1.3770    1.4443 C   0  0  0  0  0  0  0  0  0  0  0  0
   -0.4702   -2.6239    2.2562 C   0  0  0  0  0  0  0  0  0  0  0  0
   -1.1135   -1.7709   -0.0063 C   0  0  0  0  0  0  0  0  0  0  0  0
   -0.5975    0.8179   -1.3140 H   0  0  0  0  0  0  0  0  0  0  0  0
   -0.8476    1.3815    0.8424 H   0  0  0  0  0  0  0  0  0  0  0  0
    0.3735   -0.0135    2.6099 H   0  0  0  0  0  0  0  0  0  0  0  0
    1.2569   -0.8167    1.3276 H   0  0  0  0  0  0  0  0  0  0  0  0
   -1.7518   -0.9600    1.8720 H   0  0  0  0  0  0  0  0  0  0  0  0
    0.4457   -3.0860    1.8727 H   0  0  0  0  0  0  0  0  0  0  0  0
   -1.2687   -3.3712    2.1983 H   0  0  0  0  0  0  0  0  0  0  0  0
   -0.3101   -2.3791    3.3118 H   0  0  0  0  0  0  0  0  0  0  0  0
   -0.2231   -2.1951   -0.4825 H   0  0  0  0  0  0  0  0  0  0  0  0
   -1.9122   -2.5189   -0.0573 H   0  0  0  0  0  0  0  0  0  0  0  0
   -1.4402   -0.9102   -0.5972 H   0  0  0  0  0  0  0  0  0  0  0  0
    1.2753    2.9241    0.0094 N   0  0  0  0  0  0  0  0  0  0  0  0
    2.2428    3.9973    0.0358 C   0  0  2  0  0  0  0  0  0  0  0  0
    3.5779    3.4161    0.4822 C   0  0  0  0  0  0  0  0  0  0  0  0
    3.6738    2.3733    1.1260 O   0  0  0  0  0  0  0  0  0  0  0  0
    1.8006    5.1183    0.9635 C   0  0  0  0  0  0  0  0  0  0  0  0
    0.6126    2.9100   -0.7602 H   0  0  0  0  0  0  0  0  0  0  0  0
    2.3307    4.3692   -0.9908 H   0  0  0  0  0  0  0  0  0  0  0  0
    1.7070    4.7646    1.9968 H   0  0  0  0  0  0  0  0  0  0  0  0
    2.5207    5.9432    0.9605 H   0  0  0  0  0  0  0  0  0  0  0  0
    0.8262    5.5151    0.6585 H   0  0  0  0  0  0  0  0  0  0  0  0
    4.6467    4.2212    0.1143 N   0  0  0  0  0  0  0  0  0  0  0  0
    6.0165    3.8926    0.4334 C   0  0  0  0  0  0  0  0  0  0  0  0
    4.4758    5.0586   -0.4347 H   0  0  0  0  0  0  0  0  0  0  0  0
    6.2953    4.3663    1.3862 H   0  0  0  0  0  0  0  0  0  0  0  0
    6.1203    2.8011    0.5226 H   0  0  0  0  0  0  0  0  0  0  0  0
    6.6773    4.2597   -0.3657 H   0  0  0  0  0  0  0  0  0  0  0  0
  1  3  1  0  0  0  0
  1  7  1  0  0  0  0
  1  2  2  0  0  0  0
 37 38  1  0  0  0  0
 38 46  1  0  0  0  0
 38 39  2  0  0  0  0
  8  9  1  0  0  0  0
  9 17  1  0  0  0  0
  9 10  2  0  0  0  0
 18 19  1  0  0  0  0
 19 36  1  0  0  0  0
 19 20  2  0  0  0  0
 37 40  1  0  0  0  0
  8 11  1  0  0  0  0
 22 23  1  0  0  0  0
 22 24  1  0  0  0  0
 46 47  1  0  0  0  0
 18 21  1  0  0  0  0
 21 22  1  0  0  0  0
 36 37  1  0  0  0  0
  7  8  1  0  0  0  0
 17 18  1  0  0  0  0
  3  4  1  0  0  0  0
  3  5  1  0  0  0  0
  3  6  1  0  0  0  0
 40 43  1  0  0  0  0
 40 44  1  0  0  0  0
 40 45  1  0  0  0  0
 11 14  1  0  0  0  0
 11 15  1  0  0  0  0
 11 16  1  0  0  0  0
 23 30  1  0  0  0  0
 23 31  1  0  0  0  0
 23 32  1  0  0  0  0
 24 33  1  0  0  0  0
 24 34  1  0  0  0  0
 24 35  1  0  0  0  0
 47 49  1  0  0  0  0
 47 50  1  0  0  0  0
 47 51  1  0  0  0  0
 21 27  1  0  0  0  0
 21 28  1  0  0  0  0
 37 42  1  0  0  0  0
  8 13  1  0  0  0  0
 18 26  1  0  0  0  0
 22 29  1  0  0  0  0
 46 48  1  0  0  0  0
  7 12  1  0  0  0  0
 36 41  1  0  0  0  0
 17 25  1  0  0  0  0
M  END
$$$$

  -OEChem-05262214473D

 51 50  0     1  0  0  0  0  0999 V2000
    3.4018   -1.2440   -3.0186 C   0  0  0  0  0  0  0  0  0  0  0  0
    3.2697   -2.0909   -2.1427 O   0  0  0  0  0  0  0  0  0  0  0  0
    4.6845   -1.1645   -3.7779 C   0  0  0  0  0  0  0  0  0  0  0  0
    5.4123   -0.4862   -3.3041 H   0  0  0  0  0  0  0  0  0  0  0  0
    5.1949   -2.1387   -3.8443 H   0  0  0  0  0  0  0  0  0  0  0  0
    4.5953   -0.8128   -4.8182 H   0  0  0  0  0  0  0  0  0  0  0  0
    2.4540   -0.3103   -3.4040 N   0  0  0  0  0  0  0  0  0  0  0  0
    1.1494   -0.2128   -2.8039 C   0  0  2  0  0  0  0  0  0  0  0  0
    1.3350    0.0367   -1.3130 C   0  0  0  0  0  0  0  0  0  0  0  0
    2.3625   -0.2586   -0.7063 O   0  0  0  0  0  0  0  0  0  0  0  0
    0.3331   -1.4728   -3.0467 C   0  0  0  0  0  0  0  0  0  0  0  0
    2.6924    0.3404   -4.1502 H   0  0  0  0  0  0  0  0  0  0  0  0
    0.6550    0.6514   -3.2607 H   0  0  0  0  0  0  0  0  0  0  0  0
    0.8129   -2.3494   -2.5963 H   0  0  0  0  0  0  0  0  0  0  0  0
   -0.6690   -1.3857   -2.6142 H   0  0  0  0  0  0  0  0  0  0  0  0
    0.2259   -1.6670   -4.1194 H   0  0  0  0  0  0  0  0  0  0  0  0
    0.2019    0.5893   -0.7269 N   0  0  0  0  0  0  0  0  0  0  0  0
    0.1242    0.9059    0.6756 C   0  0  2  0  0  0  0  0  0  0  0  0
    1.2239    1.9218    0.9682 C   0  0  0  0  0  0  0  0  0  0  0  0
    2.1522    1.6988    1.7427 O   0  0  0  0  0  0  0  0  0  0  0  0
    0.2985   -0.3344    1.5613 C   0  0  0  0  0  0  0  0  0  0  0  0
   -0.8320   -1.3770    1.4443 C   0  0  0  0  0  0  0  0  0  0  0  0
   -0.4702   -2.6239    2.2562 C   0  0  0  0  0  0  0  0  0  0  0  0
   -1.1135   -1.7709   -0.0063 C   0  0  0  0  0  0  0  0  0  0  0  0
   -0.5975    0.8179   -1.3140 H   0  0  0  0  0  0  0  0  0  0  0  0
   -0.8476    1.3815    0.8424 H   0  0  0  0  0  0  0  0  0  0  0  0
    0.3735   -0.0135    2.6099 H   0  0  0  0  0  0  0  0  0  0  0  0
    1.2569   -0.8167    1.3276 H   0  0  0  0  0  0  0  0  0  0  0  0
   -1.7518   -0.9600    1.8720 H   0  0  0  0  0  0  0  0  0  0  0  0
    0.4457   -3.0860    1.8727 H   0  0  0  0  0  0  0  0  0  0  0  0
   -1.2687   -3.3712    2.1983 H   0  0  0  0  0  0  0  0  0  0  0  0
   -0.3101   -2.3791    3.3118 H   0  0  0  0  0  0  0  0  0  0  0  0
   -0.2231   -2.1951   -0.4825 H   0  0  0  0  0  0  0  0  0  0  0  0
   -1.9122   -2.5189   -0.0573 H   0  0  0  0  0  0  0  0  0  0  0  0
   -1.4402   -0.9102   -0.5972 H   0  0  0  0  0  0  0  0  0  0  0  0
    1.0713    3.0832    0.2237 N   0  0  0  0  0  0  0  0  0  0  0  0
    1.9919    4.1952    0.2919 C   0  0  2  0  0  0  0  0  0  0  0  0
    3.4035    3.6317    0.3888 C   0  0  0  0  0  0  0  0  0  0  0  0
    3.6466    2.4977    0.7963 O   0  0  0  0  0  0  0  0  0  0  0  0
    1.6839    5.0966    1.4773 C   0  0  0  0  0  0  0  0  0  0  0  0
    0.2836    3.1659   -0.4123 H   0  0  0  0  0  0  0  0  0  0  0  0
    1.8842    4.7529   -0.6448 H   0  0  0  0  0  0  0  0  0  0  0  0
    1.7866    4.5552    2.4248 H   0  0  0  0  0  0  0  0  0  0  0  0
    2.3642    5.9539    1.5112 H   0  0  0  0  0  0  0  0  0  0  0  0
    0.6583    5.4771    1.4214 H   0  0  0  0  0  0  0  0  0  0  0  0
    4.3630    4.5592    0.0075 N   0  0  0  0  0  0  0  0  0  0  0  0
    5.7777    4.2690    0.0238 C   0  0  0  0  0  0  0  0  0  0  0  0
    4.0698    5.4694   -0.3349 H   0  0  0  0  0  0  0  0  0  0  0  0
    6.2049    4.5786    0.9890 H   0  0  0  0  0  0  0  0  0  0  0  0
    5.9320    3.1889   -0.1158 H   0  0  0  0  0  0  0  0  0  0  0  0
    6.2740    4.8184   -0.7898 H   0  0  0  0  0  0  0  0  0  0  0  0
  1  3  1  0  0  0  0
  1  7  1  0  0  0  0
  1  2  2  0  0  0  0
 37 38  1  0  0  0  0
 38 46  1  0  0  0  0
 38 39  2  0  0  0  0
  8  9  1  0  0  0  0
  9 17  1  0  0  0  0
  9 10  2  0  0  0  0
 18 19  1  0  0  0  0
 19 36  1  0  0  0  0
 19 20  2  0  0  0  0
 37 40  1  0  0  0  0
  8 11  1  0  0  0  0
 22 23  1  0  0  0  0
 22 24  1  0  0  0  0
 46 47  1  0  0  0  0
 18 21  1  0  0  0  0
 21 22  1  0  0  0  0
 36 37  1  0  0  0  0
  7  8  1  0  0  0  0
 17 18  1  0  0  0  0
  3  4  1  0  0  0  0
  3  5  1  0  0  0  0
  3  6  1  0  0  0  0
 40 43  1  0  0  0  0
 40 44  1  0  0  0  0
 40 45  1  0  0  0  0
 11 14  1  0  0  0  0
 11 15  1  0  0  0  0
 11 16  1  0  0  0  0
 23 30  1  0  0  0  0
 23 31  1  0  0  0  0
 23 32  1  0  0  0  0
 24 33  1  0  0  0  0
 24 34  1  0  0  0  0
 24 35  1  0  0  0  0
 47 49  1  0  0  0  0
 47 50  1  0  0  0  0
 47 51  1  0  0  0  0
 21 27  1  0  0  0  0
 21 28  1  0  0  0  0
 37 42  1  0  0  0  0
  8 13  1  0  0  0  0
 18 26  1  0  0  0  0
 22 29  1  0  0  0  0
 46 48  1  0  0  0  0
  7 12  1  0  0  0  0
 36 41  1  0  0  0  0
 17 25  1  0  0  0  0
M  END
$$$$

  -OEChem-05262214473D

 51 50  0     1  0  0  0  0  0999 V2000
    3.4018   -1.2440   -3.0186 C   0  0  0  0  0  0  0  0  0  0  0  0
    3.2697   -2.0909   -2.1427 O   0  0  0  0  0  0  0  0  0  0  0  0
    4.6845   -1.1645   -3.7779 C   0  0  0  0  0  0  0  0  0  0  0  0
    5.4123   -0.4862   -3.3041 H   0  0  0  0  0  0  0  0  0  0  0  0
    5.1949   -2.1387   -3.8443 H   0  0  0  0  0  0  0  0  0  0  0  0
    4.5953   -0.8128   -4.8182 H   0  0  0  0  0  0  0  0  0  0  0  0
    2.4540   -0.3103   -3.4040 N   0  0  0  0  0  0  0  0  0  0  0  0
    1.1494   -0.2128   -2.8039 C   0  0  2  0  0  0  0  0  0  0  0  0
    1.3350    0.0367   -1.3130 C   0  0  0  0  0  0  0  0  0  0  0  0
    2.3625   -0.2586   -0.7063 O   0  0  0  0  0  0  0  0  0  0  0  0
    0.3331   -1.4728   -3.0467 C   0  0  0  0  0  0  0  0  0  0  0  0
    2.6924    0.3404   -4.1502 H   0  0  0  0  0  0  0  0  0  0  0  0
    0.6550    0.6514   -3.2607 H   0  0  0  0  0  0  0  0  0  0  0  0
    0.8129   -2.3494   -2.5963 H   0  0  0  0  0  0  0  0  0  0  0  0
   -0.6690   -1.3857   -2.6142 H   0  0  0  0  0  0  0  0  0  0  0  0
    0.2259   -1.6670   -4.1194 H   0  0  0  0  0  0  0  0  0  0  0  0
    0.2019    0.5893   -0.7269 N   0  0  0  0  0  0  0  0  0  0  0  0
    0.1242    0.9059    0.6756 C   0  0  2  0  0  0  0  0  0  0  0  0
    1.2239    1.9218    0.9682 C   0  0  0  0  0  0  0  0  0  0  0  0
    2.2815    1.6231    1.5191 O   0  0  0  0  0  0  0  0  0  0  0  0
    0.2985   -0.3344    1.5613 C   0  0  0  0  0  0  0  0  0  0  0  0
   -0.8320   -1.3770    1.4443 C   0  0  0  0  0  0  0  0  0  0  0  0
   -0.4702   -2.6239    2.2562 C   0  0  0  0  0  0  0  0  0  0  0  0
   -1.1135   -1.7709   -0.0063 C   0  0  0  0  0  0  0  0  0  0  0  0
   -0.5975    0.8179   -1.3140 H   0  0  0  0  0  0  0  0  0  0  0  0
   -0.8476    1.3815    0.8424 H   0  0  0  0  0  0  0  0  0  0  0  0
    0.3735   -0.0135    2.6099 H   0  0  0  0  0  0  0  0  0  0  0  0
    1.2569   -0.8167    1.3276 H   0  0  0  0  0  0  0  0  0  0  0  0
   -1.7518   -0.9600    1.8720 H   0  0  0  0  0  0  0  0  0  0  0  0
    0.4457   -3.0860    1.8727 H   0  0  0  0  0  0  0  0  0  0  0  0
   -1.2687   -3.3712    2.1983 H   0  0  0  0  0  0  0  0  0  0  0  0
   -0.3101   -2.3791    3.3118 H   0  0  0  0  0  0  0  0  0  0  0  0
   -0.2231   -2.1951   -0.4825 H   0  0  0  0  0  0  0  0  0  0  0  0
   -1.9122   -2.5189   -0.0573 H   0  0  0  0  0  0  0  0  0  0  0  0
   -1.4402   -0.9102   -0.5972 H   0  0  0  0  0  0  0  0  0  0  0  0
    0.9033    3.1868    0.4954 N   0  0  0  0  0  0  0  0  0  0  0  0
    1.7839    4.3260    0.6194 C   0  0  2  0  0  0  0  0  0  0  0  0
    3.2083    3.8488    0.3689 C   0  0  0  0  0  0  0  0  0  0  0  0
    3.5574    2.6781    0.5058 O   0  0  0  0  0  0  0  0  0  0  0  0
    1.6608    4.9740    1.9897 C   0  0  0  0  0  0  0  0  0  0  0  0
    0.0131    3.3318    0.0282 H   0  0  0  0  0  0  0  0  0  0  0  0
    1.4935    5.0367   -0.1620 H   0  0  0  0  0  0  0  0  0  0  0  0
    1.9476    4.2769    2.7855 H   0  0  0  0  0  0  0  0  0  0  0  0
    2.3075    5.8538    2.0720 H   0  0  0  0  0  0  0  0  0  0  0  0
    0.6294    5.2898    2.1802 H   0  0  0  0  0  0  0  0  0  0  0  0
    4.0537    4.8915    0.0163 N   0  0  0  0  0  0  0  0  0  0  0  0
    5.4578    4.6972   -0.2605 C   0  0  0  0  0  0  0  0  0  0  0  0
    3.6743    5.8275   -0.0919 H   0  0  0  0  0  0  0  0  0  0  0  0
    6.0387    4.8532    0.6605 H   0  0  0  0  0  0  0  0  0  0  0  0
    5.6208    3.6732   -0.6276 H   0  0  0  0  0  0  0  0  0  0  0  0
    5.7836    5.4172   -1.0256 H   0  0  0  0  0  0  0  0  0  0  0  0
  1  3  1  0  0  0  0
  1  7  1  0  0  0  0
  1  2  2  0  0  0  0
 37 38  1  0  0  0  0
 38 46  1  0  0  0  0
 38 39  2  0  0  0  0
  8  9  1  0  0  0  0
  9 17  1  0  0  0  0
  9 10  2  0  0  0  0
 18 19  1  0  0  0  0
 19 36  1  0  0  0  0
 19 20  2  0  0  0  0
 37 40  1  0  0  0  0
  8 11  1  0  0  0  0
 22 23  1  0  0  0  0
 22 24  1  0  0  0  0
 46 47  1  0  0  0  0
 18 21  1  0  0  0  0
 21 22  1  0  0  0  0
 36 37  1  0  0  0  0
  7  8  1  0  0  0  0
 17 18  1  0  0  0  0
  3  4  1  0  0  0  0
  3  5  1  0  0  0  0
  3  6  1  0  0  0  0
 40 43  1  0  0  0  0
 40 44  1  0  0  0  0
 40 45  1  0  0  0  0
 11 14  1  0  0  0  0
 11 15  1  0  0  0  0
 11 16  1  0  0  0  0
 23 30  1  0  0  0  0
 23 31  1  0  0  0  0
 23 32  1  0  0  0  0
 24 33  1  0  0  0  0
 24 34  1  0  0  0  0
 24 35  1  0  0  0  0
 47 49  1  0  0  0  0
 47 50  1  0  0  0  0
 47 51  1  0  0  0  0
 21 27  1  0  0  0  0
 21 28  1  0  0  0  0
 37 42  1  0  0  0  0
  8 13  1  0  0  0  0
 18 26  1  0  0  0  0
 22 29  1  0  0  0  0
 46 48  1  0  0  0  0
  7 12  1  0  0  0  0
 36 41  1  0  0  0  0
 17 25  1  0  0  0  0
M  END
$$$$

  -OEChem-05262214473D

 51 50  0     1  0  0  0  0  0999 V2000
    3.4018   -1.2440   -3.0186 C   0  0  0  0  0  0  0  0  0  0  0  0
    3.2697   -2.0909   -2.1427 O   0  0  0  0  0  0  0  0  0  0  0  0
    4.6845   -1.1645   -3.7779 C   0  0  0  0  0  0  0  0  0  0  0  0
    5.4123   -0.4862   -3.3041 H   0  0  0  0  0  0  0  0  0  0  0  0
    5.1949   -2.1387   -3.8443 H   0  0  0  0  0  0  0  0  0  0  0  0
    4.5953   -0.8128   -4.8182 H   0  0  0  0  0  0  0  0  0  0  0  0
    2.4540   -0.3103   -3.4040 N   0  0  0  0  0  0  0  0  0  0  0  0
    1.1494   -0.2128   -2.8039 C   0  0  2  0  0  0  0  0  0  0  0  0
    1.3350    0.0367   -1.3130 C   0  0  0  0  0  0  0  0  0  0  0  0
    2.3625   -0.2586   -0.7063 O   0  0  0  0  0  0  0  0  0  0  0  0
    0.3331   -1.4728   -3.0467 C   0  0  0  0  0  0  0  0  0  0  0  0
    2.6924    0.3404   -4.1502 H   0  0  0  0  0  0  0  0  0  0  0  0
    0.6550    0.6514   -3.2607 H   0  0  0  0  0  0  0  0  0  0  0  0
    0.8129   -2.3494   -2.5963 H   0  0  0  0  0  0  0  0  0  0  0  0
   -0.6690   -1.3857   -2.6142 H   0  0  0  0  0  0  0  0  0  0  0  0
    0.2259   -1.6670   -4.1194 H   0  0  0  0  0  0  0  0  0  0  0  0
    0.2019    0.5893   -0.7269 N   0  0  0  0  0  0  0  0  0  0  0  0
    0.1242    0.9059    0.6756 C   0  0  2  0  0  0  0  0  0  0  0  0
    1.2239    1.9218    0.9682 C   0  0  0  0  0  0  0  0  0  0  0  0
    2.3717    1.5982    1.2666 O   0  0  0  0  0  0  0  0  0  0  0  0
    0.2985   -0.3344    1.5613 C   0  0  0  0  0  0  0  0  0  0  0  0
   -0.8320   -1.3770    1.4443 C   0  0  0  0  0  0  0  0  0  0  0  0
   -0.4702   -2.6239    2.2562 C   0  0  0  0  0  0  0  0  0  0  0  0
   -1.1135   -1.7709   -0.0063 C   0  0  0  0  0  0  0  0  0  0  0  0
   -0.5975    0.8179   -1.3140 H   0  0  0  0  0  0  0  0  0  0  0  0
   -0.8476    1.3815    0.8424 H   0  0  0  0  0  0  0  0  0  0  0  0
    0.3735   -0.0135    2.6099 H   0  0  0  0  0  0  0  0  0  0  0  0
    1.2569   -0.8167    1.3276 H   0  0  0  0  0  0  0  0  0  0  0  0
   -1.7518   -0.9600    1.8720 H   0  0  0  0  0  0  0  0  0  0  0  0
    0.4457   -3.0860    1.8727 H   0  0  0  0  0  0  0  0  0  0  0  0
   -1.2687   -3.3712    2.1983 H   0  0  0  0  0  0  0  0  0  0  0  0
   -0.3101   -2.3791    3.3118 H   0  0  0  0  0  0  0  0  0  0  0  0
   -0.2231   -2.1951   -0.4825 H   0  0  0  0  0  0  0  0  0  0  0  0
   -1.9122   -2.5189   -0.0573 H   0  0  0  0  0  0  0  0  0  0  0  0
   -1.4402   -0.9102   -0.5972 H   0  0  0  0  0  0  0  0  0  0  0  0
    0.7827    3.2278    0.8062 N   0  0  0  0  0  0  0  0  0  0  0  0
    1.6329    4.3809    0.9960 C   0  0  2  0  0  0  0  0  0  0  0  0
    3.0056    4.0524    0.4238 C   0  0  0  0  0  0  0  0  0  0  0  0
    3.4121    2.9020    0.2741 O   0  0  0  0  0  0  0  0  0  0  0  0
    1.7329    4.7588    2.4657 C   0  0  0  0  0  0  0  0  0  0  0  0
   -0.1804    3.3964    0.5313 H   0  0  0  0  0  0  0  0  0  0  0  0
    1.1853    5.2014    0.4247 H   0  0  0  0  0  0  0  0  0  0  0  0
    2.1792    3.9489    3.0542 H   0  0  0  0  0  0  0  0  0  0  0  0
    2.3543    5.6496    2.6049 H   0  0  0  0  0  0  0  0  0  0  0  0
    0.7416    4.9658    2.8832 H   0  0  0  0  0  0  0  0  0  0  0  0
    3.7399    5.1954    0.1402 N   0  0  0  0  0  0  0  0  0  0  0  0
    5.0785    5.1480   -0.4000 C   0  0  0  0  0  0  0  0  0  0  0  0
    3.3165    6.1084    0.2778 H   0  0  0  0  0  0  0  0  0  0  0  0
    5.8078    5.1715    0.4232 H   0  0  0  0  0  0  0  0  0  0  0  0
    5.2079    4.2210   -0.9780 H   0  0  0  0  0  0  0  0  0  0  0  0
    5.2395    6.0153   -1.0572 H   0  0  0  0  0  0  0  0  0  0  0  0
  1  3  1  0  0  0  0
  1  7  1  0  0  0  0
  1  2  2  0  0  0  0
 37 38  1  0  0  0  0
 38 46  1  0  0  0  0
 38 39  2  0  0  0  0
  8  9  1  0  0  0  0
  9 17  1  0  0  0  0
  9 10  2  0  0  0  0
 18 19  1  0  0  0  0
 19 36  1  0  0  0  0
 19 20  2  0  0  0  0
 37 40  1  0  0  0  0
  8 11  1  0  0  0  0
 22 23  1  0  0  0  0
 22 24  1  0  0  0  0
 46 47  1  0  0  0  0
 18 21  1  0  0  0  0
 21 22  1  0  0  0  0
 36 37  1  0  0  0  0
  7  8  1  0  0  0  0
 17 18  1  0  0  0  0
  3  4  1  0  0  0  0
  3  5  1  0  0  0  0
  3  6  1  0  0  0  0
 40 43  1  0  0  0  0
 40 44  1  0  0  0  0
 40 45  1  0  0  0  0
 11 14  1  0  0  0  0
 11 15  1  0  0  0  0
 11 16  1  0  0  0  0
 23 30  1  0  0  0  0
 23 31  1  0  0  0  0
 23 32  1  0  0  0  0
 24 33  1  0  0  0  0
 24 34  1  0  0  0  0
 24 35  1  0  0  0  0
 47 49  1  0  0  0  0
 47 50  1  0  0  0  0
 47 51  1  0  0  0  0
 21 27  1  0  0  0  0
 21 28  1  0  0  0  0
 37 42  1  0  0  0  0
  8 13  1  0  0  0  0
 18 26  1  0  0  0  0
 22 29  1  0  0  0  0
 46 48  1  0  0  0  0
  7 12  1  0  0  0  0
 36 41  1  0  0  0  0
 17 25  1  0  0  0  0
M  END
$$$$

  -OEChem-05262214473D

 51 50  0     1  0  0  0  0  0999 V2000
    3.4018   -1.2440   -3.0186 C   0  0  0  0  0  0  0  0  0  0  0  0
    3.2697   -2.0909   -2.1427 O   0  0  0  0  0  0  0  0  0  0  0  0
    4.6845   -1.1645   -3.7779 C   0  0  0  0  0  0  0  0  0  0  0  0
    5.4123   -0.4862   -3.3041 H   0  0  0  0  0  0  0  0  0  0  0  0
    5.1949   -2.1387   -3.8443 H   0  0  0  0  0  0  0  0  0  0  0  0
    4.5953   -0.8128   -4.8182 H   0  0  0  0  0  0  0  0  0  0  0  0
    2.4540   -0.3103   -3.4040 N   0  0  0  0  0  0  0  0  0  0  0  0
    1.1494   -0.2128   -2.8039 C   0  0  2  0  0  0  0  0  0  0  0  0
    1.3350    0.0367   -1.3130 C   0  0  0  0  0  0  0  0  0  0  0  0
    2.3625   -0.2586   -0.7063 O   0  0  0  0  0  0  0  0  0  0  0  0
    0.3331   -1.4728   -3.0467 C   0  0  0  0  0  0  0  0  0  0  0  0
    2.6924    0.3404   -4.1502 H   0  0  0  0  0  0  0  0  0  0  0  0
    0.6550    0.6514   -3.2607 H   0  0  0  0  0  0  0  0  0  0  0  0
    0.8129   -2.3494   -2.5963 H   0  0  0  0  0  0  0  0  0  0  0  0
   -0.6690   -1.3857   -2.6142 H   0  0  0  0  0  0  0  0  0  0  0  0
    0.2259   -1.6670   -4.1194 H   0  0  0  0  0  0  0  0  0  0  0  0
    0.2019    0.5893   -0.7269 N   0  0  0  0  0  0  0  0  0  0  0  0
    0.1242    0.9059    0.6756 C   0  0  2  0  0  0  0  0  0  0  0  0
    1.2239    1.9218    0.9682 C   0  0  0  0  0  0  0  0  0  0  0  0
    2.4165    1.6258    1.0026 O   0  0  0  0  0  0  0  0  0  0  0  0
    0.2985   -0.3344    1.5613 C   0  0  0  0  0  0  0  0  0  0  0  0
   -0.8320   -1.3770    1.4443 C   0  0  0  0  0  0  0  0  0  0  0  0
   -0.4702   -2.6239    2.2562 C   0  0  0  0  0  0  0  0  0  0  0  0
   -1.1135   -1.7709   -0.0063 C   0  0  0  0  0  0  0  0  0  0  0  0
   -0.5975    0.8179   -1.3140 H   0  0  0  0  0  0  0  0  0  0  0  0
   -0.8476    1.3815    0.8424 H   0  0  0  0  0  0  0  0  0  0  0  0
    0.3735   -0.0135    2.6099 H   0  0  0  0  0  0  0  0  0  0  0  0
    1.2569   -0.8167    1.3276 H   0  0  0  0  0  0  0  0  0  0  0  0
   -1.7518   -0.9600    1.8720 H   0  0  0  0  0  0  0  0  0  0  0  0
    0.4457   -3.0860    1.8727 H   0  0  0  0  0  0  0  0  0  0  0  0
   -1.2687   -3.3712    2.1983 H   0  0  0  0  0  0  0  0  0  0  0  0
   -0.3101   -2.3791    3.3118 H   0  0  0  0  0  0  0  0  0  0  0  0
   -0.2231   -2.1951   -0.4825 H   0  0  0  0  0  0  0  0  0  0  0  0
   -1.9122   -2.5189   -0.0573 H   0  0  0  0  0  0  0  0  0  0  0  0
   -1.4402   -0.9102   -0.5972 H   0  0  0  0  0  0  0  0  0  0  0  0
    0.7177    3.2034    1.1349 N   0  0  0  0  0  0  0  0  0  0  0  0
    1.5493    4.3562    1.3961 C   0  0  2  0  0  0  0  0  0  0  0  0
    2.8091    4.2288    0.5498 C   0  0  0  0  0  0  0  0  0  0  0  0
    3.2208    3.1544    0.1172 O   0  0  0  0  0  0  0  0  0  0  0  0
    1.8953    4.4657    2.8729 C   0  0  0  0  0  0  0  0  0  0  0  0
   -0.2839    3.3554    1.0626 H   0  0  0  0  0  0  0  0  0  0  0  0
    0.9805    5.2357    1.0752 H   0  0  0  0  0  0  0  0  0  0  0  0
    2.4654    3.5934    3.2126 H   0  0  0  0  0  0  0  0  0  0  0  0
    2.5015    5.3553    3.0735 H   0  0  0  0  0  0  0  0  0  0  0  0
    0.9873    4.5273    3.4824 H   0  0  0  0  0  0  0  0  0  0  0  0
    3.4431    5.4503    0.3706 N   0  0  0  0  0  0  0  0  0  0  0  0
    4.6658    5.5906   -0.3854 C   0  0  0  0  0  0  0  0  0  0  0  0
    3.0206    6.2929    0.7490 H   0  0  0  0  0  0  0  0  0  0  0  0
    5.5281    5.5118    0.2930 H   0  0  0  0  0  0  0  0  0  0  0  0
    4.7216    4.7950   -1.1430 H   0  0  0  0  0  0  0  0  0  0  0  0
    4.6789    6.5718   -0.8824 H   0  0  0  0  0  0  0  0  0  0  0  0
  1  3  1  0  0  0  0
  1  7  1  0  0  0  0
  1  2  2  0  0  0  0
 37 38  1  0  0  0  0
 38 46  1  0  0  0  0
 38 39  2  0  0  0  0
  8  9  1  0  0  0  0
  9 17  1  0  0  0  0
  9 10  2  0  0  0  0
 18 19  1  0  0  0  0
 19 36  1  0  0  0  0
 19 20  2  0  0  0  0
 37 40  1  0  0  0  0
  8 11  1  0  0  0  0
 22 23  1  0  0  0  0
 22 24  1  0  0  0  0
 46 47  1  0  0  0  0
 18 21  1  0  0  0  0
 21 22  1  0  0  0  0
 36 37  1  0  0  0  0
  7  8  1  0  0  0  0
 17 18  1  0  0  0  0
  3  4  1  0  0  0  0
  3  5  1  0  0  0  0
  3  6  1  0  0  0  0
 40 43  1  0  0  0  0
 40 44  1  0  0  0  0
 40 45  1  0  0  0  0
 11 14  1  0  0  0  0
 11 15  1  0  0  0  0
 11 16  1  0  0  0  0
 23 30  1  0  0  0  0
 23 31  1  0  0  0  0
 23 32  1  0  0  0  0
 24 33  1  0  0  0  0
 24 34  1  0  0  0  0
 24 35  1  0  0  0  0
 47 49  1  0  0  0  0
 47 50  1  0  0  0  0
 47 51  1  0  0  0  0
 21 27  1  0  0  0  0
 21 28  1  0  0  0  0
 37 42  1  0  0  0  0
  8 13  1  0  0  0  0
 18 26  1  0  0  0  0
 22 29  1  0  0  0  0
 46 48  1  0  0  0  0
  7 12  1  0  0  0  0
 36 41  1  0  0  0  0
 17 25  1  0  0  0  0
M  END
$$$$

  -OEChem-05262214473D

 51 50  0     1  0  0  0  0  0999 V2000
    3.4018   -1.2440   -3.0186 C   0  0  0  0  0  0  0  0  0  0  0  0
    3.2697   -2.0909   -2.1427 O   0  0  0  0  0  0  0  0  0  0  0  0
    4.6845   -1.1645   -3.7779 C   0  0  0  0  0  0  0  0  0  0  0  0
    5.4123   -0.4862   -3.3041 H   0  0  0  0  0  0  0  0  0  0  0  0
    5.1949   -2.1387   -3.8443 H   0  0  0  0  0  0  0  0  0  0  0  0
    4.5953   -0.8128   -4.8182 H   0  0  0  0  0  0  0  0  0  0  0  0
    2.4540   -0.3103   -3.4040 N   0  0  0  0  0  0  0  0  0  0  0  0
    1.1494   -0.2128   -2.8039 C   0  0  2  0  0  0  0  0  0  0  0  0
    1.3350    0.0367   -1.3130 C   0  0  0  0  0  0  0  0  0  0  0  0
    2.3625   -0.2586   -0.7063 O   0  0  0  0  0  0  0  0  0  0  0  0
    0.3331   -1.4728   -3.0467 C   0  0  0  0  0  0  0  0  0  0  0  0
    2.6924    0.3404   -4.1502 H   0  0  0  0  0  0  0  0  0  0  0  0
    0.6550    0.6514   -3.2607 H   0  0  0  0  0  0  0  0  0  0  0  0
    0.8129   -2.3494   -2.5963 H   0  0  0  0  0  0  0  0  0  0  0  0
   -0.6690   -1.3857   -2.6142 H   0  0  0  0  0  0  0  0  0  0  0  0
    0.2259   -1.6670   -4.1194 H   0  0  0  0  0  0  0  0  0  0  0  0
    0.2019    0.5893   -0.7269 N   0  0  0  0  0  0  0  0  0  0  0  0
    0.1242    0.9059    0.6756 C   0  0  2  0  0  0  0  0  0  0  0  0
    1.2239    1.9218    0.9682 C   0  0  0  0  0  0  0  0  0  0  0  0
    2.4130    1.7038    0.7450 O   0  0  0  0  0  0  0  0  0  0  0  0
    0.2985   -0.3344    1.5613 C   0  0  0  0  0  0  0  0  0  0  0  0
   -0.8320   -1.3770    1.4443 C   0  0  0  0  0  0  0  0  0  0  0  0
   -0.4702   -2.6239    2.2562 C   0  0  0  0  0  0  0  0  0  0  0  0
   -1.1135   -1.7709   -0.0063 C   0  0  0  0  0  0  0  0  0  0  0  0
   -0.5975    0.8179   -1.3140 H   0  0  0  0  0  0  0  0  0  0  0  0
   -0.8476    1.3815    0.8424 H   0  0  0  0  0  0  0  0  0  0  0  0
    0.3735   -0.0135    2.6099 H   0  0  0  0  0  0  0  0  0  0  0  0
    1.2569   -0.8167    1.3276 H   0  0  0  0  0  0  0  0  0  0  0  0
   -1.7518   -0.9600    1.8720 H   0  0  0  0  0  0  0  0  0  0  0  0
    0.4457   -3.0860    1.8727 H   0  0  0  0  0  0  0  0  0  0  0  0
   -1.2687   -3.3712    2.1983 H   0  0  0  0  0  0  0  0  0  0  0  0
   -0.3101   -2.3791    3.3118 H   0  0  0  0  0  0  0  0  0  0  0  0
   -0.2231   -2.1951   -0.4825 H   0  0  0  0  0  0  0  0  0  0  0  0
   -1.9122   -2.5189   -0.0573 H   0  0  0  0  0  0  0  0  0  0  0  0
   -1.4402   -0.9102   -0.5972 H   0  0  0  0  0  0  0  0  0  0  0  0
    0.7129    3.1153    1.4590 N   0  0  0  0  0  0  0  0  0  0  0  0
    1.5387    4.2536    1.7923 C   0  0  2  0  0  0  0  0  0  0  0  0
    2.6322    4.3660    0.7383 C   0  0  0  0  0  0  0  0  0  0  0  0
    2.9964    3.4179    0.0457 O   0  0  0  0  0  0  0  0  0  0  0  0
    2.1369    4.1147    3.1835 C   0  0  0  0  0  0  0  0  0  0  0  0
   -0.2902    3.2115    1.5860 H   0  0  0  0  0  0  0  0  0  0  0  0
    0.8931    5.1373    1.7452 H   0  0  0  0  0  0  0  0  0  0  0  0
    2.7869    3.2346    3.2500 H   0  0  0  0  0  0  0  0  0  0  0  0
    2.7391    4.9909    3.4458 H   0  0  0  0  0  0  0  0  0  0  0  0
    1.3496    4.0041    3.9370 H   0  0  0  0  0  0  0  0  0  0  0  0
    3.1835    5.6388    0.6919 N   0  0  0  0  0  0  0  0  0  0  0  0
    4.2476    5.9949   -0.2175 C   0  0  0  0  0  0  0  0  0  0  0  0
    2.8069    6.3686    1.2896 H   0  0  0  0  0  0  0  0  0  0  0  0
    5.2185    5.8508    0.2791 H   0  0  0  0  0  0  0  0  0  0  0  0
    4.1948    5.3562   -1.1115 H   0  0  0  0  0  0  0  0  0  0  0  0
    4.1399    7.0489   -0.5130 H   0  0  0  0  0  0  0  0  0  0  0  0
  1  3  1  0  0  0  0
  1  7  1  0  0  0  0
  1  2  2  0  0  0  0
 37 38  1  0  0  0  0
 38 46  1  0  0  0  0
 38 39  2  0  0  0  0
  8  9  1  0  0  0  0
  9 17  1  0  0  0  0
  9 10  2  0  0  0  0
 18 19  1  0  0  0  0
 19 36  1  0  0  0  0
 19 20  2  0  0  0  0
 37 40  1  0  0  0  0
  8 11  1  0  0  0  0
 22 23  1  0  0  0  0
 22 24  1  0  0  0  0
 46 47  1  0  0  0  0
 18 21  1  0  0  0  0
 21 22  1  0  0  0  0
 36 37  1  0  0  0  0
  7  8  1  0  0  0  0
 17 18  1  0  0  0  0
  3  4  1  0  0  0  0
  3  5  1  0  0  0  0
  3  6  1  0  0  0  0
 40 43  1  0  0  0  0
 40 44  1  0  0  0  0
 40 45  1  0  0  0  0
 11 14  1  0  0  0  0
 11 15  1  0  0  0  0
 11 16  1  0  0  0  0
 23 30  1  0  0  0  0
 23 31  1  0  0  0  0
 23 32  1  0  0  0  0
 24 33  1  0  0  0  0
 24 34  1  0  0  0  0
 24 35  1  0  0  0  0
 47 49  1  0  0  0  0
 47 50  1  0  0  0  0
 47 51  1  0  0  0  0
 21 27  1  0  0  0  0
 21 28  1  0  0  0  0
 37 42  1  0  0  0  0
  8 13  1  0  0  0  0
 18 26  1  0  0  0  0
 22 29  1  0  0  0  0
 46 48  1  0  0  0  0
  7 12  1  0  0  0  0
 36 41  1  0  0  0  0
 17 25  1  0  0  0  0
M  END
$$$$

  -OEChem-05262214473D

 51 50  0     1  0  0  0  0  0999 V2000
    3.4018   -1.2440   -3.0186 C   0  0  0  0  0  0  0  0  0  0  0  0
    3.2697   -2.0909   -2.1427 O   0  0  0  0  0  0  0  0  0  0  0  0
    4.6845   -1.1645   -3.7779 C   0  0  0  0  0  0  0  0  0  0  0  0
    5.4123   -0.4862   -3.3041 H   0  0  0  0  0  0  0  0  0  0  0  0
    5.1949   -2.1387   -3.8443 H   0  0  0  0  0  0  0  0  0  0  0  0
    4.5953   -0.8128   -4.8182 H   0  0  0  0  0  0  0  0  0  0  0  0
    2.4540   -0.3103   -3.4040 N   0  0  0  0  0  0  0  0  0  0  0  0
    1.1494   -0.2128   -2.8039 C   0  0  2  0  0  0  0  0  0  0  0  0
    1.3350    0.0367   -1.3130 C   0  0  0  0  0  0  0  0  0  0  0  0
    2.3625   -0.2586   -0.7063 O   0  0  0  0  0  0  0  0  0  0  0  0
    0.3331   -1.4728   -3.0467 C   0  0  0  0  0  0  0  0  0  0  0  0
    2.6924    0.3404   -4.1502 H   0  0  0  0  0  0  0  0  0  0  0  0
    0.6550    0.6514   -3.2607 H   0  0  0  0  0  0  0  0  0  0  0  0
    0.8129   -2.3494   -2.5963 H   0  0  0  0  0  0  0  0  0  0  0  0
   -0.6690   -1.3857   -2.6142 H   0  0  0  0  0  0  0  0  0  0  0  0
    0.2259   -1.6670   -4.1194 H   0  0  0  0  0  0  0  0  0  0  0  0
    0.2019    0.5893   -0.7269 N   0  0  0  0  0  0  0  0  0  0  0  0
    0.1242    0.9059    0.6756 C   0  0  2  0  0  0  0  0  0  0  0  0
    1.2239    1.9218    0.9682 C   0  0  0  0  0  0  0  0  0  0  0  0
    2.3612    1.8271    0.5114 O   0  0  0  0  0  0  0  0  0  0  0  0
    0.2985   -0.3344    1.5613 C   0  0  0  0  0  0  0  0  0  0  0  0
   -0.8320   -1.3770    1.4443 C   0  0  0  0  0  0  0  0  0  0  0  0
   -0.4702   -2.6239    2.2562 C   0  0  0  0  0  0  0  0  0  0  0  0
   -1.1135   -1.7709   -0.0063 C   0  0  0  0  0  0  0  0  0  0  0  0
   -0.5975    0.8179   -1.3140 H   0  0  0  0  0  0  0  0  0  0  0  0
   -0.8476    1.3815    0.8424 H   0  0  0  0  0  0  0  0  0  0  0  0
    0.3735   -0.0135    2.6099 H   0  0  0  0  0  0  0  0  0  0  0  0
    1.2569   -0.8167    1.3276 H   0  0  0  0  0  0  0  0  0  0  0  0
   -1.7518   -0.9600    1.8720 H   0  0  0  0  0  0  0  0  0  0  0  0
    0.4457   -3.0860    1.8727 H   0  0  0  0  0  0  0  0  0  0  0  0
   -1.2687   -3.3712    2.1983 H   0  0  0  0  0  0  0  0  0  0  0  0
   -0.3101   -2.3791    3.3118 H   0  0  0  0  0  0  0  0  0  0  0  0
   -0.2231   -2.1951   -0.4825 H   0  0  0  0  0  0  0  0  0  0  0  0
   -1.9122   -2.5189   -0.0573 H   0  0  0  0  0  0  0  0  0  0  0  0
   -1.4402   -0.9102   -0.5972 H   0  0  0  0  0  0  0  0  0  0  0  0
    0.7684    2.9695    1.7564 N   0  0  0  0  0  0  0  0  0  0  0  0
    1.6018    4.0800    2.1577 C   0  0  2  0  0  0  0  0  0  0  0  0
    2.4871    4.4545    0.9764 C   0  0  0  0  0  0  0  0  0  0  0  0
    2.7542    3.6746    0.0645 O   0  0  0  0  0  0  0  0  0  0  0  0
    2.4412    3.7297    3.3765 C   0  0  0  0  0  0  0  0  0  0  0  0
   -0.1990    2.9745    2.0658 H   0  0  0  0  0  0  0  0  0  0  0  0
    0.9290    4.9129    2.3892 H   0  0  0  0  0  0  0  0  0  0  0  0
    3.1216    2.8971    3.1638 H   0  0  0  0  0  0  0  0  0  0  0  0
    3.0508    4.5812    3.6964 H   0  0  0  0  0  0  0  0  0  0  0  0
    1.8039    3.4319    4.2161 H   0  0  0  0  0  0  0  0  0  0  0  0
    2.9788    5.7480    1.0821 N   0  0  0  0  0  0  0  0  0  0  0  0
    3.8526    6.3333    0.0922 C   0  0  0  0  0  0  0  0  0  0  0  0
    2.6898    6.3302    1.8627 H   0  0  0  0  0  0  0  0  0  0  0  0
    4.9003    6.1656    0.3822 H   0  0  0  0  0  0  0  0  0  0  0  0
    3.6636    5.8661   -0.8856 H   0  0  0  0  0  0  0  0  0  0  0  0
    3.6592    7.4141    0.0257 H   0  0  0  0  0  0  0  0  0  0  0  0
  1  3  1  0  0  0  0
  1  7  1  0  0  0  0
  1  2  2  0  0  0  0
 37 38  1  0  0  0  0
 38 46  1  0  0  0  0
 38 39  2  0  0  0  0
  8  9  1  0  0  0  0
  9 17  1  0  0  0  0
  9 10  2  0  0  0  0
 18 19  1  0  0  0  0
 19 36  1  0  0  0  0
 19 20  2  0  0  0  0
 37 40  1  0  0  0  0
  8 11  1  0  0  0  0
 22 23  1  0  0  0  0
 22 24  1  0  0  0  0
 46 47  1  0  0  0  0
 18 21  1  0  0  0  0
 21 22  1  0  0  0  0
 36 37  1  0  0  0  0
  7  8  1  0  0  0  0
 17 18  1  0  0  0  0
  3  4  1  0  0  0  0
  3  5  1  0  0  0  0
  3  6  1  0  0  0  0
 40 43  1  0  0  0  0
 40 44  1  0  0  0  0
 40 45  1  0  0  0  0
 11 14  1  0  0  0  0
 11 15  1  0  0  0  0
 11 16  1  0  0  0  0
 23 30  1  0  0  0  0
 23 31  1  0  0  0  0
 23 32  1  0  0  0  0
 24 33  1  0  0  0  0
 24 34  1  0  0  0  0
 24 35  1  0  0  0  0
 47 49  1  0  0  0  0
 47 50  1  0  0  0  0
 47 51  1  0  0  0  0
 21 27  1  0  0  0  0
 21 28  1  0  0  0  0
 37 42  1  0  0  0  0
  8 13  1  0  0  0  0
 18 26  1  0  0  0  0
 22 29  1  0  0  0  0
 46 48  1  0  0  0  0
  7 12  1  0  0  0  0
 36 41  1  0  0  0  0
 17 25  1  0  0  0  0
M  END
$$$$

  -OEChem-05262214473D

 51 50  0     1  0  0  0  0  0999 V2000
    3.4018   -1.2440   -3.0186 C   0  0  0  0  0  0  0  0  0  0  0  0
    3.2697   -2.0909   -2.1427 O   0  0  0  0  0  0  0  0  0  0  0  0
    4.6845   -1.1645   -3.7779 C   0  0  0  0  0  0  0  0  0  0  0  0
    5.4123   -0.4862   -3.3041 H   0  0  0  0  0  0  0  0  0  0  0  0
    5.1949   -2.1387   -3.8443 H   0  0  0  0  0  0  0  0  0  0  0  0
    4.5953   -0.8128   -4.8182 H   0  0  0  0  0  0  0  0  0  0  0  0
    2.4540   -0.3103   -3.4040 N   0  0  0  0  0  0  0  0  0  0  0  0
    1.1494   -0.2128   -2.8039 C   0  0  2  0  0  0  0  0  0  0  0  0
    1.3350    0.0367   -1.3130 C   0  0  0  0  0  0  0  0  0  0  0  0
    2.3625   -0.2586   -0.7063 O   0  0  0  0  0  0  0  0  0  0  0  0
    0.3331   -1.4728   -3.0467 C   0  0  0  0  0  0  0  0  0  0  0  0
    2.6924    0.3404   -4.1502 H   0  0  0  0  0  0  0  0  0  0  0  0
    0.6550    0.6514   -3.2607 H   0  0  0  0  0  0  0  0  0  0  0  0
    0.8129   -2.3494   -2.5963 H   0  0  0  0  0  0  0  0  0  0  0  0
   -0.6690   -1.3857   -2.6142 H   0  0  0  0  0  0  0  0  0  0  0  0
    0.2259   -1.6670   -4.1194 H   0  0  0  0  0  0  0  0  0  0  0  0
    0.2019    0.5893   -0.7269 N   0  0  0  0  0  0  0  0  0  0  0  0
    0.1242    0.9059    0.6756 C   0  0  2  0  0  0  0  0  0  0  0  0
    1.2239    1.9218    0.9682 C   0  0  0  0  0  0  0  0  0  0  0  0
    2.2649    1.9872    0.3176 O   0  0  0  0  0  0  0  0  0  0  0  0
    0.2985   -0.3344    1.5613 C   0  0  0  0  0  0  0  0  0  0  0  0
   -0.8320   -1.3770    1.4443 C   0  0  0  0  0  0  0  0  0  0  0  0
   -0.4702   -2.6239    2.2562 C   0  0  0  0  0  0  0  0  0  0  0  0
   -1.1135   -1.7709   -0.0063 C   0  0  0  0  0  0  0  0  0  0  0  0
   -0.5975    0.8179   -1.3140 H   0  0  0  0  0  0  0  0  0  0  0  0
   -0.8476    1.3815    0.8424 H   0  0  0  0  0  0  0  0  0  0  0  0
    0.3735   -0.0135    2.6099 H   0  0  0  0  0  0  0  0  0  0  0  0
    1.2569   -0.8167    1.3276 H   0  0  0  0  0  0  0  0  0  0  0  0
   -1.7518   -0.9600    1.8720 H   0  0  0  0  0  0  0  0  0  0  0  0
    0.4457   -3.0860    1.8727 H   0  0  0  0  0  0  0  0  0  0  0  0
   -1.2687   -3.3712    2.1983 H   0  0  0  0  0  0  0  0  0  0  0  0
   -0.3101   -2.3791    3.3118 H   0  0  0  0  0  0  0  0  0  0  0  0
   -0.2231   -2.1951   -0.4825 H   0  0  0  0  0  0  0  0  0  0  0  0
   -1.9122   -2.5189   -0.0573 H   0  0  0  0  0  0  0  0  0  0  0  0
   -1.4402   -0.9102   -0.5972 H   0  0  0  0  0  0  0  0  0  0  0  0
    0.8805    2.7760    2.0070 N   0  0  0  0  0  0  0  0  0  0  0  0
    1.7344    3.8472    2.4674 C   0  0  2  0  0  0  0  0  0  0  0  0
    2.3836    4.4884    1.2479 C   0  0  0  0  0  0  0  0  0  0  0  0
    2.5108    3.9071    0.1723 O   0  0  0  0  0  0  0  0  0  0  0  0
    2.7875    3.3369    3.4385 C   0  0  0  0  0  0  0  0  0  0  0  0
   -0.0164    2.6606    2.4694 H   0  0  0  0  0  0  0  0  0  0  0  0
    1.0859    4.5778    2.9631 H   0  0  0  0  0  0  0  0  0  0  0  0
    3.4469    2.6038    2.9598 H   0  0  0  0  0  0  0  0  0  0  0  0
    3.4155    4.1542    3.8084 H   0  0  0  0  0  0  0  0  0  0  0  0
    2.3193    2.8497    4.3006 H   0  0  0  0  0  0  0  0  0  0  0  0
    2.8429    5.7705    1.5148 N   0  0  0  0  0  0  0  0  0  0  0  0
    3.5076    6.5828    0.5226 C   0  0  0  0  0  0  0  0  0  0  0  0
    2.6775    6.1803    2.4293 H   0  0  0  0  0  0  0  0  0  0  0  0
    4.5951    6.4346    0.5954 H   0  0  0  0  0  0  0  0  0  0  0  0
    3.1641    6.2902   -0.4806 H   0  0  0  0  0  0  0  0  0  0  0  0
    3.2696    7.6425    0.6971 H   0  0  0  0  0  0  0  0  0  0  0  0
  1  3  1  0  0  0  0
  1  7  1  0  0  0  0
  1  2  2  0  0  0  0
 37 38  1  0  0  0  0
 38 46  1  0  0  0  0
 38 39  2  0  0  0  0
  8  9  1  0  0  0  0
  9 17  1  0  0  0  0
  9 10  2  0  0  0  0
 18 19  1  0  0  0  0
 19 36  1  0  0  0  0
 19 20  2  0  0  0  0
 37 40  1  0  0  0  0
  8 11  1  0  0  0  0
 22 23  1  0  0  0  0
 22 24  1  0  0  0  0
 46 47  1  0  0  0  0
 18 21  1  0  0  0  0
 21 22  1  0  0  0  0
 36 37  1  0  0  0  0
  7  8  1  0  0  0  0
 17 18  1  0  0  0  0
  3  4  1  0  0  0  0
  3  5  1  0  0  0  0
  3  6  1  0  0  0  0
 40 43  1  0  0  0  0
 40 44  1  0  0  0  0
 40 45  1  0  0  0  0
 11 14  1  0  0  0  0
 11 15  1  0  0  0  0
 11 16  1  0  0  0  0
 23 30  1  0  0  0  0
 23 31  1  0  0  0  0
 23 32  1  0  0  0  0
 24 33  1  0  0  0  0
 24 34  1  0  0  0  0
 24 35  1  0  0  0  0
 47 49  1  0  0  0  0
 47 50  1  0  0  0  0
 47 51  1  0  0  0  0
 21 27  1  0  0  0  0
 21 28  1  0  0  0  0
 37 42  1  0  0  0  0
  8 13  1  0  0  0  0
 18 26  1  0  0  0  0
 22 29  1  0  0  0  0
 46 48  1  0  0  0  0
  7 12  1  0  0  0  0
 36 41  1  0  0  0  0
 17 25  1  0  0  0  0
M  END
$$$$

  -OEChem-05262214473D

 51 50  0     1  0  0  0  0  0999 V2000
    3.4018   -1.2440   -3.0186 C   0  0  0  0  0  0  0  0  0  0  0  0
    3.2697   -2.0909   -2.1427 O   0  0  0  0  0  0  0  0  0  0  0  0
    4.6845   -1.1645   -3.7779 C   0  0  0  0  0  0  0  0  0  0  0  0
    5.4123   -0.4862   -3.3041 H   0  0  0  0  0  0  0  0  0  0  0  0
    5.1949   -2.1387   -3.8443 H   0  0  0  0  0  0  0  0  0  0  0  0
    4.5953   -0.8128   -4.8182 H   0  0  0  0  0  0  0  0  0  0  0  0
    2.4540   -0.3103   -3.4040 N   0  0  0  0  0  0  0  0  0  0  0  0
    1.1494   -0.2128   -2.8039 C   0  0  2  0  0  0  0  0  0  0  0  0
    1.3350    0.0367   -1.3130 C   0  0  0  0  0  0  0  0  0  0  0  0
    2.3625   -0.2586   -0.7063 O   0  0  0  0  0  0  0  0  0  0  0  0
    0.3331   -1.4728   -3.0467 C   0  0  0  0  0  0  0  0  0  0  0  0
    2.6924    0.3404   -4.1502 H   0  0  0  0  0  0  0  0  0  0  0  0
    0.6550    0.6514   -3.2607 H   0  0  0  0  0  0  0  0  0  0  0  0
    0.8129   -2.3494   -2.5963 H   0  0  0  0  0  0  0  0  0  0  0  0
   -0.6690   -1.3857   -2.6142 H   0  0  0  0  0  0  0  0  0  0  0  0
    0.2259   -1.6670   -4.1194 H   0  0  0  0  0  0  0  0  0  0  0  0
    0.2019    0.5893   -0.7269 N   0  0  0  0  0  0  0  0  0  0  0  0
    0.1242    0.9059    0.6756 C   0  0  2  0  0  0  0  0  0  0  0  0
    1.2239    1.9218    0.9682 C   0  0  0  0  0  0  0  0  0  0  0  0
    2.1305    2.1733    0.1770 O   0  0  0  0  0  0  0  0  0  0  0  0
    0.2985   -0.3344    1.5613 C   0  0  0  0  0  0  0  0  0  0  0  0
   -0.8320   -1.3770    1.4443 C   0  0  0  0  0  0  0  0  0  0  0  0
   -0.4702   -2.6239    2.2562 C   0  0  0  0  0  0  0  0  0  0  0  0
   -1.1135   -1.7709   -0.0063 C   0  0  0  0  0  0  0  0  0  0  0  0
   -0.5975    0.8179   -1.3140 H   0  0  0  0  0  0  0  0  0  0  0  0
   -0.8476    1.3815    0.8424 H   0  0  0  0  0  0  0  0  0  0  0  0
    0.3735   -0.0135    2.6099 H   0  0  0  0  0  0  0  0  0  0  0  0
    1.2569   -0.8167    1.3276 H   0  0  0  0  0  0  0  0  0  0  0  0
   -1.7518   -0.9600    1.8720 H   0  0  0  0  0  0  0  0  0  0  0  0
    0.4457   -3.0860    1.8727 H   0  0  0  0  0  0  0  0  0  0  0  0
   -1.2687   -3.3712    2.1983 H   0  0  0  0  0  0  0  0  0  0  0  0
   -0.3101   -2.3791    3.3118 H   0  0  0  0  0  0  0  0  0  0  0  0
   -0.2231   -2.1951   -0.4825 H   0  0  0  0  0  0  0  0  0  0  0  0
   -1.9122   -2.5189   -0.0573 H   0  0  0  0  0  0  0  0  0  0  0  0
   -1.4402   -0.9102   -0.5972 H   0  0  0  0  0  0  0  0  0  0  0  0
    1.0417    2.5478    2.1935 N   0  0  0  0  0  0  0  0  0  0  0  0
    1.9274    3.5712    2.7002 C   0  0  2  0  0  0  0  0  0  0  0  0
    2.3287    4.4653    1.5344 C   0  0  0  0  0  0  0  0  0  0  0  0
    2.2827    4.0994    0.3617 O   0  0  0  0  0  0  0  0  0  0  0  0
    3.1523    2.9631    3.3655 C   0  0  0  0  0  0  0  0  0  0  0  0
    0.2451    2.2911    2.7691 H   0  0  0  0  0  0  0  0  0  0  0  0
    1.3529    4.1548    3.4279 H   0  0  0  0  0  0  0  0  0  0  0  0
    3.7405    2.3747    2.6519 H   0  0  0  0  0  0  0  0  0  0  0  0
    3.8082    3.7390    3.7740 H   0  0  0  0  0  0  0  0  0  0  0  0
    2.8605    2.2971    4.1848 H   0  0  0  0  0  0  0  0  0  0  0  0
    2.7850    5.7048    1.9603 N   0  0  0  0  0  0  0  0  0  0  0  0
    3.2361    6.7264    1.0443 C   0  0  0  0  0  0  0  0  0  0  0  0
    2.7706    5.9293    2.9508 H   0  0  0  0  0  0  0  0  0  0  0  0
    4.3237    6.6395    0.9041 H   0  0  0  0  0  0  0  0  0  0  0  0
    2.7304    6.5995    0.0757 H   0  0  0  0  0  0  0  0  0  0  0  0
    2.9976    7.7184    1.4553 H   0  0  0  0  0  0  0  0  0  0  0  0
  1  3  1  0  0  0  0
  1  7  1  0  0  0  0
  1  2  2  0  0  0  0
 37 38  1  0  0  0  0
 38 46  1  0  0  0  0
 38 39  2  0  0  0  0
  8  9  1  0  0  0  0
  9 17  1  0  0  0  0
  9 10  2  0  0  0  0
 18 19  1  0  0  0  0
 19 36  1  0  0  0  0
 19 20  2  0  0  0  0
 37 40  1  0  0  0  0
  8 11  1  0  0  0  0
 22 23  1  0  0  0  0
 22 24  1  0  0  0  0
 46 47  1  0  0  0  0
 18 21  1  0  0  0  0
 21 22  1  0  0  0  0
 36 37  1  0  0  0  0
  7  8  1  0  0  0  0
 17 18  1  0  0  0  0
  3  4  1  0  0  0  0
  3  5  1  0  0  0  0
  3  6  1  0  0  0  0
 40 43  1  0  0  0  0
 40 44  1  0  0  0  0
 40 45  1  0  0  0  0
 11 14  1  0  0  0  0
 11 15  1  0  0  0  0
 11 16  1  0  0  0  0
 23 30  1  0  0  0  0
 23 31  1  0  0  0  0
 23 32  1  0  0  0  0
 24 33  1  0  0  0  0
 24 34  1  0  0  0  0
 24 35  1  0  0  0  0
 47 49  1  0  0  0  0
 47 50  1  0  0  0  0
 47 51  1  0  0  0  0
 21 27  1  0  0  0  0
 21 28  1  0  0  0  0
 37 42  1  0  0  0  0
  8 13  1  0  0  0  0
 18 26  1  0  0  0  0
 22 29  1  0  0  0  0
 46 48  1  0  0  0  0
  7 12  1  0  0  0  0
 36 41  1  0  0  0  0
 17 25  1  0  0  0  0
M  END
$$$$

  -OEChem-05262214473D

 51 50  0     1  0  0  0  0  0999 V2000
    3.4018   -1.2440   -3.0186 C   0  0  0  0  0  0  0  0  0  0  0  0
    3.2697   -2.0909   -2.1427 O   0  0  0  0  0  0  0  0  0  0  0  0
    4.6845   -1.1645   -3.7779 C   0  0  0  0  0  0  0  0  0  0  0  0
    5.4123   -0.4862   -3.3041 H   0  0  0  0  0  0  0  0  0  0  0  0
    5.1949   -2.1387   -3.8443 H   0  0  0  0  0  0  0  0  0  0  0  0
    4.5953   -0.8128   -4.8182 H   0  0  0  0  0  0  0  0  0  0  0  0
    2.4540   -0.3103   -3.4040 N   0  0  0  0  0  0  0  0  0  0  0  0
    1.1494   -0.2128   -2.8039 C   0  0  2  0  0  0  0  0  0  0  0  0
    1.3350    0.0367   -1.3130 C   0  0  0  0  0  0  0  0  0  0  0  0
    2.3625   -0.2586   -0.7063 O   0  0  0  0  0  0  0  0  0  0  0  0
    0.3331   -1.4728   -3.0467 C   0  0  0  0  0  0  0  0  0  0  0  0
    2.6924    0.3404   -4.1502 H   0  0  0  0  0  0  0  0  0  0  0  0
    0.6550    0.6514   -3.2607 H   0  0  0  0  0  0  0  0  0  0  0  0
    0.8129   -2.3494   -2.5963 H   0  0  0  0  0  0  0  0  0  0  0  0
   -0.6690   -1.3857   -2.6142 H   0  0  0  0  0  0  0  0  0  0  0  0
    0.2259   -1.6670   -4.1194 H   0  0  0  0  0  0  0  0  0  0  0  0
    0.2019    0.5893   -0.7269 N   0  0  0  0  0  0  0  0  0  0  0  0
    0.1242    0.9059    0.6756 C   0  0  2  0  0  0  0  0  0  0  0  0
    0.9462    2.1719    0.8964 C   0  0  0  0  0  0  0  0  0  0  0  0
    1.5024    2.7766   -0.0180 O   0  0  0  0  0  0  0  0  0  0  0  0
    0.6546   -0.2315    1.5578 C   0  0  0  0  0  0  0  0  0  0  0  0
   -0.1807   -1.5273    1.5143 C   0  0  0  0  0  0  0  0  0  0  0  0
    0.5284   -2.6254    2.3119 C   0  0  0  0  0  0  0  0  0  0  0  0
   -0.4332   -2.0101    0.0854 C   0  0  0  0  0  0  0  0  0  0  0  0
   -0.5975    0.8179   -1.3140 H   0  0  0  0  0  0  0  0  0  0  0  0
   -0.9255    1.1250    0.8960 H   0  0  0  0  0  0  0  0  0  0  0  0
    0.7038    0.1202    2.5980 H   0  0  0  0  0  0  0  0  0  0  0  0
    1.6893   -0.4618    1.2714 H   0  0  0  0  0  0  0  0  0  0  0  0
   -1.1510   -1.3462    1.9925 H   0  0  0  0  0  0  0  0  0  0  0  0
    1.5088   -2.8501    1.8784 H   0  0  0  0  0  0  0  0  0  0  0  0
   -0.0575   -3.5506    2.3060 H   0  0  0  0  0  0  0  0  0  0  0  0
    0.6794   -2.3258    3.3546 H   0  0  0  0  0  0  0  0  0  0  0  0
    0.5079   -2.2066   -0.4394 H   0  0  0  0  0  0  0  0  0  0  0  0
   -1.0186   -2.9360    0.0864 H   0  0  0  0  0  0  0  0  0  0  0  0
   -0.9987   -1.2721   -0.4910 H   0  0  0  0  0  0  0  0  0  0  0  0
    0.9404    2.5711    2.2257 N   0  0  0  0  0  0  0  0  0  0  0  0
    1.6204    3.7545    2.7008 C   0  0  2  0  0  0  0  0  0  0  0  0
    1.4353    4.8524    1.6617 C   0  0  0  0  0  0  0  0  0  0  0  0
    1.1743    4.6229    0.4826 O   0  0  0  0  0  0  0  0  0  0  0  0
    3.0963    3.4830    2.9477 C   0  0  0  0  0  0  0  0  0  0  0  0
    0.4289    2.0193    2.9080 H   0  0  0  0  0  0  0  0  0  0  0  0
    1.1290    4.0481    3.6348 H   0  0  0  0  0  0  0  0  0  0  0  0
    3.6055    3.1874    2.0232 H   0  0  0  0  0  0  0  0  0  0  0  0
    3.6040    4.3727    3.3347 H   0  0  0  0  0  0  0  0  0  0  0  0
    3.2275    2.6728    3.6731 H   0  0  0  0  0  0  0  0  0  0  0  0
    1.6384    6.1168    2.1966 N   0  0  0  0  0  0  0  0  0  0  0  0
    1.5325    7.3228    1.4090 C   0  0  0  0  0  0  0  0  0  0  0  0
    1.8324    6.2143    3.1889 H   0  0  0  0  0  0  0  0  0  0  0  0
    2.5232    7.5912    1.0134 H   0  0  0  0  0  0  0  0  0  0  0  0
    0.8374    7.1549    0.5732 H   0  0  0  0  0  0  0  0  0  0  0  0
    1.1560    8.1411    2.0403 H   0  0  0  0  0  0  0  0  0  0  0  0
  1  3  1  0  0  0  0
  1  7  1  0  0  0  0
  1  2  2  0  0  0  0
 37 38  1  0  0  0  0
 38 46  1  0  0  0  0
 38 39  2  0  0  0  0
  8  9  1  0  0  0  0
  9 17  1  0  0  0  0
  9 10  2  0  0  0  0
 18 19  1  0  0  0  0
 19 36  1  0  0  0  0
 19 20  2  0  0  0  0
 37 40  1  0  0  0  0
  8 11  1  0  0  0  0
 22 23  1  0  0  0  0
 22 24  1  0  0  0  0
 46 47  1  0  0  0  0
 18 21  1  0  0  0  0
 21 22  1  0  0  0  0
 36 37  1  0  0  0  0
  7  8  1  0  0  0  0
 17 18  1  0  0  0  0
  3  4  1  0  0  0  0
  3  5  1  0  0  0  0
  3  6  1  0  0  0  0
 40 43  1  0  0  0  0
 40 44  1  0  0  0  0
 40 45  1  0  0  0  0
 11 14  1  0  0  0  0
 11 15  1  0  0  0  0
 11 16  1  0  0  0  0
 23 30  1  0  0  0  0
 23 31  1  0  0  0  0
 23 32  1  0  0  0  0
 24 33  1  0  0  0  0
 24 34  1  0  0  0  0
 24 35  1  0  0  0  0
 47 49  1  0  0  0  0
 47 50  1  0  0  0  0
 47 51  1  0  0  0  0
 21 27  1  0  0  0  0
 21 28  1  0  0  0  0
 37 42  1  0  0  0  0
  8 13  1  0  0  0  0
 18 26  1  0  0  0  0
 22 29  1  0  0  0  0
 46 48  1  0  0  0  0
  7 12  1  0  0  0  0
 36 41  1  0  0  0  0
 17 25  1  0  0  0  0
M  END
$$$$

  -OEChem-05262214473D

 51 50  0     1  0  0  0  0  0999 V2000
    3.4018   -1.2440   -3.0186 C   0  0  0  0  0  0  0  0  0  0  0  0
    3.2697   -2.0909   -2.1427 O   0  0  0  0  0  0  0  0  0  0  0  0
    4.6845   -1.1645   -3.7779 C   0  0  0  0  0  0  0  0  0  0  0  0
    5.4123   -0.4862   -3.3041 H   0  0  0  0  0  0  0  0  0  0  0  0
    5.1949   -2.1387   -3.8443 H   0  0  0  0  0  0  0  0  0  0  0  0
    4.5953   -0.8128   -4.8182 H   0  0  0  0  0  0  0  0  0  0  0  0
    2.4540   -0.3103   -3.4040 N   0  0  0  0  0  0  0  0  0  0  0  0
    1.1494   -0.2128   -2.8039 C   0  0  2  0  0  0  0  0  0  0  0  0
    1.3350    0.0367   -1.3130 C   0  0  0  0  0  0  0  0  0  0  0  0
    2.3625   -0.2586   -0.7063 O   0  0  0  0  0  0  0  0  0  0  0  0
    0.3331   -1.4728   -3.0467 C   0  0  0  0  0  0  0  0  0  0  0  0
    2.6924    0.3404   -4.1502 H   0  0  0  0  0  0  0  0  0  0  0  0
    0.6550    0.6514   -3.2607 H   0  0  0  0  0  0  0  0  0  0  0  0
    0.8129   -2.3494   -2.5963 H   0  0  0  0  0  0  0  0  0  0  0  0
   -0.6690   -1.3857   -2.6142 H   0  0  0  0  0  0  0  0  0  0  0  0
    0.2259   -1.6670   -4.1194 H   0  0  0  0  0  0  0  0  0  0  0  0
    0.2019    0.5893   -0.7269 N   0  0  0  0  0  0  0  0  0  0  0  0
    0.1242    0.9059    0.6756 C   0  0  2  0  0  0  0  0  0  0  0  0
    0.9462    2.1719    0.8964 C   0  0  0  0  0  0  0  0  0  0  0  0
    1.2767    2.9232   -0.0187 O   0  0  0  0  0  0  0  0  0  0  0  0
    0.6546   -0.2315    1.5578 C   0  0  0  0  0  0  0  0  0  0  0  0
   -0.1807   -1.5273    1.5143 C   0  0  0  0  0  0  0  0  0  0  0  0
    0.5284   -2.6254    2.3119 C   0  0  0  0  0  0  0  0  0  0  0  0
   -0.4332   -2.0101    0.0854 C   0  0  0  0  0  0  0  0  0  0  0  0
   -0.5975    0.8179   -1.3140 H   0  0  0  0  0  0  0  0  0  0  0  0
   -0.9255    1.1250    0.8960 H   0  0  0  0  0  0  0  0  0  0  0  0
    0.7038    0.1202    2.5980 H   0  0  0  0  0  0  0  0  0  0  0  0
    1.6893   -0.4618    1.2714 H   0  0  0  0  0  0  0  0  0  0  0  0
   -1.1510   -1.3462    1.9925 H   0  0  0  0  0  0  0  0  0  0  0  0
    1.5088   -2.8501    1.8784 H   0  0  0  0  0  0  0  0  0  0  0  0
   -0.0575   -3.5506    2.3060 H   0  0  0  0  0  0  0  0  0  0  0  0
    0.6794   -2.3258    3.3546 H   0  0  0  0  0  0  0  0  0  0  0  0
    0.5079   -2.2066   -0.4394 H   0  0  0  0  0  0  0  0  0  0  0  0
   -1.0186   -2.9360    0.0864 H   0  0  0  0  0  0  0  0  0  0  0  0
   -0.9987   -1.2721   -0.4910 H   0  0  0  0  0  0  0  0  0  0  0  0
    1.2207    2.3866    2.2399 N   0  0  0  0  0  0  0  0  0  0  0  0
    1.9614    3.5289    2.7248 C   0  0  2  0  0  0  0  0  0  0  0  0
    1.5303    4.7461    1.9172 C   0  0  0  0  0  0  0  0  0  0  0  0
    1.0243    4.6650    0.7999 O   0  0  0  0  0  0  0  0  0  0  0  0
    3.4612    3.3047    2.6114 C   0  0  0  0  0  0  0  0  0  0  0  0
    0.8822    1.7214    2.9287 H   0  0  0  0  0  0  0  0  0  0  0  0
    1.6784    3.6672    3.7740 H   0  0  0  0  0  0  0  0  0  0  0  0
    3.7636    3.1642    1.5672 H   0  0  0  0  0  0  0  0  0  0  0  0
    4.0211    4.1593    3.0055 H   0  0  0  0  0  0  0  0  0  0  0  0
    3.7650    2.4118    3.1684 H   0  0  0  0  0  0  0  0  0  0  0  0
    1.8167    5.9355    2.5727 N   0  0  0  0  0  0  0  0  0  0  0  0
    1.5153    7.2297    2.0069 C   0  0  0  0  0  0  0  0  0  0  0  0
    2.2197    5.9078    3.5047 H   0  0  0  0  0  0  0  0  0  0  0  0
    2.3901    7.6009    1.4529 H   0  0  0  0  0  0  0  0  0  0  0  0
    0.6590    7.1400    1.3224 H   0  0  0  0  0  0  0  0  0  0  0  0
    1.2670    7.9340    2.8145 H   0  0  0  0  0  0  0  0  0  0  0  0
  1  3  1  0  0  0  0
  1  7  1  0  0  0  0
  1  2  2  0  0  0  0
 37 38  1  0  0  0  0
 38 46  1  0  0  0  0
 38 39  2  0  0  0  0
  8  9  1  0  0  0  0
  9 17  1  0  0  0  0
  9 10  2  0  0  0  0
 18 19  1  0  0  0  0
 19 36  1  0  0  0  0
 19 20  2  0  0  0  0
 37 40  1  0  0  0  0
  8 11  1  0  0  0  0
 22 23  1  0  0  0  0
 22 24  1  0  0  0  0
 46 47  1  0  0  0  0
 18 21  1  0  0  0  0
 21 22  1  0  0  0  0
 36 37  1  0  0  0  0
  7  8  1  0  0  0  0
 17 18  1  0  0  0  0
  3  4  1  0  0  0  0
  3  5  1  0  0  0  0
  3  6  1  0  0  0  0
 40 43  1  0  0  0  0
 40 44  1  0  0  0  0
 40 45  1  0  0  0  0
 11 14  1  0  0  0  0
 11 15  1  0  0  0  0
 11 16  1  0  0  0  0
 23 30  1  0  0  0  0
 23 31  1  0  0  0  0
 23 32  1  0  0  0  0
 24 33  1  0  0  0  0
 24 34  1  0  0  0  0
 24 35  1  0  0  0  0
 47 49  1  0  0  0  0
 47 50  1  0  0  0  0
 47 51  1  0  0  0  0
 21 27  1  0  0  0  0
 21 28  1  0  0  0  0
 37 42  1  0  0  0  0
  8 13  1  0  0  0  0
 18 26  1  0  0  0  0
 22 29  1  0  0  0  0
 46 48  1  0  0  0  0
  7 12  1  0  0  0  0
 36 41  1  0  0  0  0
 17 25  1  0  0  0  0
M  END
$$$$

  -OEChem-05262214473D

 51 50  0     1  0  0  0  0  0999 V2000
    3.4018   -1.2440   -3.0186 C   0  0  0  0  0  0  0  0  0  0  0  0
    3.2697   -2.0909   -2.1427 O   0  0  0  0  0  0  0  0  0  0  0  0
    4.6845   -1.1645   -3.7779 C   0  0  0  0  0  0  0  0  0  0  0  0
    5.4123   -0.4862   -3.3041 H   0  0  0  0  0  0  0  0  0  0  0  0
    5.1949   -2.1387   -3.8443 H   0  0  0  0  0  0  0  0  0  0  0  0
    4.5953   -0.8128   -4.8182 H   0  0  0  0  0  0  0  0  0  0  0  0
    2.4540   -0.3103   -3.4040 N   0  0  0  0  0  0  0  0  0  0  0  0
    1.1494   -0.2128   -2.8039 C   0  0  2  0  0  0  0  0  0  0  0  0
    1.3350    0.0367   -1.3130 C   0  0  0  0  0  0  0  0  0  0  0  0
    2.3625   -0.2586   -0.7063 O   0  0  0  0  0  0  0  0  0  0  0  0
    0.3331   -1.4728   -3.0467 C   0  0  0  0  0  0  0  0  0  0  0  0
    2.6924    0.3404   -4.1502 H   0  0  0  0  0  0  0  0  0  0  0  0
    0.6550    0.6514   -3.2607 H   0  0  0  0  0  0  0  0  0  0  0  0
    0.8129   -2.3494   -2.5963 H   0  0  0  0  0  0  0  0  0  0  0  0
   -0.6690   -1.3857   -2.6142 H   0  0  0  0  0  0  0  0  0  0  0  0
    0.2259   -1.6670   -4.1194 H   0  0  0  0  0  0  0  0  0  0  0  0
    0.2019    0.5893   -0.7269 N   0  0  0  0  0  0  0  0  0  0  0  0
    0.1242    0.9059    0.6756 C   0  0  2  0  0  0  0  0  0  0  0  0
    0.9462    2.1719    0.8964 C   0  0  0  0  0  0  0  0  0  0  0  0
    1.0530    3.0566    0.0495 O   0  0  0  0  0  0  0  0  0  0  0  0
    0.6546   -0.2315    1.5578 C   0  0  0  0  0  0  0  0  0  0  0  0
   -0.1807   -1.5273    1.5143 C   0  0  0  0  0  0  0  0  0  0  0  0
    0.5284   -2.6254    2.3119 C   0  0  0  0  0  0  0  0  0  0  0  0
   -0.4332   -2.0101    0.0854 C   0  0  0  0  0  0  0  0  0  0  0  0
   -0.5975    0.8179   -1.3140 H   0  0  0  0  0  0  0  0  0  0  0  0
   -0.9255    1.1250    0.8960 H   0  0  0  0  0  0  0  0  0  0  0  0
    0.7038    0.1202    2.5980 H   0  0  0  0  0  0  0  0  0  0  0  0
    1.6893   -0.4618    1.2714 H   0  0  0  0  0  0  0  0  0  0  0  0
   -1.1510   -1.3462    1.9925 H   0  0  0  0  0  0  0  0  0  0  0  0
    1.5088   -2.8501    1.8784 H   0  0  0  0  0  0  0  0  0  0  0  0
   -0.0575   -3.5506    2.3060 H   0  0  0  0  0  0  0  0  0  0  0  0
    0.6794   -2.3258    3.3546 H   0  0  0  0  0  0  0  0  0  0  0  0
    0.5079   -2.2066   -0.4394 H   0  0  0  0  0  0  0  0  0  0  0  0
   -1.0186   -2.9360    0.0864 H   0  0  0  0  0  0  0  0  0  0  0  0
   -0.9987   -1.2721   -0.4910 H   0  0  0  0  0  0  0  0  0  0  0  0
    1.5015    2.2169    2.1676 N   0  0  0  0  0  0  0  0  0  0  0  0
    2.3042    3.3205    2.6432 C   0  0  2  0  0  0  0  0  0  0  0  0
    1.6810    4.6114    2.1288 C   0  0  0  0  0  0  0  0  0  0  0  0
    0.9460    4.6557    1.1444 O   0  0  0  0  0  0  0  0  0  0  0  0
    3.7481    3.1931    2.1832 C   0  0  0  0  0  0  0  0  0  0  0  0
    1.3357    1.4476    2.8098 H   0  0  0  0  0  0  0  0  0  0  0  0
    2.2532    3.3003    3.7373 H   0  0  0  0  0  0  0  0  0  0  0  0
    3.8193    3.2114    1.0896 H   0  0  0  0  0  0  0  0  0  0  0  0
    4.3612    4.0148    2.5681 H   0  0  0  0  0  0  0  0  0  0  0  0
    4.1856    2.2503    2.5291 H   0  0  0  0  0  0  0  0  0  0  0  0
    2.0765    5.7145    2.8724 N   0  0  0  0  0  0  0  0  0  0  0  0
    1.6307    7.0557    2.5752 C   0  0  0  0  0  0  0  0  0  0  0  0
    2.6731    5.5822    3.6838 H   0  0  0  0  0  0  0  0  0  0  0  0
    2.3556    7.5441    1.9074 H   0  0  0  0  0  0  0  0  0  0  0  0
    0.6481    7.0145    2.0823 H   0  0  0  0  0  0  0  0  0  0  0  0
    1.5483    7.6301    3.5097 H   0  0  0  0  0  0  0  0  0  0  0  0
  1  3  1  0  0  0  0
  1  7  1  0  0  0  0
  1  2  2  0  0  0  0
 37 38  1  0  0  0  0
 38 46  1  0  0  0  0
 38 39  2  0  0  0  0
  8  9  1  0  0  0  0
  9 17  1  0  0  0  0
  9 10  2  0  0  0  0
 18 19  1  0  0  0  0
 19 36  1  0  0  0  0
 19 20  2  0  0  0  0
 37 40  1  0  0  0  0
  8 11  1  0  0  0  0
 22 23  1  0  0  0  0
 22 24  1  0  0  0  0
 46 47  1  0  0  0  0
 18 21  1  0  0  0  0
 21 22  1  0  0  0  0
 36 37  1  0  0  0  0
  7  8  1  0  0  0  0
 17 18  1  0  0  0  0
  3  4  1  0  0  0  0
  3  5  1  0  0  0  0
  3  6  1  0  0  0  0
 40 43  1  0  0  0  0
 40 44  1  0  0  0  0
 40 45  1  0  0  0  0
 11 14  1  0  0  0  0
 11 15  1  0  0  0  0
 11 16  1  0  0  0  0
 23 30  1  0  0  0  0
 23 31  1  0  0  0  0
 23 32  1  0  0  0  0
 24 33  1  0  0  0  0
 24 34  1  0  0  0  0
 24 35  1  0  0  0  0
 47 49  1  0  0  0  0
 47 50  1  0  0  0  0
 47 51  1  0  0  0  0
 21 27  1  0  0  0  0
 21 28  1  0  0  0  0
 37 42  1  0  0  0  0
  8 13  1  0  0  0  0
 18 26  1  0  0  0  0
 22 29  1  0  0  0  0
 46 48  1  0  0  0  0
  7 12  1  0  0  0  0
 36 41  1  0  0  0  0
 17 25  1  0  0  0  0
M  END
$$$$

  -OEChem-05262214473D

 51 50  0     1  0  0  0  0  0999 V2000
    3.4018   -1.2440   -3.0186 C   0  0  0  0  0  0  0  0  0  0  0  0
    3.2697   -2.0909   -2.1427 O   0  0  0  0  0  0  0  0  0  0  0  0
    4.6845   -1.1645   -3.7779 C   0  0  0  0  0  0  0  0  0  0  0  0
    5.4123   -0.4862   -3.3041 H   0  0  0  0  0  0  0  0  0  0  0  0
    5.1949   -2.1387   -3.8443 H   0  0  0  0  0  0  0  0  0  0  0  0
    4.5953   -0.8128   -4.8182 H   0  0  0  0  0  0  0  0  0  0  0  0
    2.4540   -0.3103   -3.4040 N   0  0  0  0  0  0  0  0  0  0  0  0
    1.1494   -0.2128   -2.8039 C   0  0  2  0  0  0  0  0  0  0  0  0
    1.3350    0.0367   -1.3130 C   0  0  0  0  0  0  0  0  0  0  0  0
    2.3625   -0.2586   -0.7063 O   0  0  0  0  0  0  0  0  0  0  0  0
    0.3331   -1.4728   -3.0467 C   0  0  0  0  0  0  0  0  0  0  0  0
    2.6924    0.3404   -4.1502 H   0  0  0  0  0  0  0  0  0  0  0  0
    0.6550    0.6514   -3.2607 H   0  0  0  0  0  0  0  0  0  0  0  0
    0.8129   -2.3494   -2.5963 H   0  0  0  0  0  0  0  0  0  0  0  0
   -0.6690   -1.3857   -2.6142 H   0  0  0  0  0  0  0  0  0  0  0  0
    0.2259   -1.6670   -4.1194 H   0  0  0  0  0  0  0  0  0  0  0  0
    0.2019    0.5893   -0.7269 N   0  0  0  0  0  0  0  0  0  0  0  0
    0.1242    0.9059    0.6756 C   0  0  2  0  0  0  0  0  0  0  0  0
    0.9462    2.1719    0.8964 C   0  0  0  0  0  0  0  0  0  0  0  0
    0.8467    3.1674    0.1821 O   0  0  0  0  0  0  0  0  0  0  0  0
    0.6546   -0.2315    1.5578 C   0  0  0  0  0  0  0  0  0  0  0  0
   -0.1807   -1.5273    1.5143 C   0  0  0  0  0  0  0  0  0  0  0  0
    0.5284   -2.6254    2.3119 C   0  0  0  0  0  0  0  0  0  0  0  0
   -0.4332   -2.0101    0.0854 C   0  0  0  0  0  0  0  0  0  0  0  0
   -0.5975    0.8179   -1.3140 H   0  0  0  0  0  0  0  0  0  0  0  0
   -0.9255    1.1250    0.8960 H   0  0  0  0  0  0  0  0  0  0  0  0
    0.7038    0.1202    2.5980 H   0  0  0  0  0  0  0  0  0  0  0  0
    1.6893   -0.4618    1.2714 H   0  0  0  0  0  0  0  0  0  0  0  0
   -1.1510   -1.3462    1.9925 H   0  0  0  0  0  0  0  0  0  0  0  0
    1.5088   -2.8501    1.8784 H   0  0  0  0  0  0  0  0  0  0  0  0
   -0.0575   -3.5506    2.3060 H   0  0  0  0  0  0  0  0  0  0  0  0
    0.6794   -2.3258    3.3546 H   0  0  0  0  0  0  0  0  0  0  0  0
    0.5079   -2.2066   -0.4394 H   0  0  0  0  0  0  0  0  0  0  0  0
   -1.0186   -2.9360    0.0864 H   0  0  0  0  0  0  0  0  0  0  0  0
   -0.9987   -1.2721   -0.4910 H   0  0  0  0  0  0  0  0  0  0  0  0
    1.7635    2.0736    2.0139 N   0  0  0  0  0  0  0  0  0  0  0  0
    2.6257    3.1435    2.4618 C   0  0  2  0  0  0  0  0  0  0  0  0
    1.8770    4.4574    2.2820 C   0  0  0  0  0  0  0  0  0  0  0  0
    0.9448    4.5958    1.4927 O   0  0  0  0  0  0  0  0  0  0  0  0
    3.9375    3.1557    1.6925 C   0  0  0  0  0  0  0  0  0  0  0  0
    1.7585    1.2168    2.5594 H   0  0  0  0  0  0  0  0  0  0  0  0
    2.8142    2.9727    3.5273 H   0  0  0  0  0  0  0  0  0  0  0  0
    3.7688    3.3256    0.6229 H   0  0  0  0  0  0  0  0  0  0  0  0
    4.6011    3.9489    2.0524 H   0  0  0  0  0  0  0  0  0  0  0  0
    4.4605    2.1992    1.7987 H   0  0  0  0  0  0  0  0  0  0  0  0
    2.4002    5.4690    3.0752 N   0  0  0  0  0  0  0  0  0  0  0  0
    1.8706    6.8127    3.0750 C   0  0  0  0  0  0  0  0  0  0  0  0
    3.1616    5.2597    3.7141 H   0  0  0  0  0  0  0  0  0  0  0  0
    2.4220    7.4245    2.3459 H   0  0  0  0  0  0  0  0  0  0  0  0
    0.8056    6.7869    2.8011 H   0  0  0  0  0  0  0  0  0  0  0  0
    1.9807    7.2502    4.0783 H   0  0  0  0  0  0  0  0  0  0  0  0
  1  3  1  0  0  0  0
  1  7  1  0  0  0  0
  1  2  2  0  0  0  0
 37 38  1  0  0  0  0
 38 46  1  0  0  0  0
 38 39  2  0  0  0  0
  8  9  1  0  0  0  0
  9 17  1  0  0  0  0
  9 10  2  0  0  0  0
 18 19  1  0  0  0  0
 19 36  1  0  0  0  0
 19 20  2  0  0  0  0
 37 40  1  0  0  0  0
  8 11  1  0  0  0  0
 22 23  1  0  0  0  0
 22 24  1  0  0  0  0
 46 47  1  0  0  0  0
 18 21  1  0  0  0  0
 21 22  1  0  0  0  0
 36 37  1  0  0  0  0
  7  8  1  0  0  0  0
 17 18  1  0  0  0  0
  3  4  1  0  0  0  0
  3  5  1  0  0  0  0
  3  6  1  0  0  0  0
 40 43  1  0  0  0  0
 40 44  1  0  0  0  0
 40 45  1  0  0  0  0
 11 14  1  0  0  0  0
 11 15  1  0  0  0  0
 11 16  1  0  0  0  0
 23 30  1  0  0  0  0
 23 31  1  0  0  0  0
 23 32  1  0  0  0  0
 24 33  1  0  0  0  0
 24 34  1  0  0  0  0
 24 35  1  0  0  0  0
 47 49  1  0  0  0  0
 47 50  1  0  0  0  0
 47 51  1  0  0  0  0
 21 27  1  0  0  0  0
 21 28  1  0  0  0  0
 37 42  1  0  0  0  0
  8 13  1  0  0  0  0
 18 26  1  0  0  0  0
 22 29  1  0  0  0  0
 46 48  1  0  0  0  0
  7 12  1  0  0  0  0
 36 41  1  0  0  0  0
 17 25  1  0  0  0  0
M  END
$$$$

  -OEChem-05262214473D

 51 50  0     1  0  0  0  0  0999 V2000
    3.4018   -1.2440   -3.0186 C   0  0  0  0  0  0  0  0  0  0  0  0
    3.2697   -2.0909   -2.1427 O   0  0  0  0  0  0  0  0  0  0  0  0
    4.6845   -1.1645   -3.7779 C   0  0  0  0  0  0  0  0  0  0  0  0
    5.4123   -0.4862   -3.3041 H   0  0  0  0  0  0  0  0  0  0  0  0
    5.1949   -2.1387   -3.8443 H   0  0  0  0  0  0  0  0  0  0  0  0
    4.5953   -0.8128   -4.8182 H   0  0  0  0  0  0  0  0  0  0  0  0
    2.4540   -0.3103   -3.4040 N   0  0  0  0  0  0  0  0  0  0  0  0
    1.1494   -0.2128   -2.8039 C   0  0  2  0  0  0  0  0  0  0  0  0
    1.3350    0.0367   -1.3130 C   0  0  0  0  0  0  0  0  0  0  0  0
    2.3625   -0.2586   -0.7063 O   0  0  0  0  0  0  0  0  0  0  0  0
    0.3331   -1.4728   -3.0467 C   0  0  0  0  0  0  0  0  0  0  0  0
    2.6924    0.3404   -4.1502 H   0  0  0  0  0  0  0  0  0  0  0  0
    0.6550    0.6514   -3.2607 H   0  0  0  0  0  0  0  0  0  0  0  0
    0.8129   -2.3494   -2.5963 H   0  0  0  0  0  0  0  0  0  0  0  0
   -0.6690   -1.3857   -2.6142 H   0  0  0  0  0  0  0  0  0  0  0  0
    0.2259   -1.6670   -4.1194 H   0  0  0  0  0  0  0  0  0  0  0  0
    0.2019    0.5893   -0.7269 N   0  0  0  0  0  0  0  0  0  0  0  0
    0.1242    0.9059    0.6756 C   0  0  2  0  0  0  0  0  0  0  0  0
    0.9462    2.1719    0.8964 C   0  0  0  0  0  0  0  0  0  0  0  0
    0.6716    3.2483    0.3700 O   0  0  0  0  0  0  0  0  0  0  0  0
    0.6546   -0.2315    1.5578 C   0  0  0  0  0  0  0  0  0  0  0  0
   -0.1807   -1.5273    1.5143 C   0  0  0  0  0  0  0  0  0  0  0  0
    0.5284   -2.6254    2.3119 C   0  0  0  0  0  0  0  0  0  0  0  0
   -0.4332   -2.0101    0.0854 C   0  0  0  0  0  0  0  0  0  0  0  0
   -0.5975    0.8179   -1.3140 H   0  0  0  0  0  0  0  0  0  0  0  0
   -0.9255    1.1250    0.8960 H   0  0  0  0  0  0  0  0  0  0  0  0
    0.7038    0.1202    2.5980 H   0  0  0  0  0  0  0  0  0  0  0  0
    1.6893   -0.4618    1.2714 H   0  0  0  0  0  0  0  0  0  0  0  0
   -1.1510   -1.3462    1.9925 H   0  0  0  0  0  0  0  0  0  0  0  0
    1.5088   -2.8501    1.8784 H   0  0  0  0  0  0  0  0  0  0  0  0
   -0.0575   -3.5506    2.3060 H   0  0  0  0  0  0  0  0  0  0  0  0
    0.6794   -2.3258    3.3546 H   0  0  0  0  0  0  0  0  0  0  0  0
    0.5079   -2.2066   -0.4394 H   0  0  0  0  0  0  0  0  0  0  0  0
   -1.0186   -2.9360    0.0864 H   0  0  0  0  0  0  0  0  0  0  0  0
   -0.9987   -1.2721   -0.4910 H   0  0  0  0  0  0  0  0  0  0  0  0
    1.9889    1.9664    1.7891 N   0  0  0  0  0  0  0  0  0  0  0  0
    2.9039    3.0098    2.1927 C   0  0  2  0  0  0  0  0  0  0  0  0
    2.1050    4.2947    2.3664 C   0  0  0  0  0  0  0  0  0  0  0  0
    1.0206    4.4892    1.8211 O   0  0  0  0  0  0  0  0  0  0  0  0
    4.0164    3.1951    1.1726 C   0  0  0  0  0  0  0  0  0  0  0  0
    2.1217    1.0447    2.1945 H   0  0  0  0  0  0  0  0  0  0  0  0
    3.3234    2.7065    3.1582 H   0  0  0  0  0  0  0  0  0  0  0  0
    3.6154    3.4991    0.1988 H   0  0  0  0  0  0  0  0  0  0  0  0
    4.7247    3.9661    1.4936 H   0  0  0  0  0  0  0  0  0  0  0  0
    4.5711    2.2619    1.0270 H   0  0  0  0  0  0  0  0  0  0  0  0
    2.7655    5.2157    3.1674 N   0  0  0  0  0  0  0  0  0  0  0  0
    2.2189    6.5173    3.4724 C   0  0  0  0  0  0  0  0  0  0  0  0
    3.6522    4.9623    3.5934 H   0  0  0  0  0  0  0  0  0  0  0  0
    2.5847    7.2504    2.7385 H   0  0  0  0  0  0  0  0  0  0  0  0
    1.1206    6.4727    3.4299 H   0  0  0  0  0  0  0  0  0  0  0  0
    2.5347    6.8201    4.4817 H   0  0  0  0  0  0  0  0  0  0  0  0
  1  3  1  0  0  0  0
  1  7  1  0  0  0  0
  1  2  2  0  0  0  0
 37 38  1  0  0  0  0
 38 46  1  0  0  0  0
 38 39  2  0  0  0  0
  8  9  1  0  0  0  0
  9 17  1  0  0  0  0
  9 10  2  0  0  0  0
 18 19  1  0  0  0  0
 19 36  1  0  0  0  0
 19 20  2  0  0  0  0
 37 40  1  0  0  0  0
  8 11  1  0  0  0  0
 22 23  1  0  0  0  0
 22 24  1  0  0  0  0
 46 47  1  0  0  0  0
 18 21  1  0  0  0  0
 21 22  1  0  0  0  0
 36 37  1  0  0  0  0
  7  8  1  0  0  0  0
 17 18  1  0  0  0  0
  3  4  1  0  0  0  0
  3  5  1  0  0  0  0
  3  6  1  0  0  0  0
 40 43  1  0  0  0  0
 40 44  1  0  0  0  0
 40 45  1  0  0  0  0
 11 14  1  0  0  0  0
 11 15  1  0  0  0  0
 11 16  1  0  0  0  0
 23 30  1  0  0  0  0
 23 31  1  0  0  0  0
 23 32  1  0  0  0  0
 24 33  1  0  0  0  0
 24 34  1  0  0  0  0
 24 35  1  0  0  0  0
 47 49  1  0  0  0  0
 47 50  1  0  0  0  0
 47 51  1  0  0  0  0
 21 27  1  0  0  0  0
 21 28  1  0  0  0  0
 37 42  1  0  0  0  0
  8 13  1  0  0  0  0
 18 26  1  0  0  0  0
 22 29  1  0  0  0  0
 46 48  1  0  0  0  0
  7 12  1  0  0  0  0
 36 41  1  0  0  0  0
 17 25  1  0  0  0  0
M  END
$$$$

  -OEChem-05262214473D

 51 50  0     1  0  0  0  0  0999 V2000
    3.4018   -1.2440   -3.0186 C   0  0  0  0  0  0  0  0  0  0  0  0
    3.2697   -2.0909   -2.1427 O   0  0  0  0  0  0  0  0  0  0  0  0
    4.6845   -1.1645   -3.7779 C   0  0  0  0  0  0  0  0  0  0  0  0
    5.4123   -0.4862   -3.3041 H   0  0  0  0  0  0  0  0  0  0  0  0
    5.1949   -2.1387   -3.8443 H   0  0  0  0  0  0  0  0  0  0  0  0
    4.5953   -0.8128   -4.8182 H   0  0  0  0  0  0  0  0  0  0  0  0
    2.4540   -0.3103   -3.4040 N   0  0  0  0  0  0  0  0  0  0  0  0
    1.1494   -0.2128   -2.8039 C   0  0  2  0  0  0  0  0  0  0  0  0
    1.3350    0.0367   -1.3130 C   0  0  0  0  0  0  0  0  0  0  0  0
    2.3625   -0.2586   -0.7063 O   0  0  0  0  0  0  0  0  0  0  0  0
    0.3331   -1.4728   -3.0467 C   0  0  0  0  0  0  0  0  0  0  0  0
    2.6924    0.3404   -4.1502 H   0  0  0  0  0  0  0  0  0  0  0  0
    0.6550    0.6514   -3.2607 H   0  0  0  0  0  0  0  0  0  0  0  0
    0.8129   -2.3494   -2.5963 H   0  0  0  0  0  0  0  0  0  0  0  0
   -0.6690   -1.3857   -2.6142 H   0  0  0  0  0  0  0  0  0  0  0  0
    0.2259   -1.6670   -4.1194 H   0  0  0  0  0  0  0  0  0  0  0  0
    0.2019    0.5893   -0.7269 N   0  0  0  0  0  0  0  0  0  0  0  0
    0.1242    0.9059    0.6756 C   0  0  2  0  0  0  0  0  0  0  0  0
    0.9462    2.1719    0.8964 C   0  0  0  0  0  0  0  0  0  0  0  0
    0.5399    3.2937    0.6003 O   0  0  0  0  0  0  0  0  0  0  0  0
    0.6546   -0.2315    1.5578 C   0  0  0  0  0  0  0  0  0  0  0  0
   -0.1807   -1.5273    1.5143 C   0  0  0  0  0  0  0  0  0  0  0  0
    0.5284   -2.6254    2.3119 C   0  0  0  0  0  0  0  0  0  0  0  0
   -0.4332   -2.0101    0.0854 C   0  0  0  0  0  0  0  0  0  0  0  0
   -0.5975    0.8179   -1.3140 H   0  0  0  0  0  0  0  0  0  0  0  0
   -0.9255    1.1250    0.8960 H   0  0  0  0  0  0  0  0  0  0  0  0
    0.7038    0.1202    2.5980 H   0  0  0  0  0  0  0  0  0  0  0  0
    1.6893   -0.4618    1.2714 H   0  0  0  0  0  0  0  0  0  0  0  0
   -1.1510   -1.3462    1.9925 H   0  0  0  0  0  0  0  0  0  0  0  0
    1.5088   -2.8501    1.8784 H   0  0  0  0  0  0  0  0  0  0  0  0
   -0.0575   -3.5506    2.3060 H   0  0  0  0  0  0  0  0  0  0  0  0
    0.6794   -2.3258    3.3546 H   0  0  0  0  0  0  0  0  0  0  0  0
    0.5079   -2.2066   -0.4394 H   0  0  0  0  0  0  0  0  0  0  0  0
   -1.0186   -2.9360    0.0864 H   0  0  0  0  0  0  0  0  0  0  0  0
   -0.9987   -1.2721   -0.4910 H   0  0  0  0  0  0  0  0  0  0  0  0
    2.1624    1.9027    1.5086 N   0  0  0  0  0  0  0  0  0  0  0  0
    3.1198    2.9286    1.8544 C   0  0  2  0  0  0  0  0  0  0  0  0
    2.3494    4.1342    2.3763 C   0  0  0  0  0  0  0  0  0  0  0  0
    1.1684    4.3434    2.1071 O   0  0  0  0  0  0  0  0  0  0  0  0
    3.9795    3.3087    0.6590 C   0  0  0  0  0  0  0  0  0  0  0  0
    2.4006    0.9428    1.7400 H   0  0  0  0  0  0  0  0  0  0  0  0
    3.7458    2.5199    2.6552 H   0  0  0  0  0  0  0  0  0  0  0  0
    3.3697    3.7201   -0.1536 H   0  0  0  0  0  0  0  0  0  0  0  0
    4.7233    4.0654    0.9297 H   0  0  0  0  0  0  0  0  0  0  0  0
    4.5099    2.4343    0.2665 H   0  0  0  0  0  0  0  0  0  0  0  0
    3.1477    4.9718    3.1426 N   0  0  0  0  0  0  0  0  0  0  0  0
    2.6517    6.1895    3.7403 C   0  0  0  0  0  0  0  0  0  0  0  0
    4.1112    4.7102    3.3299 H   0  0  0  0  0  0  0  0  0  0  0  0
    2.8328    7.0335    3.0584 H   0  0  0  0  0  0  0  0  0  0  0  0
    1.5717    6.0934    3.9257 H   0  0  0  0  0  0  0  0  0  0  0  0
    3.1726    6.3692    4.6923 H   0  0  0  0  0  0  0  0  0  0  0  0
  1  3  1  0  0  0  0
  1  7  1  0  0  0  0
  1  2  2  0  0  0  0
 37 38  1  0  0  0  0
 38 46  1  0  0  0  0
 38 39  2  0  0  0  0
  8  9  1  0  0  0  0
  9 17  1  0  0  0  0
  9 10  2  0  0  0  0
 18 19  1  0  0  0  0
 19 36  1  0  0  0  0
 19 20  2  0  0  0  0
 37 40  1  0  0  0  0
  8 11  1  0  0  0  0
 22 23  1  0  0  0  0
 22 24  1  0  0  0  0
 46 47  1  0  0  0  0
 18 21  1  0  0  0  0
 21 22  1  0  0  0  0
 36 37  1  0  0  0  0
  7  8  1  0  0  0  0
 17 18  1  0  0  0  0
  3  4  1  0  0  0  0
  3  5  1  0  0  0  0
  3  6  1  0  0  0  0
 40 43  1  0  0  0  0
 40 44  1  0  0  0  0
 40 45  1  0  0  0  0
 11 14  1  0  0  0  0
 11 15  1  0  0  0  0
 11 16  1  0  0  0  0
 23 30  1  0  0  0  0
 23 31  1  0  0  0  0
 23 32  1  0  0  0  0
 24 33  1  0  0  0  0
 24 34  1  0  0  0  0
 24 35  1  0  0  0  0
 47 49  1  0  0  0  0
 47 50  1  0  0  0  0
 47 51  1  0  0  0  0
 21 27  1  0  0  0  0
 21 28  1  0  0  0  0
 37 42  1  0  0  0  0
  8 13  1  0  0  0  0
 18 26  1  0  0  0  0
 22 29  1  0  0  0  0
 46 48  1  0  0  0  0
  7 12  1  0  0  0  0
 36 41  1  0  0  0  0
 17 25  1  0  0  0  0
M  END
$$$$

  -OEChem-05262214473D

 51 50  0     1  0  0  0  0  0999 V2000
    3.4018   -1.2440   -3.0186 C   0  0  0  0  0  0  0  0  0  0  0  0
    3.2697   -2.0909   -2.1427 O   0  0  0  0  0  0  0  0  0  0  0  0
    4.6845   -1.1645   -3.7779 C   0  0  0  0  0  0  0  0  0  0  0  0
    5.4123   -0.4862   -3.3041 H   0  0  0  0  0  0  0  0  0  0  0  0
    5.1949   -2.1387   -3.8443 H   0  0  0  0  0  0  0  0  0  0  0  0
    4.5953   -0.8128   -4.8182 H   0  0  0  0  0  0  0  0  0  0  0  0
    2.4540   -0.3103   -3.4040 N   0  0  0  0  0  0  0  0  0  0  0  0
    1.1494   -0.2128   -2.8039 C   0  0  2  0  0  0  0  0  0  0  0  0
    1.3350    0.0367   -1.3130 C   0  0  0  0  0  0  0  0  0  0  0  0
    2.3625   -0.2586   -0.7063 O   0  0  0  0  0  0  0  0  0  0  0  0
    0.3331   -1.4728   -3.0467 C   0  0  0  0  0  0  0  0  0  0  0  0
    2.6924    0.3404   -4.1502 H   0  0  0  0  0  0  0  0  0  0  0  0
    0.6550    0.6514   -3.2607 H   0  0  0  0  0  0  0  0  0  0  0  0
    0.8129   -2.3494   -2.5963 H   0  0  0  0  0  0  0  0  0  0  0  0
   -0.6690   -1.3857   -2.6142 H   0  0  0  0  0  0  0  0  0  0  0  0
    0.2259   -1.6670   -4.1194 H   0  0  0  0  0  0  0  0  0  0  0  0
    0.2019    0.5893   -0.7269 N   0  0  0  0  0  0  0  0  0  0  0  0
    0.1242    0.9059    0.6756 C   0  0  2  0  0  0  0  0  0  0  0  0
    0.9462    2.1719    0.8964 C   0  0  0  0  0  0  0  0  0  0  0  0
    0.4604    3.3005    0.8574 O   0  0  0  0  0  0  0  0  0  0  0  0
    0.6546   -0.2315    1.5578 C   0  0  0  0  0  0  0  0  0  0  0  0
   -0.1807   -1.5273    1.5143 C   0  0  0  0  0  0  0  0  0  0  0  0
    0.5284   -2.6254    2.3119 C   0  0  0  0  0  0  0  0  0  0  0  0
   -0.4332   -2.0101    0.0854 C   0  0  0  0  0  0  0  0  0  0  0  0
   -0.5975    0.8179   -1.3140 H   0  0  0  0  0  0  0  0  0  0  0  0
   -0.9255    1.1250    0.8960 H   0  0  0  0  0  0  0  0  0  0  0  0
    0.7038    0.1202    2.5980 H   0  0  0  0  0  0  0  0  0  0  0  0
    1.6893   -0.4618    1.2714 H   0  0  0  0  0  0  0  0  0  0  0  0
   -1.1510   -1.3462    1.9925 H   0  0  0  0  0  0  0  0  0  0  0  0
    1.5088   -2.8501    1.8784 H   0  0  0  0  0  0  0  0  0  0  0  0
   -0.0575   -3.5506    2.3060 H   0  0  0  0  0  0  0  0  0  0  0  0
    0.6794   -2.3258    3.3546 H   0  0  0  0  0  0  0  0  0  0  0  0
    0.5079   -2.2066   -0.4394 H   0  0  0  0  0  0  0  0  0  0  0  0
   -1.0186   -2.9360    0.0864 H   0  0  0  0  0  0  0  0  0  0  0  0
   -0.9987   -1.2721   -0.4910 H   0  0  0  0  0  0  0  0  0  0  0  0
    2.2721    1.8868    1.1916 N   0  0  0  0  0  0  0  0  0  0  0  0
    3.2588    2.9054    1.4700 C   0  0  2  0  0  0  0  0  0  0  0  0
    2.5937    3.9870    2.3109 C   0  0  0  0  0  0  0  0  0  0  0  0
    1.3780    4.1682    2.3313 O   0  0  0  0  0  0  0  0  0  0  0  0
    3.8293    3.4886    0.1866 C   0  0  0  0  0  0  0  0  0  0  0  0
    2.5762    0.9183    1.2269 H   0  0  0  0  0  0  0  0  0  0  0  0
    4.0528    2.4257    2.0526 H   0  0  0  0  0  0  0  0  0  0  0  0
    3.0484    3.9735   -0.4104 H   0  0  0  0  0  0  0  0  0  0  0  0
    4.5971    4.2398    0.3992 H   0  0  0  0  0  0  0  0  0  0  0  0
    4.2809    2.7046   -0.4308 H   0  0  0  0  0  0  0  0  0  0  0  0
    3.5207    4.7541    3.0026 N   0  0  0  0  0  0  0  0  0  0  0  0
    3.1396    5.8518    3.8604 C   0  0  0  0  0  0  0  0  0  0  0  0
    4.5074    4.5207    2.9417 H   0  0  0  0  0  0  0  0  0  0  0  0
    3.1493    6.7887    3.2840 H   0  0  0  0  0  0  0  0  0  0  0  0
    2.1282    5.6747    4.2549 H   0  0  0  0  0  0  0  0  0  0  0  0
    3.8509    5.9282    4.6959 H   0  0  0  0  0  0  0  0  0  0  0  0
  1  3  1  0  0  0  0
  1  7  1  0  0  0  0
  1  2  2  0  0  0  0
 37 38  1  0  0  0  0
 38 46  1  0  0  0  0
 38 39  2  0  0  0  0
  8  9  1  0  0  0  0
  9 17  1  0  0  0  0
  9 10  2  0  0  0  0
 18 19  1  0  0  0  0
 19 36  1  0  0  0  0
 19 20  2  0  0  0  0
 37 40  1  0  0  0  0
  8 11  1  0  0  0  0
 22 23  1  0  0  0  0
 22 24  1  0  0  0  0
 46 47  1  0  0  0  0
 18 21  1  0  0  0  0
 21 22  1  0  0  0  0
 36 37  1  0  0  0  0
  7  8  1  0  0  0  0
 17 18  1  0  0  0  0
  3  4  1  0  0  0  0
  3  5  1  0  0  0  0
  3  6  1  0  0  0  0
 40 43  1  0  0  0  0
 40 44  1  0  0  0  0
 40 45  1  0  0  0  0
 11 14  1  0  0  0  0
 11 15  1  0  0  0  0
 11 16  1  0  0  0  0
 23 30  1  0  0  0  0
 23 31  1  0  0  0  0
 23 32  1  0  0  0  0
 24 33  1  0  0  0  0
 24 34  1  0  0  0  0
 24 35  1  0  0  0  0
 47 49  1  0  0  0  0
 47 50  1  0  0  0  0
 47 51  1  0  0  0  0
 21 27  1  0  0  0  0
 21 28  1  0  0  0  0
 37 42  1  0  0  0  0
  8 13  1  0  0  0  0
 18 26  1  0  0  0  0
 22 29  1  0  0  0  0
 46 48  1  0  0  0  0
  7 12  1  0  0  0  0
 36 41  1  0  0  0  0
 17 25  1  0  0  0  0
M  END
$$$$

  -OEChem-05262214473D

 51 50  0     1  0  0  0  0  0999 V2000
    3.4018   -1.2440   -3.0186 C   0  0  0  0  0  0  0  0  0  0  0  0
    3.2697   -2.0909   -2.1427 O   0  0  0  0  0  0  0  0  0  0  0  0
    4.6845   -1.1645   -3.7779 C   0  0  0  0  0  0  0  0  0  0  0  0
    5.4123   -0.4862   -3.3041 H   0  0  0  0  0  0  0  0  0  0  0  0
    5.1949   -2.1387   -3.8443 H   0  0  0  0  0  0  0  0  0  0  0  0
    4.5953   -0.8128   -4.8182 H   0  0  0  0  0  0  0  0  0  0  0  0
    2.4540   -0.3103   -3.4040 N   0  0  0  0  0  0  0  0  0  0  0  0
    1.1494   -0.2128   -2.8039 C   0  0  2  0  0  0  0  0  0  0  0  0
    1.3350    0.0367   -1.3130 C   0  0  0  0  0  0  0  0  0  0  0  0
    2.3625   -0.2586   -0.7063 O   0  0  0  0  0  0  0  0  0  0  0  0
    0.3331   -1.4728   -3.0467 C   0  0  0  0  0  0  0  0  0  0  0  0
    2.6924    0.3404   -4.1502 H   0  0  0  0  0  0  0  0  0  0  0  0
    0.6550    0.6514   -3.2607 H   0  0  0  0  0  0  0  0  0  0  0  0
    0.8129   -2.3494   -2.5963 H   0  0  0  0  0  0  0  0  0  0  0  0
   -0.6690   -1.3857   -2.6142 H   0  0  0  0  0  0  0  0  0  0  0  0
    0.2259   -1.6670   -4.1194 H   0  0  0  0  0  0  0  0  0  0  0  0
    0.2019    0.5893   -0.7269 N   0  0  0  0  0  0  0  0  0  0  0  0
    0.1242    0.9059    0.6756 C   0  0  2  0  0  0  0  0  0  0  0  0
    0.9462    2.1719    0.8964 C   0  0  0  0  0  0  0  0  0  0  0  0
    0.4386    3.2682    1.1237 O   0  0  0  0  0  0  0  0  0  0  0  0
    0.6546   -0.2315    1.5578 C   0  0  0  0  0  0  0  0  0  0  0  0
   -0.1807   -1.5273    1.5143 C   0  0  0  0  0  0  0  0  0  0  0  0
    0.5284   -2.6254    2.3119 C   0  0  0  0  0  0  0  0  0  0  0  0
   -0.4332   -2.0101    0.0854 C   0  0  0  0  0  0  0  0  0  0  0  0
   -0.5975    0.8179   -1.3140 H   0  0  0  0  0  0  0  0  0  0  0  0
   -0.9255    1.1250    0.8960 H   0  0  0  0  0  0  0  0  0  0  0  0
    0.7038    0.1202    2.5980 H   0  0  0  0  0  0  0  0  0  0  0  0
    1.6893   -0.4618    1.2714 H   0  0  0  0  0  0  0  0  0  0  0  0
   -1.1510   -1.3462    1.9925 H   0  0  0  0  0  0  0  0  0  0  0  0
    1.5088   -2.8501    1.8784 H   0  0  0  0  0  0  0  0  0  0  0  0
   -0.0575   -3.5506    2.3060 H   0  0  0  0  0  0  0  0  0  0  0  0
    0.6794   -2.3258    3.3546 H   0  0  0  0  0  0  0  0  0  0  0  0
    0.5079   -2.2066   -0.4394 H   0  0  0  0  0  0  0  0  0  0  0  0
   -1.0186   -2.9360    0.0864 H   0  0  0  0  0  0  0  0  0  0  0  0
   -0.9987   -1.2721   -0.4910 H   0  0  0  0  0  0  0  0  0  0  0  0
    2.3105    1.9197    0.8595 N   0  0  0  0  0  0  0  0  0  0  0  0
    3.3113    2.9418    1.0656 C   0  0  2  0  0  0  0  0  0  0  0  0
    2.8211    3.8631    2.1748 C   0  0  0  0  0  0  0  0  0  0  0  0
    1.6353    3.9756    2.4784 O   0  0  0  0  0  0  0  0  0  0  0  0
    3.5760    3.7227   -0.2123 C   0  0  0  0  0  0  0  0  0  0  0  0
    2.6365    0.9728    0.6901 H   0  0  0  0  0  0  0  0  0  0  0  0
    4.2235    2.4302    1.3914 H   0  0  0  0  0  0  0  0  0  0  0  0
    2.6733    4.2421   -0.5542 H   0  0  0  0  0  0  0  0  0  0  0  0
    4.3548    4.4776   -0.0619 H   0  0  0  0  0  0  0  0  0  0  0  0
    3.8999    3.0543   -1.0174 H   0  0  0  0  0  0  0  0  0  0  0  0
    3.8591    4.5773    2.7569 N   0  0  0  0  0  0  0  0  0  0  0  0
    3.6493    5.5271    3.8244 C   0  0  0  0  0  0  0  0  0  0  0  0
    4.8138    4.4065    2.4552 H   0  0  0  0  0  0  0  0  0  0  0  0
    3.5126    6.5326    3.3997 H   0  0  0  0  0  0  0  0  0  0  0  0
    2.7521    5.2452    4.3949 H   0  0  0  0  0  0  0  0  0  0  0  0
    4.5234    5.5270    4.4922 H   0  0  0  0  0  0  0  0  0  0  0  0
  1  3  1  0  0  0  0
  1  7  1  0  0  0  0
  1  2  2  0  0  0  0
 37 38  1  0  0  0  0
 38 46  1  0  0  0  0
 38 39  2  0  0  0  0
  8  9  1  0  0  0  0
  9 17  1  0  0  0  0
  9 10  2  0  0  0  0
 18 19  1  0  0  0  0
 19 36  1  0  0  0  0
 19 20  2  0  0  0  0
 37 40  1  0  0  0  0
  8 11  1  0  0  0  0
 22 23  1  0  0  0  0
 22 24  1  0  0  0  0
 46 47  1  0  0  0  0
 18 21  1  0  0  0  0
 21 22  1  0  0  0  0
 36 37  1  0  0  0  0
  7  8  1  0  0  0  0
 17 18  1  0  0  0  0
  3  4  1  0  0  0  0
  3  5  1  0  0  0  0
  3  6  1  0  0  0  0
 40 43  1  0  0  0  0
 40 44  1  0  0  0  0
 40 45  1  0  0  0  0
 11 14  1  0  0  0  0
 11 15  1  0  0  0  0
 11 16  1  0  0  0  0
 23 30  1  0  0  0  0
 23 31  1  0  0  0  0
 23 32  1  0  0  0  0
 24 33  1  0  0  0  0
 24 34  1  0  0  0  0
 24 35  1  0  0  0  0
 47 49  1  0  0  0  0
 47 50  1  0  0  0  0
 47 51  1  0  0  0  0
 21 27  1  0  0  0  0
 21 28  1  0  0  0  0
 37 42  1  0  0  0  0
  8 13  1  0  0  0  0
 18 26  1  0  0  0  0
 22 29  1  0  0  0  0
 46 48  1  0  0  0  0
  7 12  1  0  0  0  0
 36 41  1  0  0  0  0
 17 25  1  0  0  0  0
M  END
$$$$

  -OEChem-05262214473D

 51 50  0     1  0  0  0  0  0999 V2000
    3.4018   -1.2440   -3.0186 C   0  0  0  0  0  0  0  0  0  0  0  0
    3.2697   -2.0909   -2.1427 O   0  0  0  0  0  0  0  0  0  0  0  0
    4.6845   -1.1645   -3.7779 C   0  0  0  0  0  0  0  0  0  0  0  0
    5.4123   -0.4862   -3.3041 H   0  0  0  0  0  0  0  0  0  0  0  0
    5.1949   -2.1387   -3.8443 H   0  0  0  0  0  0  0  0  0  0  0  0
    4.5953   -0.8128   -4.8182 H   0  0  0  0  0  0  0  0  0  0  0  0
    2.4540   -0.3103   -3.4040 N   0  0  0  0  0  0  0  0  0  0  0  0
    1.1494   -0.2128   -2.8039 C   0  0  2  0  0  0  0  0  0  0  0  0
    1.3350    0.0367   -1.3130 C   0  0  0  0  0  0  0  0  0  0  0  0
    2.3625   -0.2586   -0.7063 O   0  0  0  0  0  0  0  0  0  0  0  0
    0.3331   -1.4728   -3.0467 C   0  0  0  0  0  0  0  0  0  0  0  0
    2.6924    0.3404   -4.1502 H   0  0  0  0  0  0  0  0  0  0  0  0
    0.6550    0.6514   -3.2607 H   0  0  0  0  0  0  0  0  0  0  0  0
    0.8129   -2.3494   -2.5963 H   0  0  0  0  0  0  0  0  0  0  0  0
   -0.6690   -1.3857   -2.6142 H   0  0  0  0  0  0  0  0  0  0  0  0
    0.2259   -1.6670   -4.1194 H   0  0  0  0  0  0  0  0  0  0  0  0
    0.2019    0.5893   -0.7269 N   0  0  0  0  0  0  0  0  0  0  0  0
    0.1242    0.9059    0.6756 C   0  0  2  0  0  0  0  0  0  0  0  0
    0.9462    2.1719    0.8964 C   0  0  0  0  0  0  0  0  0  0  0  0
    0.4759    3.1990    1.3812 O   0  0  0  0  0  0  0  0  0  0  0  0
    0.6546   -0.2315    1.5578 C   0  0  0  0  0  0  0  0  0  0  0  0
   -0.1807   -1.5273    1.5143 C   0  0  0  0  0  0  0  0  0  0  0  0
    0.5284   -2.6254    2.3119 C   0  0  0  0  0  0  0  0  0  0  0  0
   -0.4332   -2.0101    0.0854 C   0  0  0  0  0  0  0  0  0  0  0  0
   -0.5975    0.8179   -1.3140 H   0  0  0  0  0  0  0  0  0  0  0  0
   -0.9255    1.1250    0.8960 H   0  0  0  0  0  0  0  0  0  0  0  0
    0.7038    0.1202    2.5980 H   0  0  0  0  0  0  0  0  0  0  0  0
    1.6893   -0.4618    1.2714 H   0  0  0  0  0  0  0  0  0  0  0  0
   -1.1510   -1.3462    1.9925 H   0  0  0  0  0  0  0  0  0  0  0  0
    1.5088   -2.8501    1.8784 H   0  0  0  0  0  0  0  0  0  0  0  0
   -0.0575   -3.5506    2.3060 H   0  0  0  0  0  0  0  0  0  0  0  0
    0.6794   -2.3258    3.3546 H   0  0  0  0  0  0  0  0  0  0  0  0
    0.5079   -2.2066   -0.4394 H   0  0  0  0  0  0  0  0  0  0  0  0
   -1.0186   -2.9360    0.0864 H   0  0  0  0  0  0  0  0  0  0  0  0
   -0.9987   -1.2721   -0.4910 H   0  0  0  0  0  0  0  0  0  0  0  0
    2.2751    1.9993    0.5351 N   0  0  0  0  0  0  0  0  0  0  0  0
    3.2738    3.0354    0.6687 C   0  0  2  0  0  0  0  0  0  0  0  0
    3.0162    3.7709    1.9772 C   0  0  0  0  0  0  0  0  0  0  0  0
    1.9225    3.7786    2.5383 O   0  0  0  0  0  0  0  0  0  0  0  0
    3.2369    3.9949   -0.5106 C   0  0  0  0  0  0  0  0  0  0  0  0
    2.5774    1.1025    0.1663 H   0  0  0  0  0  0  0  0  0  0  0  0
    4.2461    2.5331    0.7167 H   0  0  0  0  0  0  0  0  0  0  0  0
    2.2702    4.5075   -0.5750 H   0  0  0  0  0  0  0  0  0  0  0  0
    4.0127    4.7625   -0.4220 H   0  0  0  0  0  0  0  0  0  0  0  0
    3.3927    3.4597   -1.4535 H   0  0  0  0  0  0  0  0  0  0  0  0
    4.1398    4.4534    2.4222 N   0  0  0  0  0  0  0  0  0  0  0  0
    4.1461    5.2376    3.6350 C   0  0  0  0  0  0  0  0  0  0  0  0
    5.0096    4.3756    1.9035 H   0  0  0  0  0  0  0  0  0  0  0  0
    3.8980    6.2827    3.3978 H   0  0  0  0  0  0  0  0  0  0  0  0
    3.4009    4.8341    4.3363 H   0  0  0  0  0  0  0  0  0  0  0  0
    5.1443    5.1932    4.0950 H   0  0  0  0  0  0  0  0  0  0  0  0
  1  3  1  0  0  0  0
  1  7  1  0  0  0  0
  1  2  2  0  0  0  0
 37 38  1  0  0  0  0
 38 46  1  0  0  0  0
 38 39  2  0  0  0  0
  8  9  1  0  0  0  0
  9 17  1  0  0  0  0
  9 10  2  0  0  0  0
 18 19  1  0  0  0  0
 19 36  1  0  0  0  0
 19 20  2  0  0  0  0
 37 40  1  0  0  0  0
  8 11  1  0  0  0  0
 22 23  1  0  0  0  0
 22 24  1  0  0  0  0
 46 47  1  0  0  0  0
 18 21  1  0  0  0  0
 21 22  1  0  0  0  0
 36 37  1  0  0  0  0
  7  8  1  0  0  0  0
 17 18  1  0  0  0  0
  3  4  1  0  0  0  0
  3  5  1  0  0  0  0
  3  6  1  0  0  0  0
 40 43  1  0  0  0  0
 40 44  1  0  0  0  0
 40 45  1  0  0  0  0
 11 14  1  0  0  0  0
 11 15  1  0  0  0  0
 11 16  1  0  0  0  0
 23 30  1  0  0  0  0
 23 31  1  0  0  0  0
 23 32  1  0  0  0  0
 24 33  1  0  0  0  0
 24 34  1  0  0  0  0
 24 35  1  0  0  0  0
 47 49  1  0  0  0  0
 47 50  1  0  0  0  0
 47 51  1  0  0  0  0
 21 27  1  0  0  0  0
 21 28  1  0  0  0  0
 37 42  1  0  0  0  0
  8 13  1  0  0  0  0
 18 26  1  0  0  0  0
 22 29  1  0  0  0  0
 46 48  1  0  0  0  0
  7 12  1  0  0  0  0
 36 41  1  0  0  0  0
 17 25  1  0  0  0  0
M  END
$$$$

  -OEChem-05262214473D

 51 50  0     1  0  0  0  0  0999 V2000
    3.4018   -1.2440   -3.0186 C   0  0  0  0  0  0  0  0  0  0  0  0
    3.2697   -2.0909   -2.1427 O   0  0  0  0  0  0  0  0  0  0  0  0
    4.6845   -1.1645   -3.7779 C   0  0  0  0  0  0  0  0  0  0  0  0
    5.4123   -0.4862   -3.3041 H   0  0  0  0  0  0  0  0  0  0  0  0
    5.1949   -2.1387   -3.8443 H   0  0  0  0  0  0  0  0  0  0  0  0
    4.5953   -0.8128   -4.8182 H   0  0  0  0  0  0  0  0  0  0  0  0
    2.4540   -0.3103   -3.4040 N   0  0  0  0  0  0  0  0  0  0  0  0
    1.1494   -0.2128   -2.8039 C   0  0  2  0  0  0  0  0  0  0  0  0
    1.3350    0.0367   -1.3130 C   0  0  0  0  0  0  0  0  0  0  0  0
    2.3625   -0.2586   -0.7063 O   0  0  0  0  0  0  0  0  0  0  0  0
    0.3331   -1.4728   -3.0467 C   0  0  0  0  0  0  0  0  0  0  0  0
    2.6924    0.3404   -4.1502 H   0  0  0  0  0  0  0  0  0  0  0  0
    0.6550    0.6514   -3.2607 H   0  0  0  0  0  0  0  0  0  0  0  0
    0.8129   -2.3494   -2.5963 H   0  0  0  0  0  0  0  0  0  0  0  0
   -0.6690   -1.3857   -2.6142 H   0  0  0  0  0  0  0  0  0  0  0  0
    0.2259   -1.6670   -4.1194 H   0  0  0  0  0  0  0  0  0  0  0  0
    0.2019    0.5893   -0.7269 N   0  0  0  0  0  0  0  0  0  0  0  0
    0.1242    0.9059    0.6756 C   0  0  2  0  0  0  0  0  0  0  0  0
    0.9462    2.1719    0.8964 C   0  0  0  0  0  0  0  0  0  0  0  0
    0.5699    3.0977    1.6122 O   0  0  0  0  0  0  0  0  0  0  0  0
    0.6546   -0.2315    1.5578 C   0  0  0  0  0  0  0  0  0  0  0  0
   -0.1807   -1.5273    1.5143 C   0  0  0  0  0  0  0  0  0  0  0  0
    0.5284   -2.6254    2.3119 C   0  0  0  0  0  0  0  0  0  0  0  0
   -0.4332   -2.0101    0.0854 C   0  0  0  0  0  0  0  0  0  0  0  0
   -0.5975    0.8179   -1.3140 H   0  0  0  0  0  0  0  0  0  0  0  0
   -0.9255    1.1250    0.8960 H   0  0  0  0  0  0  0  0  0  0  0  0
    0.7038    0.1202    2.5980 H   0  0  0  0  0  0  0  0  0  0  0  0
    1.6893   -0.4618    1.2714 H   0  0  0  0  0  0  0  0  0  0  0  0
   -1.1510   -1.3462    1.9925 H   0  0  0  0  0  0  0  0  0  0  0  0
    1.5088   -2.8501    1.8784 H   0  0  0  0  0  0  0  0  0  0  0  0
   -0.0575   -3.5506    2.3060 H   0  0  0  0  0  0  0  0  0  0  0  0
    0.6794   -2.3258    3.3546 H   0  0  0  0  0  0  0  0  0  0  0  0
    0.5079   -2.2066   -0.4394 H   0  0  0  0  0  0  0  0  0  0  0  0
   -1.0186   -2.9360    0.0864 H   0  0  0  0  0  0  0  0  0  0  0  0
   -0.9987   -1.2721   -0.4910 H   0  0  0  0  0  0  0  0  0  0  0  0
    2.1683    2.1200    0.2404 N   0  0  0  0  0  0  0  0  0  0  0  0
    3.1488    3.1797    0.3065 C   0  0  2  0  0  0  0  0  0  0  0  0
    3.1656    3.7167    1.7315 C   0  0  0  0  0  0  0  0  0  0  0  0
    2.2202    3.5907    2.5071 O   0  0  0  0  0  0  0  0  0  0  0  0
    2.8350    4.2867   -0.6879 C   0  0  0  0  0  0  0  0  0  0  0  0
    2.4030    1.2986   -0.3089 H   0  0  0  0  0  0  0  0  0  0  0  0
    4.1193    2.7275    0.0745 H   0  0  0  0  0  0  0  0  0  0  0  0
    1.8663    4.7517   -0.4715 H   0  0  0  0  0  0  0  0  0  0  0  0
    3.5943    5.0750   -0.6567 H   0  0  0  0  0  0  0  0  0  0  0  0
    2.7939    3.8930   -1.7092 H   0  0  0  0  0  0  0  0  0  0  0  0
    4.3436    4.3909    2.0213 N   0  0  0  0  0  0  0  0  0  0  0  0
    4.5961    5.0030    3.3049 C   0  0  0  0  0  0  0  0  0  0  0  0
    5.0814    4.4300    1.3243 H   0  0  0  0  0  0  0  0  0  0  0  0
    4.2792    6.0561    3.2783 H   0  0  0  0  0  0  0  0  0  0  0  0
    4.0304    4.4696    4.0830 H   0  0  0  0  0  0  0  0  0  0  0  0
    5.6712    4.9494    3.5315 H   0  0  0  0  0  0  0  0  0  0  0  0
  1  3  1  0  0  0  0
  1  7  1  0  0  0  0
  1  2  2  0  0  0  0
 37 38  1  0  0  0  0
 38 46  1  0  0  0  0
 38 39  2  0  0  0  0
  8  9  1  0  0  0  0
  9 17  1  0  0  0  0
  9 10  2  0  0  0  0
 18 19  1  0  0  0  0
 19 36  1  0  0  0  0
 19 20  2  0  0  0  0
 37 40  1  0  0  0  0
  8 11  1  0  0  0  0
 22 23  1  0  0  0  0
 22 24  1  0  0  0  0
 46 47  1  0  0  0  0
 18 21  1  0  0  0  0
 21 22  1  0  0  0  0
 36 37  1  0  0  0  0
  7  8  1  0  0  0  0
 17 18  1  0  0  0  0
  3  4  1  0  0  0  0
  3  5  1  0  0  0  0
  3  6  1  0  0  0  0
 40 43  1  0  0  0  0
 40 44  1  0  0  0  0
 40 45  1  0  0  0  0
 11 14  1  0  0  0  0
 11 15  1  0  0  0  0
 11 16  1  0  0  0  0
 23 30  1  0  0  0  0
 23 31  1  0  0  0  0
 23 32  1  0  0  0  0
 24 33  1  0  0  0  0
 24 34  1  0  0  0  0
 24 35  1  0  0  0  0
 47 49  1  0  0  0  0
 47 50  1  0  0  0  0
 47 51  1  0  0  0  0
 21 27  1  0  0  0  0
 21 28  1  0  0  0  0
 37 42  1  0  0  0  0
  8 13  1  0  0  0  0
 18 26  1  0  0  0  0
 22 29  1  0  0  0  0
 46 48  1  0  0  0  0
  7 12  1  0  0  0  0
 36 41  1  0  0  0  0
 17 25  1  0  0  0  0
M  END
$$$$

  -OEChem-05262214473D

 51 50  0     1  0  0  0  0  0999 V2000
    3.4018   -1.2440   -3.0186 C   0  0  0  0  0  0  0  0  0  0  0  0
    3.2697   -2.0909   -2.1427 O   0  0  0  0  0  0  0  0  0  0  0  0
    4.6845   -1.1645   -3.7779 C   0  0  0  0  0  0  0  0  0  0  0  0
    5.4123   -0.4862   -3.3041 H   0  0  0  0  0  0  0  0  0  0  0  0
    5.1949   -2.1387   -3.8443 H   0  0  0  0  0  0  0  0  0  0  0  0
    4.5953   -0.8128   -4.8182 H   0  0  0  0  0  0  0  0  0  0  0  0
    2.4540   -0.3103   -3.4040 N   0  0  0  0  0  0  0  0  0  0  0  0
    1.1494   -0.2128   -2.8039 C   0  0  2  0  0  0  0  0  0  0  0  0
    1.3350    0.0367   -1.3130 C   0  0  0  0  0  0  0  0  0  0  0  0
    2.3625   -0.2586   -0.7063 O   0  0  0  0  0  0  0  0  0  0  0  0
    0.3331   -1.4728   -3.0467 C   0  0  0  0  0  0  0  0  0  0  0  0
    2.6924    0.3404   -4.1502 H   0  0  0  0  0  0  0  0  0  0  0  0
    0.6550    0.6514   -3.2607 H   0  0  0  0  0  0  0  0  0  0  0  0
    0.8129   -2.3494   -2.5963 H   0  0  0  0  0  0  0  0  0  0  0  0
   -0.6690   -1.3857   -2.6142 H   0  0  0  0  0  0  0  0  0  0  0  0
    0.2259   -1.6670   -4.1194 H   0  0  0  0  0  0  0  0  0  0  0  0
    0.2019    0.5893   -0.7269 N   0  0  0  0  0  0  0  0  0  0  0  0
    0.1242    0.9059    0.6756 C   0  0  2  0  0  0  0  0  0  0  0  0
    0.9462    2.1719    0.8964 C   0  0  0  0  0  0  0  0  0  0  0  0
    0.7141    2.9712    1.8011 O   0  0  0  0  0  0  0  0  0  0  0  0
    0.6546   -0.2315    1.5578 C   0  0  0  0  0  0  0  0  0  0  0  0
   -0.1807   -1.5273    1.5143 C   0  0  0  0  0  0  0  0  0  0  0  0
    0.5284   -2.6254    2.3119 C   0  0  0  0  0  0  0  0  0  0  0  0
   -0.4332   -2.0101    0.0854 C   0  0  0  0  0  0  0  0  0  0  0  0
   -0.5975    0.8179   -1.3140 H   0  0  0  0  0  0  0  0  0  0  0  0
   -0.9255    1.1250    0.8960 H   0  0  0  0  0  0  0  0  0  0  0  0
    0.7038    0.1202    2.5980 H   0  0  0  0  0  0  0  0  0  0  0  0
    1.6893   -0.4618    1.2714 H   0  0  0  0  0  0  0  0  0  0  0  0
   -1.1510   -1.3462    1.9925 H   0  0  0  0  0  0  0  0  0  0  0  0
    1.5088   -2.8501    1.8784 H   0  0  0  0  0  0  0  0  0  0  0  0
   -0.0575   -3.5506    2.3060 H   0  0  0  0  0  0  0  0  0  0  0  0
    0.6794   -2.3258    3.3546 H   0  0  0  0  0  0  0  0  0  0  0  0
    0.5079   -2.2066   -0.4394 H   0  0  0  0  0  0  0  0  0  0  0  0
   -1.0186   -2.9360    0.0864 H   0  0  0  0  0  0  0  0  0  0  0  0
   -0.9987   -1.2721   -0.4910 H   0  0  0  0  0  0  0  0  0  0  0  0
    1.9973    2.2738   -0.0044 N   0  0  0  0  0  0  0  0  0  0  0  0
    2.9449    3.3649    0.0036 C   0  0  2  0  0  0  0  0  0  0  0  0
    3.2592    3.7043    1.4546 C   0  0  0  0  0  0  0  0  0  0  0  0
    2.5081    3.4248    2.3867 O   0  0  0  0  0  0  0  0  0  0  0  0
    2.3979    4.5783   -0.7321 C   0  0  0  0  0  0  0  0  0  0  0  0
    2.1251    1.5478   -0.7031 H   0  0  0  0  0  0  0  0  0  0  0  0
    3.8515    3.0001   -0.4914 H   0  0  0  0  0  0  0  0  0  0  0  0
    1.4893    4.9580   -0.2507 H   0  0  0  0  0  0  0  0  0  0  0  0
    3.1281    5.3940   -0.7499 H   0  0  0  0  0  0  0  0  0  0  0  0
    2.1444    4.3248   -1.7672 H   0  0  0  0  0  0  0  0  0  0  0  0
    4.4568    4.3941    1.5816 N   0  0  0  0  0  0  0  0  0  0  0  0
    4.9686    4.8393    2.8567 C   0  0  0  0  0  0  0  0  0  0  0  0
    5.0243    4.5661    0.7569 H   0  0  0  0  0  0  0  0  0  0  0  0
    4.6302    5.8681    3.0493 H   0  0  0  0  0  0  0  0  0  0  0  0
    4.5976    4.1764    3.6523 H   0  0  0  0  0  0  0  0  0  0  0  0
    6.0682    4.8122    2.8399 H   0  0  0  0  0  0  0  0  0  0  0  0
  1  3  1  0  0  0  0
  1  7  1  0  0  0  0
  1  2  2  0  0  0  0
 37 38  1  0  0  0  0
 38 46  1  0  0  0  0
 38 39  2  0  0  0  0
  8  9  1  0  0  0  0
  9 17  1  0  0  0  0
  9 10  2  0  0  0  0
 18 19  1  0  0  0  0
 19 36  1  0  0  0  0
 19 20  2  0  0  0  0
 37 40  1  0  0  0  0
  8 11  1  0  0  0  0
 22 23  1  0  0  0  0
 22 24  1  0  0  0  0
 46 47  1  0  0  0  0
 18 21  1  0  0  0  0
 21 22  1  0  0  0  0
 36 37  1  0  0  0  0
  7  8  1  0  0  0  0
 17 18  1  0  0  0  0
  3  4  1  0  0  0  0
  3  5  1  0  0  0  0
  3  6  1  0  0  0  0
 40 43  1  0  0  0  0
 40 44  1  0  0  0  0
 40 45  1  0  0  0  0
 11 14  1  0  0  0  0
 11 15  1  0  0  0  0
 11 16  1  0  0  0  0
 23 30  1  0  0  0  0
 23 31  1  0  0  0  0
 23 32  1  0  0  0  0
 24 33  1  0  0  0  0
 24 34  1  0  0  0  0
 24 35  1  0  0  0  0
 47 49  1  0  0  0  0
 47 50  1  0  0  0  0
 47 51  1  0  0  0  0
 21 27  1  0  0  0  0
 21 28  1  0  0  0  0
 37 42  1  0  0  0  0
  8 13  1  0  0  0  0
 18 26  1  0  0  0  0
 22 29  1  0  0  0  0
 46 48  1  0  0  0  0
  7 12  1  0  0  0  0
 36 41  1  0  0  0  0
 17 25  1  0  0  0  0
M  END
$$$$

  -OEChem-05262214473D

 51 50  0     1  0  0  0  0  0999 V2000
    3.4018   -1.2440   -3.0186 C   0  0  0  0  0  0  0  0  0  0  0  0
    3.2697   -2.0909   -2.1427 O   0  0  0  0  0  0  0  0  0  0  0  0
    4.6845   -1.1645   -3.7779 C   0  0  0  0  0  0  0  0  0  0  0  0
    5.4123   -0.4862   -3.3041 H   0  0  0  0  0  0  0  0  0  0  0  0
    5.1949   -2.1387   -3.8443 H   0  0  0  0  0  0  0  0  0  0  0  0
    4.5953   -0.8128   -4.8182 H   0  0  0  0  0  0  0  0  0  0  0  0
    2.4540   -0.3103   -3.4040 N   0  0  0  0  0  0  0  0  0  0  0  0
    1.1494   -0.2128   -2.8039 C   0  0  2  0  0  0  0  0  0  0  0  0
    1.3350    0.0367   -1.3130 C   0  0  0  0  0  0  0  0  0  0  0  0
    2.3625   -0.2586   -0.7063 O   0  0  0  0  0  0  0  0  0  0  0  0
    0.3331   -1.4728   -3.0467 C   0  0  0  0  0  0  0  0  0  0  0  0
    2.6924    0.3404   -4.1502 H   0  0  0  0  0  0  0  0  0  0  0  0
    0.6550    0.6514   -3.2607 H   0  0  0  0  0  0  0  0  0  0  0  0
    0.8129   -2.3494   -2.5963 H   0  0  0  0  0  0  0  0  0  0  0  0
   -0.6690   -1.3857   -2.6142 H   0  0  0  0  0  0  0  0  0  0  0  0
    0.2259   -1.6670   -4.1194 H   0  0  0  0  0  0  0  0  0  0  0  0
    0.2019    0.5893   -0.7269 N   0  0  0  0  0  0  0  0  0  0  0  0
    0.1242    0.9059    0.6756 C   0  0  2  0  0  0  0  0  0  0  0  0
    0.9462    2.1719    0.8964 C   0  0  0  0  0  0  0  0  0  0  0  0
    0.8987    2.8280    1.9348 O   0  0  0  0  0  0  0  0  0  0  0  0
    0.6546   -0.2315    1.5578 C   0  0  0  0  0  0  0  0  0  0  0  0
   -0.1807   -1.5273    1.5143 C   0  0  0  0  0  0  0  0  0  0  0  0
    0.5284   -2.6254    2.3119 C   0  0  0  0  0  0  0  0  0  0  0  0
   -0.4332   -2.0101    0.0854 C   0  0  0  0  0  0  0  0  0  0  0  0
   -0.5975    0.8179   -1.3140 H   0  0  0  0  0  0  0  0  0  0  0  0
   -0.9255    1.1250    0.8960 H   0  0  0  0  0  0  0  0  0  0  0  0
    0.7038    0.1202    2.5980 H   0  0  0  0  0  0  0  0  0  0  0  0
    1.6893   -0.4618    1.2714 H   0  0  0  0  0  0  0  0  0  0  0  0
   -1.1510   -1.3462    1.9925 H   0  0  0  0  0  0  0  0  0  0  0  0
    1.5088   -2.8501    1.8784 H   0  0  0  0  0  0  0  0  0  0  0  0
   -0.0575   -3.5506    2.3060 H   0  0  0  0  0  0  0  0  0  0  0  0
    0.6794   -2.3258    3.3546 H   0  0  0  0  0  0  0  0  0  0  0  0
    0.5079   -2.2066   -0.4394 H   0  0  0  0  0  0  0  0  0  0  0  0
   -1.0186   -2.9360    0.0864 H   0  0  0  0  0  0  0  0  0  0  0  0
   -0.9987   -1.2721   -0.4910 H   0  0  0  0  0  0  0  0  0  0  0  0
    1.7737    2.4500   -0.1827 N   0  0  0  0  0  0  0  0  0  0  0  0
    2.6759    3.5785   -0.2194 C   0  0  2  0  0  0  0  0  0  0  0  0
    3.2906    3.7343    1.1653 C   0  0  0  0  0  0  0  0  0  0  0  0
    2.7666    3.2921    2.1855 O   0  0  0  0  0  0  0  0  0  0  0  0
    1.9552    4.8497   -0.6403 C   0  0  0  0  0  0  0  0  0  0  0  0
    1.7626    1.8331   -0.9894 H   0  0  0  0  0  0  0  0  0  0  0  0
    3.4610    3.3323   -0.9425 H   0  0  0  0  0  0  0  0  0  0  0  0
    1.1648    5.1123    0.0723 H   0  0  0  0  0  0  0  0  0  0  0  0
    2.6457    5.6977   -0.6953 H   0  0  0  0  0  0  0  0  0  0  0  0
    1.4884    4.7257   -1.6235 H   0  0  0  0  0  0  0  0  0  0  0  0
    4.4715    4.4628    1.1331 N   0  0  0  0  0  0  0  0  0  0  0  0
    5.2384    4.7576    2.3209 C   0  0  0  0  0  0  0  0  0  0  0  0
    4.8421    4.7745    0.2402 H   0  0  0  0  0  0  0  0  0  0  0  0
    4.9272    5.7316    2.7266 H   0  0  0  0  0  0  0  0  0  0  0  0
    5.0641    3.9745    3.0735 H   0  0  0  0  0  0  0  0  0  0  0  0
    6.3083    4.7910    2.0676 H   0  0  0  0  0  0  0  0  0  0  0  0
  1  3  1  0  0  0  0
  1  7  1  0  0  0  0
  1  2  2  0  0  0  0
 37 38  1  0  0  0  0
 38 46  1  0  0  0  0
 38 39  2  0  0  0  0
  8  9  1  0  0  0  0
  9 17  1  0  0  0  0
  9 10  2  0  0  0  0
 18 19  1  0  0  0  0
 19 36  1  0  0  0  0
 19 20  2  0  0  0  0
 37 40  1  0  0  0  0
  8 11  1  0  0  0  0
 22 23  1  0  0  0  0
 22 24  1  0  0  0  0
 46 47  1  0  0  0  0
 18 21  1  0  0  0  0
 21 22  1  0  0  0  0
 36 37  1  0  0  0  0
  7  8  1  0  0  0  0
 17 18  1  0  0  0  0
  3  4  1  0  0  0  0
  3  5  1  0  0  0  0
  3  6  1  0  0  0  0
 40 43  1  0  0  0  0
 40 44  1  0  0  0  0
 40 45  1  0  0  0  0
 11 14  1  0  0  0  0
 11 15  1  0  0  0  0
 11 16  1  0  0  0  0
 23 30  1  0  0  0  0
 23 31  1  0  0  0  0
 23 32  1  0  0  0  0
 24 33  1  0  0  0  0
 24 34  1  0  0  0  0
 24 35  1  0  0  0  0
 47 49  1  0  0  0  0
 47 50  1  0  0  0  0
 47 51  1  0  0  0  0
 21 27  1  0  0  0  0
 21 28  1  0  0  0  0
 37 42  1  0  0  0  0
  8 13  1  0  0  0  0
 18 26  1  0  0  0  0
 22 29  1  0  0  0  0
 46 48  1  0  0  0  0
  7 12  1  0  0  0  0
 36 41  1  0  0  0  0
 17 25  1  0  0  0  0
M  END
$$$$

  -OEChem-05262214473D

 51 50  0     1  0  0  0  0  0999 V2000
    3.4018   -1.2440   -3.0186 C   0  0  0  0  0  0  0  0  0  0  0  0
    3.2697   -2.0909   -2.1427 O   0  0  0  0  0  0  0  0  0  0  0  0
    4.6845   -1.1645   -3.7779 C   0  0  0  0  0  0  0  0  0  0  0  0
    5.4123   -0.4862   -3.3041 H   0  0  0  0  0  0  0  0  0  0  0  0
    5.1949   -2.1387   -3.8443 H   0  0  0  0  0  0  0  0  0  0  0  0
    4.5953   -0.8128   -4.8182 H   0  0  0  0  0  0  0  0  0  0  0  0
    2.4540   -0.3103   -3.4040 N   0  0  0  0  0  0  0  0  0  0  0  0
    1.1494   -0.2128   -2.8039 C   0  0  2  0  0  0  0  0  0  0  0  0
    1.3350    0.0367   -1.3130 C   0  0  0  0  0  0  0  0  0  0  0  0
    2.3625   -0.2586   -0.7063 O   0  0  0  0  0  0  0  0  0  0  0  0
    0.3331   -1.4728   -3.0467 C   0  0  0  0  0  0  0  0  0  0  0  0
    2.6924    0.3404   -4.1502 H   0  0  0  0  0  0  0  0  0  0  0  0
    0.6550    0.6514   -3.2607 H   0  0  0  0  0  0  0  0  0  0  0  0
    0.8129   -2.3494   -2.5963 H   0  0  0  0  0  0  0  0  0  0  0  0
   -0.6690   -1.3857   -2.6142 H   0  0  0  0  0  0  0  0  0  0  0  0
    0.2259   -1.6670   -4.1194 H   0  0  0  0  0  0  0  0  0  0  0  0
    0.2019    0.5893   -0.7269 N   0  0  0  0  0  0  0  0  0  0  0  0
    0.1242    0.9059    0.6756 C   0  0  2  0  0  0  0  0  0  0  0  0
    0.9462    2.1719    0.8964 C   0  0  0  0  0  0  0  0  0  0  0  0
    1.1111    2.6780    2.0045 O   0  0  0  0  0  0  0  0  0  0  0  0
    0.6546   -0.2315    1.5578 C   0  0  0  0  0  0  0  0  0  0  0  0
   -0.1807   -1.5273    1.5143 C   0  0  0  0  0  0  0  0  0  0  0  0
    0.5284   -2.6254    2.3119 C   0  0  0  0  0  0  0  0  0  0  0  0
   -0.4332   -2.0101    0.0854 C   0  0  0  0  0  0  0  0  0  0  0  0
   -0.5975    0.8179   -1.3140 H   0  0  0  0  0  0  0  0  0  0  0  0
   -0.9255    1.1250    0.8960 H   0  0  0  0  0  0  0  0  0  0  0  0
    0.7038    0.1202    2.5980 H   0  0  0  0  0  0  0  0  0  0  0  0
    1.6893   -0.4618    1.2714 H   0  0  0  0  0  0  0  0  0  0  0  0
   -1.1510   -1.3462    1.9925 H   0  0  0  0  0  0  0  0  0  0  0  0
    1.5088   -2.8501    1.8784 H   0  0  0  0  0  0  0  0  0  0  0  0
   -0.0575   -3.5506    2.3060 H   0  0  0  0  0  0  0  0  0  0  0  0
    0.6794   -2.3258    3.3546 H   0  0  0  0  0  0  0  0  0  0  0  0
    0.5079   -2.2066   -0.4394 H   0  0  0  0  0  0  0  0  0  0  0  0
   -1.0186   -2.9360    0.0864 H   0  0  0  0  0  0  0  0  0  0  0  0
   -0.9987   -1.2721   -0.4910 H   0  0  0  0  0  0  0  0  0  0  0  0
    1.5129    2.6367   -0.2823 N   0  0  0  0  0  0  0  0  0  0  0  0
    2.3602    3.8057   -0.3472 C   0  0  2  0  0  0  0  0  0  0  0  0
    3.2577    3.8049    0.8833 C   0  0  0  0  0  0  0  0  0  0  0  0
    2.9780    3.2016    1.9171 O   0  0  0  0  0  0  0  0  0  0  0  0
    1.5371    5.0825   -0.4187 C   0  0  0  0  0  0  0  0  0  0  0  0
    1.3403    2.1350   -1.1483 H   0  0  0  0  0  0  0  0  0  0  0  0
    2.9746    3.7014   -1.2481 H   0  0  0  0  0  0  0  0  0  0  0  0
    0.9150    5.2042    0.4755 H   0  0  0  0  0  0  0  0  0  0  0  0
    2.1802    5.9653   -0.4966 H   0  0  0  0  0  0  0  0  0  0  0  0
    0.8706    5.0683   -1.2878 H   0  0  0  0  0  0  0  0  0  0  0  0
    4.3868    4.5922    0.7062 N   0  0  0  0  0  0  0  0  0  0  0  0
    5.3869    4.7635    1.7341 C   0  0  0  0  0  0  0  0  0  0  0  0
    4.5474    5.0410   -0.1908 H   0  0  0  0  0  0  0  0  0  0  0  0
    5.1498    5.6558    2.3320 H   0  0  0  0  0  0  0  0  0  0  0  0
    5.3978    3.8777    2.3861 H   0  0  0  0  0  0  0  0  0  0  0  0
    6.3751    4.8873    1.2670 H   0  0  0  0  0  0  0  0  0  0  0  0
  1  3  1  0  0  0  0
  1  7  1  0  0  0  0
  1  2  2  0  0  0  0
 37 38  1  0  0  0  0
 38 46  1  0  0  0  0
 38 39  2  0  0  0  0
  8  9  1  0  0  0  0
  9 17  1  0  0  0  0
  9 10  2  0  0  0  0
 18 19  1  0  0  0  0
 19 36  1  0  0  0  0
 19 20  2  0  0  0  0
 37 40  1  0  0  0  0
  8 11  1  0  0  0  0
 22 23  1  0  0  0  0
 22 24  1  0  0  0  0
 46 47  1  0  0  0  0
 18 21  1  0  0  0  0
 21 22  1  0  0  0  0
 36 37  1  0  0  0  0
  7  8  1  0  0  0  0
 17 18  1  0  0  0  0
  3  4  1  0  0  0  0
  3  5  1  0  0  0  0
  3  6  1  0  0  0  0
 40 43  1  0  0  0  0
 40 44  1  0  0  0  0
 40 45  1  0  0  0  0
 11 14  1  0  0  0  0
 11 15  1  0  0  0  0
 11 16  1  0  0  0  0
 23 30  1  0  0  0  0
 23 31  1  0  0  0  0
 23 32  1  0  0  0  0
 24 33  1  0  0  0  0
 24 34  1  0  0  0  0
 24 35  1  0  0  0  0
 47 49  1  0  0  0  0
 47 50  1  0  0  0  0
 47 51  1  0  0  0  0
 21 27  1  0  0  0  0
 21 28  1  0  0  0  0
 37 42  1  0  0  0  0
  8 13  1  0  0  0  0
 18 26  1  0  0  0  0
 22 29  1  0  0  0  0
 46 48  1  0  0  0  0
  7 12  1  0  0  0  0
 36 41  1  0  0  0  0
 17 25  1  0  0  0  0
M  END
$$$$

  -OEChem-05262214473D

 51 50  0     1  0  0  0  0  0999 V2000
    3.4018   -1.2440   -3.0186 C   0  0  0  0  0  0  0  0  0  0  0  0
    3.2697   -2.0909   -2.1427 O   0  0  0  0  0  0  0  0  0  0  0  0
    4.6845   -1.1645   -3.7779 C   0  0  0  0  0  0  0  0  0  0  0  0
    5.4123   -0.4862   -3.3041 H   0  0  0  0  0  0  0  0  0  0  0  0
    5.1949   -2.1387   -3.8443 H   0  0  0  0  0  0  0  0  0  0  0  0
    4.5953   -0.8128   -4.8182 H   0  0  0  0  0  0  0  0  0  0  0  0
    2.4540   -0.3103   -3.4040 N   0  0  0  0  0  0  0  0  0  0  0  0
    1.1494   -0.2128   -2.8039 C   0  0  2  0  0  0  0  0  0  0  0  0
    1.3350    0.0367   -1.3130 C   0  0  0  0  0  0  0  0  0  0  0  0
    2.3625   -0.2586   -0.7063 O   0  0  0  0  0  0  0  0  0  0  0  0
    0.3331   -1.4728   -3.0467 C   0  0  0  0  0  0  0  0  0  0  0  0
    2.6924    0.3404   -4.1502 H   0  0  0  0  0  0  0  0  0  0  0  0
    0.6550    0.6514   -3.2607 H   0  0  0  0  0  0  0  0  0  0  0  0
    0.8129   -2.3494   -2.5963 H   0  0  0  0  0  0  0  0  0  0  0  0
   -0.6690   -1.3857   -2.6142 H   0  0  0  0  0  0  0  0  0  0  0  0
    0.2259   -1.6670   -4.1194 H   0  0  0  0  0  0  0  0  0  0  0  0
    0.2019    0.5893   -0.7269 N   0  0  0  0  0  0  0  0  0  0  0  0
    0.1242    0.9059    0.6756 C   0  0  2  0  0  0  0  0  0  0  0  0
    0.9462    2.1719    0.8964 C   0  0  0  0  0  0  0  0  0  0  0  0
    1.3368    2.5313    2.0052 O   0  0  0  0  0  0  0  0  0  0  0  0
    0.6546   -0.2315    1.5578 C   0  0  0  0  0  0  0  0  0  0  0  0
   -0.1807   -1.5273    1.5143 C   0  0  0  0  0  0  0  0  0  0  0  0
    0.5284   -2.6254    2.3119 C   0  0  0  0  0  0  0  0  0  0  0  0
   -0.4332   -2.0101    0.0854 C   0  0  0  0  0  0  0  0  0  0  0  0
   -0.5975    0.8179   -1.3140 H   0  0  0  0  0  0  0  0  0  0  0  0
   -0.9255    1.1250    0.8960 H   0  0  0  0  0  0  0  0  0  0  0  0
    0.7038    0.1202    2.5980 H   0  0  0  0  0  0  0  0  0  0  0  0
    1.6893   -0.4618    1.2714 H   0  0  0  0  0  0  0  0  0  0  0  0
   -1.1510   -1.3462    1.9925 H   0  0  0  0  0  0  0  0  0  0  0  0
    1.5088   -2.8501    1.8784 H   0  0  0  0  0  0  0  0  0  0  0  0
   -0.0575   -3.5506    2.3060 H   0  0  0  0  0  0  0  0  0  0  0  0
    0.6794   -2.3258    3.3546 H   0  0  0  0  0  0  0  0  0  0  0  0
    0.5079   -2.2066   -0.4394 H   0  0  0  0  0  0  0  0  0  0  0  0
   -1.0186   -2.9360    0.0864 H   0  0  0  0  0  0  0  0  0  0  0  0
   -0.9987   -1.2721   -0.4910 H   0  0  0  0  0  0  0  0  0  0  0  0
    1.2326    2.8212   -0.2965 N   0  0  0  0  0  0  0  0  0  0  0  0
    2.0193    4.0312   -0.3711 C   0  0  2  0  0  0  0  0  0  0  0  0
    3.1627    3.9112    0.6278 C   0  0  0  0  0  0  0  0  0  0  0  0
    3.1280    3.1596    1.5999 O   0  0  0  0  0  0  0  0  0  0  0  0
    1.1722    5.2607   -0.0824 C   0  0  0  0  0  0  0  0  0  0  0  0
    0.8870    2.4329   -1.1691 H   0  0  0  0  0  0  0  0  0  0  0  0
    2.4252    4.0824   -1.3873 H   0  0  0  0  0  0  0  0  0  0  0  0
    0.7568    5.2274    0.9315 H   0  0  0  0  0  0  0  0  0  0  0  0
    1.7632    6.1787   -0.1673 H   0  0  0  0  0  0  0  0  0  0  0  0
    0.3331    5.3293   -0.7832 H   0  0  0  0  0  0  0  0  0  0  0  0
    4.2085    4.7736    0.3301 N   0  0  0  0  0  0  0  0  0  0  0  0
    5.4041    4.8567    1.1361 C   0  0  0  0  0  0  0  0  0  0  0  0
    4.1602    5.3475   -0.5066 H   0  0  0  0  0  0  0  0  0  0  0  0
    5.2829    5.6461    1.8925 H   0  0  0  0  0  0  0  0  0  0  0  0
    5.5762    3.8925    1.6369 H   0  0  0  0  0  0  0  0  0  0  0  0
    6.2641    5.0944    0.4928 H   0  0  0  0  0  0  0  0  0  0  0  0
  1  3  1  0  0  0  0
  1  7  1  0  0  0  0
  1  2  2  0  0  0  0
 37 38  1  0  0  0  0
 38 46  1  0  0  0  0
 38 39  2  0  0  0  0
  8  9  1  0  0  0  0
  9 17  1  0  0  0  0
  9 10  2  0  0  0  0
 18 19  1  0  0  0  0
 19 36  1  0  0  0  0
 19 20  2  0  0  0  0
 37 40  1  0  0  0  0
  8 11  1  0  0  0  0
 22 23  1  0  0  0  0
 22 24  1  0  0  0  0
 46 47  1  0  0  0  0
 18 21  1  0  0  0  0
 21 22  1  0  0  0  0
 36 37  1  0  0  0  0
  7  8  1  0  0  0  0
 17 18  1  0  0  0  0
  3  4  1  0  0  0  0
  3  5  1  0  0  0  0
  3  6  1  0  0  0  0
 40 43  1  0  0  0  0
 40 44  1  0  0  0  0
 40 45  1  0  0  0  0
 11 14  1  0  0  0  0
 11 15  1  0  0  0  0
 11 16  1  0  0  0  0
 23 30  1  0  0  0  0
 23 31  1  0  0  0  0
 23 32  1  0  0  0  0
 24 33  1  0  0  0  0
 24 34  1  0  0  0  0
 24 35  1  0  0  0  0
 47 49  1  0  0  0  0
 47 50  1  0  0  0  0
 47 51  1  0  0  0  0
 21 27  1  0  0  0  0
 21 28  1  0  0  0  0
 37 42  1  0  0  0  0
  8 13  1  0  0  0  0
 18 26  1  0  0  0  0
 22 29  1  0  0  0  0
 46 48  1  0  0  0  0
  7 12  1  0  0  0  0
 36 41  1  0  0  0  0
 17 25  1  0  0  0  0
M  END
$$$$

  -OEChem-05262214473D

 51 50  0     1  0  0  0  0  0999 V2000
    3.4018   -1.2440   -3.0186 C   0  0  0  0  0  0  0  0  0  0  0  0
    3.2697   -2.0909   -2.1427 O   0  0  0  0  0  0  0  0  0  0  0  0
    4.6845   -1.1645   -3.7779 C   0  0  0  0  0  0  0  0  0  0  0  0
    5.4123   -0.4862   -3.3041 H   0  0  0  0  0  0  0  0  0  0  0  0
    5.1949   -2.1387   -3.8443 H   0  0  0  0  0  0  0  0  0  0  0  0
    4.5953   -0.8128   -4.8182 H   0  0  0  0  0  0  0  0  0  0  0  0
    2.4540   -0.3103   -3.4040 N   0  0  0  0  0  0  0  0  0  0  0  0
    1.1494   -0.2128   -2.8039 C   0  0  2  0  0  0  0  0  0  0  0  0
    1.3350    0.0367   -1.3130 C   0  0  0  0  0  0  0  0  0  0  0  0
    2.3625   -0.2586   -0.7063 O   0  0  0  0  0  0  0  0  0  0  0  0
    0.3331   -1.4728   -3.0467 C   0  0  0  0  0  0  0  0  0  0  0  0
    2.6924    0.3404   -4.1502 H   0  0  0  0  0  0  0  0  0  0  0  0
    0.6550    0.6514   -3.2607 H   0  0  0  0  0  0  0  0  0  0  0  0
    0.8129   -2.3494   -2.5963 H   0  0  0  0  0  0  0  0  0  0  0  0
   -0.6690   -1.3857   -2.6142 H   0  0  0  0  0  0  0  0  0  0  0  0
    0.2259   -1.6670   -4.1194 H   0  0  0  0  0  0  0  0  0  0  0  0
    0.2019    0.5893   -0.7269 N   0  0  0  0  0  0  0  0  0  0  0  0
    0.1242    0.9059    0.6756 C   0  0  2  0  0  0  0  0  0  0  0  0
    0.9462    2.1719    0.8964 C   0  0  0  0  0  0  0  0  0  0  0  0
    1.5605    2.3980    1.9369 O   0  0  0  0  0  0  0  0  0  0  0  0
    0.6546   -0.2315    1.5578 C   0  0  0  0  0  0  0  0  0  0  0  0
   -0.1807   -1.5273    1.5143 C   0  0  0  0  0  0  0  0  0  0  0  0
    0.5284   -2.6254    2.3119 C   0  0  0  0  0  0  0  0  0  0  0  0
   -0.4332   -2.0101    0.0854 C   0  0  0  0  0  0  0  0  0  0  0  0
   -0.5975    0.8179   -1.3140 H   0  0  0  0  0  0  0  0  0  0  0  0
   -0.9255    1.1250    0.8960 H   0  0  0  0  0  0  0  0  0  0  0  0
    0.7038    0.1202    2.5980 H   0  0  0  0  0  0  0  0  0  0  0  0
    1.6893   -0.4618    1.2714 H   0  0  0  0  0  0  0  0  0  0  0  0
   -1.1510   -1.3462    1.9925 H   0  0  0  0  0  0  0  0  0  0  0  0
    1.5088   -2.8501    1.8784 H   0  0  0  0  0  0  0  0  0  0  0  0
   -0.0575   -3.5506    2.3060 H   0  0  0  0  0  0  0  0  0  0  0  0
    0.6794   -2.3258    3.3546 H   0  0  0  0  0  0  0  0  0  0  0  0
    0.5079   -2.2066   -0.4394 H   0  0  0  0  0  0  0  0  0  0  0  0
   -1.0186   -2.9360    0.0864 H   0  0  0  0  0  0  0  0  0  0  0  0
   -0.9987   -1.2721   -0.4910 H   0  0  0  0  0  0  0  0  0  0  0  0
    0.9518    2.9909   -0.2242 N   0  0  0  0  0  0  0  0  0  0  0  0
    1.6764    4.2396   -0.2896 C   0  0  2  0  0  0  0  0  0  0  0  0
    3.0120    4.0459    0.4162 C   0  0  0  0  0  0  0  0  0  0  0  0
    3.2062    3.1688    1.2554 O   0  0  0  0  0  0  0  0  0  0  0  0
    0.8852    5.3724    0.3457 C   0  0  0  0  0  0  0  0  0  0  0  0
    0.4335    2.7066   -1.0501 H   0  0  0  0  0  0  0  0  0  0  0  0
    1.8504    4.4492   -1.3506 H   0  0  0  0  0  0  0  0  0  0  0  0
    0.7011    5.1802    1.4091 H   0  0  0  0  0  0  0  0  0  0  0  0
    1.4231    6.3232    0.2700 H   0  0  0  0  0  0  0  0  0  0  0  0
   -0.0874    5.4908   -0.1438 H   0  0  0  0  0  0  0  0  0  0  0  0
    3.9486    4.9946    0.0304 N   0  0  0  0  0  0  0  0  0  0  0  0
    5.2887    5.0306    0.5679 C   0  0  0  0  0  0  0  0  0  0  0  0
    3.7068    5.6731   -0.6857 H   0  0  0  0  0  0  0  0  0  0  0  0
    5.3174    5.7029    1.4381 H   0  0  0  0  0  0  0  0  0  0  0  0
    5.5870    4.0180    0.8770 H   0  0  0  0  0  0  0  0  0  0  0  0
    5.9828    5.3983   -0.2023 H   0  0  0  0  0  0  0  0  0  0  0  0
  1  3  1  0  0  0  0
  1  7  1  0  0  0  0
  1  2  2  0  0  0  0
 37 38  1  0  0  0  0
 38 46  1  0  0  0  0
 38 39  2  0  0  0  0
  8  9  1  0  0  0  0
  9 17  1  0  0  0  0
  9 10  2  0  0  0  0
 18 19  1  0  0  0  0
 19 36  1  0  0  0  0
 19 20  2  0  0  0  0
 37 40  1  0  0  0  0
  8 11  1  0  0  0  0
 22 23  1  0  0  0  0
 22 24  1  0  0  0  0
 46 47  1  0  0  0  0
 18 21  1  0  0  0  0
 21 22  1  0  0  0  0
 36 37  1  0  0  0  0
  7  8  1  0  0  0  0
 17 18  1  0  0  0  0
  3  4  1  0  0  0  0
  3  5  1  0  0  0  0
  3  6  1  0  0  0  0
 40 43  1  0  0  0  0
 40 44  1  0  0  0  0
 40 45  1  0  0  0  0
 11 14  1  0  0  0  0
 11 15  1  0  0  0  0
 11 16  1  0  0  0  0
 23 30  1  0  0  0  0
 23 31  1  0  0  0  0
 23 32  1  0  0  0  0
 24 33  1  0  0  0  0
 24 34  1  0  0  0  0
 24 35  1  0  0  0  0
 47 49  1  0  0  0  0
 47 50  1  0  0  0  0
 47 51  1  0  0  0  0
 21 27  1  0  0  0  0
 21 28  1  0  0  0  0
 37 42  1  0  0  0  0
  8 13  1  0  0  0  0
 18 26  1  0  0  0  0
 22 29  1  0  0  0  0
 46 48  1  0  0  0  0
  7 12  1  0  0  0  0
 36 41  1  0  0  0  0
 17 25  1  0  0  0  0
M  END
$$$$

  -OEChem-05262214473D

 51 50  0     1  0  0  0  0  0999 V2000
    3.4018   -1.2440   -3.0186 C   0  0  0  0  0  0  0  0  0  0  0  0
    3.2697   -2.0909   -2.1427 O   0  0  0  0  0  0  0  0  0  0  0  0
    4.6845   -1.1645   -3.7779 C   0  0  0  0  0  0  0  0  0  0  0  0
    5.4123   -0.4862   -3.3041 H   0  0  0  0  0  0  0  0  0  0  0  0
    5.1949   -2.1387   -3.8443 H   0  0  0  0  0  0  0  0  0  0  0  0
    4.5953   -0.8128   -4.8182 H   0  0  0  0  0  0  0  0  0  0  0  0
    2.4540   -0.3103   -3.4040 N   0  0  0  0  0  0  0  0  0  0  0  0
    1.1494   -0.2128   -2.8039 C   0  0  2  0  0  0  0  0  0  0  0  0
    1.3350    0.0367   -1.3130 C   0  0  0  0  0  0  0  0  0  0  0  0
    2.3625   -0.2586   -0.7063 O   0  0  0  0  0  0  0  0  0  0  0  0
    0.3331   -1.4728   -3.0467 C   0  0  0  0  0  0  0  0  0  0  0  0
    2.6924    0.3404   -4.1502 H   0  0  0  0  0  0  0  0  0  0  0  0
    0.6550    0.6514   -3.2607 H   0  0  0  0  0  0  0  0  0  0  0  0
    0.8129   -2.3494   -2.5963 H   0  0  0  0  0  0  0  0  0  0  0  0
   -0.6690   -1.3857   -2.6142 H   0  0  0  0  0  0  0  0  0  0  0  0
    0.2259   -1.6670   -4.1194 H   0  0  0  0  0  0  0  0  0  0  0  0
    0.2019    0.5893   -0.7269 N   0  0  0  0  0  0  0  0  0  0  0  0
    0.1242    0.9059    0.6756 C   0  0  2  0  0  0  0  0  0  0  0  0
    0.9462    2.1719    0.8964 C   0  0  0  0  0  0  0  0  0  0  0  0
    1.7668    2.2871    1.8043 O   0  0  0  0  0  0  0  0  0  0  0  0
    0.6546   -0.2315    1.5578 C   0  0  0  0  0  0  0  0  0  0  0  0
   -0.1807   -1.5273    1.5143 C   0  0  0  0  0  0  0  0  0  0  0  0
    0.5284   -2.6254    2.3119 C   0  0  0  0  0  0  0  0  0  0  0  0
   -0.4332   -2.0101    0.0854 C   0  0  0  0  0  0  0  0  0  0  0  0
   -0.5975    0.8179   -1.3140 H   0  0  0  0  0  0  0  0  0  0  0  0
   -0.9255    1.1250    0.8960 H   0  0  0  0  0  0  0  0  0  0  0  0
    0.7038    0.1202    2.5980 H   0  0  0  0  0  0  0  0  0  0  0  0
    1.6893   -0.4618    1.2714 H   0  0  0  0  0  0  0  0  0  0  0  0
   -1.1510   -1.3462    1.9925 H   0  0  0  0  0  0  0  0  0  0  0  0
    1.5088   -2.8501    1.8784 H   0  0  0  0  0  0  0  0  0  0  0  0
   -0.0575   -3.5506    2.3060 H   0  0  0  0  0  0  0  0  0  0  0  0
    0.6794   -2.3258    3.3546 H   0  0  0  0  0  0  0  0  0  0  0  0
    0.5079   -2.2066   -0.4394 H   0  0  0  0  0  0  0  0  0  0  0  0
   -1.0186   -2.9360    0.0864 H   0  0  0  0  0  0  0  0  0  0  0  0
   -0.9987   -1.2721   -0.4910 H   0  0  0  0  0  0  0  0  0  0  0  0
    0.6898    3.1342   -0.0705 N   0  0  0  0  0  0  0  0  0  0  0  0
    1.3549    4.4167   -0.1081 C   0  0  2  0  0  0  0  0  0  0  0  0
    2.8160    4.1999    0.2630 C   0  0  0  0  0  0  0  0  0  0  0  0
    3.2075    3.2288    0.9070 O   0  0  0  0  0  0  0  0  0  0  0  0
    0.6959    5.4098    0.8365 C   0  0  0  0  0  0  0  0  0  0  0  0
    0.0108    2.9374   -0.7997 H   0  0  0  0  0  0  0  0  0  0  0  0
    1.2894    4.7768   -1.1406 H   0  0  0  0  0  0  0  0  0  0  0  0
    0.7517    5.0660    1.8758 H   0  0  0  0  0  0  0  0  0  0  0  0
    1.1831    6.3891    0.7857 H   0  0  0  0  0  0  0  0  0  0  0  0
   -0.3624    5.5420    0.5866 H   0  0  0  0  0  0  0  0  0  0  0  0
    3.6250    5.2401   -0.1724 N   0  0  0  0  0  0  0  0  0  0  0  0
    5.0488    5.2736    0.0680 C   0  0  0  0  0  0  0  0  0  0  0  0
    3.2182    5.9956   -0.7160 H   0  0  0  0  0  0  0  0  0  0  0  0
    5.2510    5.8225    0.9996 H   0  0  0  0  0  0  0  0  0  0  0  0
    5.4296    4.2456    0.1582 H   0  0  0  0  0  0  0  0  0  0  0  0
    5.5504    5.7782   -0.7710 H   0  0  0  0  0  0  0  0  0  0  0  0
  1  3  1  0  0  0  0
  1  7  1  0  0  0  0
  1  2  2  0  0  0  0
 37 38  1  0  0  0  0
 38 46  1  0  0  0  0
 38 39  2  0  0  0  0
  8  9  1  0  0  0  0
  9 17  1  0  0  0  0
  9 10  2  0  0  0  0
 18 19  1  0  0  0  0
 19 36  1  0  0  0  0
 19 20  2  0  0  0  0
 37 40  1  0  0  0  0
  8 11  1  0  0  0  0
 22 23  1  0  0  0  0
 22 24  1  0  0  0  0
 46 47  1  0  0  0  0
 18 21  1  0  0  0  0
 21 22  1  0  0  0  0
 36 37  1  0  0  0  0
  7  8  1  0  0  0  0
 17 18  1  0  0  0  0
  3  4  1  0  0  0  0
  3  5  1  0  0  0  0
  3  6  1  0  0  0  0
 40 43  1  0  0  0  0
 40 44  1  0  0  0  0
 40 45  1  0  0  0  0
 11 14  1  0  0  0  0
 11 15  1  0  0  0  0
 11 16  1  0  0  0  0
 23 30  1  0  0  0  0
 23 31  1  0  0  0  0
 23 32  1  0  0  0  0
 24 33  1  0  0  0  0
 24 34  1  0  0  0  0
 24 35  1  0  0  0  0
 47 49  1  0  0  0  0
 47 50  1  0  0  0  0
 47 51  1  0  0  0  0
 21 27  1  0  0  0  0
 21 28  1  0  0  0  0
 37 42  1  0  0  0  0
  8 13  1  0  0  0  0
 18 26  1  0  0  0  0
 22 29  1  0  0  0  0
 46 48  1  0  0  0  0
  7 12  1  0  0  0  0
 36 41  1  0  0  0  0
 17 25  1  0  0  0  0
M  END
$$$$

  -OEChem-05262214473D

 51 50  0     1  0  0  0  0  0999 V2000
    3.4018   -1.2440   -3.0186 C   0  0  0  0  0  0  0  0  0  0  0  0
    3.2697   -2.0909   -2.1427 O   0  0  0  0  0  0  0  0  0  0  0  0
    4.6845   -1.1645   -3.7779 C   0  0  0  0  0  0  0  0  0  0  0  0
    5.4123   -0.4862   -3.3041 H   0  0  0  0  0  0  0  0  0  0  0  0
    5.1949   -2.1387   -3.8443 H   0  0  0  0  0  0  0  0  0  0  0  0
    4.5953   -0.8128   -4.8182 H   0  0  0  0  0  0  0  0  0  0  0  0
    2.4540   -0.3103   -3.4040 N   0  0  0  0  0  0  0  0  0  0  0  0
    1.1494   -0.2128   -2.8039 C   0  0  2  0  0  0  0  0  0  0  0  0
    1.3350    0.0367   -1.3130 C   0  0  0  0  0  0  0  0  0  0  0  0
    2.3625   -0.2586   -0.7063 O   0  0  0  0  0  0  0  0  0  0  0  0
    0.3331   -1.4728   -3.0467 C   0  0  0  0  0  0  0  0  0  0  0  0
    2.6924    0.3404   -4.1502 H   0  0  0  0  0  0  0  0  0  0  0  0
    0.6550    0.6514   -3.2607 H   0  0  0  0  0  0  0  0  0  0  0  0
    0.8129   -2.3494   -2.5963 H   0  0  0  0  0  0  0  0  0  0  0  0
   -0.6690   -1.3857   -2.6142 H   0  0  0  0  0  0  0  0  0  0  0  0
    0.2259   -1.6670   -4.1194 H   0  0  0  0  0  0  0  0  0  0  0  0
    0.2019    0.5893   -0.7269 N   0  0  0  0  0  0  0  0  0  0  0  0
    0.1242    0.9059    0.6756 C   0  0  2  0  0  0  0  0  0  0  0  0
    0.9462    2.1719    0.8964 C   0  0  0  0  0  0  0  0  0  0  0  0
    1.9419    2.2062    1.6165 O   0  0  0  0  0  0  0  0  0  0  0  0
    0.6546   -0.2315    1.5578 C   0  0  0  0  0  0  0  0  0  0  0  0
   -0.1807   -1.5273    1.5143 C   0  0  0  0  0  0  0  0  0  0  0  0
    0.5284   -2.6254    2.3119 C   0  0  0  0  0  0  0  0  0  0  0  0
   -0.4332   -2.0101    0.0854 C   0  0  0  0  0  0  0  0  0  0  0  0
   -0.5975    0.8179   -1.3140 H   0  0  0  0  0  0  0  0  0  0  0  0
   -0.9255    1.1250    0.8960 H   0  0  0  0  0  0  0  0  0  0  0  0
    0.7038    0.1202    2.5980 H   0  0  0  0  0  0  0  0  0  0  0  0
    1.6893   -0.4618    1.2714 H   0  0  0  0  0  0  0  0  0  0  0  0
   -1.1510   -1.3462    1.9925 H   0  0  0  0  0  0  0  0  0  0  0  0
    1.5088   -2.8501    1.8784 H   0  0  0  0  0  0  0  0  0  0  0  0
   -0.0575   -3.5506    2.3060 H   0  0  0  0  0  0  0  0  0  0  0  0
    0.6794   -2.3258    3.3546 H   0  0  0  0  0  0  0  0  0  0  0  0
    0.5079   -2.2066   -0.4394 H   0  0  0  0  0  0  0  0  0  0  0  0
   -1.0186   -2.9360    0.0864 H   0  0  0  0  0  0  0  0  0  0  0  0
   -0.9987   -1.2721   -0.4910 H   0  0  0  0  0  0  0  0  0  0  0  0
    0.4644    3.2414    0.1543 N   0  0  0  0  0  0  0  0  0  0  0  0
    1.0768    4.5504    0.1610 C   0  0  2  0  0  0  0  0  0  0  0  0
    2.5880    4.3626    0.1786 C   0  0  0  0  0  0  0  0  0  0  0  0
    3.1317    3.3353    0.5787 O   0  0  0  0  0  0  0  0  0  0  0  0
    0.6169    5.3703    1.3564 C   0  0  0  0  0  0  0  0  0  0  0  0
   -0.3524    3.1096   -0.4348 H   0  0  0  0  0  0  0  0  0  0  0  0
    0.7802    5.0430   -0.7715 H   0  0  0  0  0  0  0  0  0  0  0  0
    0.9051    4.8925    2.2998 H   0  0  0  0  0  0  0  0  0  0  0  0
    1.0596    6.3718    1.3445 H   0  0  0  0  0  0  0  0  0  0  0  0
   -0.4730    5.4792    1.3583 H   0  0  0  0  0  0  0  0  0  0  0  0
    3.2597    5.4934   -0.2646 N   0  0  0  0  0  0  0  0  0  0  0  0
    4.7005    5.5691   -0.3294 C   0  0  0  0  0  0  0  0  0  0  0  0
    2.7277    6.2930   -0.5953 H   0  0  0  0  0  0  0  0  0  0  0  0
    5.0883    5.9966    0.6070 H   0  0  0  0  0  0  0  0  0  0  0  0
    5.1146    4.5598   -0.4706 H   0  0  0  0  0  0  0  0  0  0  0  0
    4.9963    6.2083   -1.1743 H   0  0  0  0  0  0  0  0  0  0  0  0
  1  3  1  0  0  0  0
  1  7  1  0  0  0  0
  1  2  2  0  0  0  0
 37 38  1  0  0  0  0
 38 46  1  0  0  0  0
 38 39  2  0  0  0  0
  8  9  1  0  0  0  0
  9 17  1  0  0  0  0
  9 10  2  0  0  0  0
 18 19  1  0  0  0  0
 19 36  1  0  0  0  0
 19 20  2  0  0  0  0
 37 40  1  0  0  0  0
  8 11  1  0  0  0  0
 22 23  1  0  0  0  0
 22 24  1  0  0  0  0
 46 47  1  0  0  0  0
 18 21  1  0  0  0  0
 21 22  1  0  0  0  0
 36 37  1  0  0  0  0
  7  8  1  0  0  0  0
 17 18  1  0  0  0  0
  3  4  1  0  0  0  0
  3  5  1  0  0  0  0
  3  6  1  0  0  0  0
 40 43  1  0  0  0  0
 40 44  1  0  0  0  0
 40 45  1  0  0  0  0
 11 14  1  0  0  0  0
 11 15  1  0  0  0  0
 11 16  1  0  0  0  0
 23 30  1  0  0  0  0
 23 31  1  0  0  0  0
 23 32  1  0  0  0  0
 24 33  1  0  0  0  0
 24 34  1  0  0  0  0
 24 35  1  0  0  0  0
 47 49  1  0  0  0  0
 47 50  1  0  0  0  0
 47 51  1  0  0  0  0
 21 27  1  0  0  0  0
 21 28  1  0  0  0  0
 37 42  1  0  0  0  0
  8 13  1  0  0  0  0
 18 26  1  0  0  0  0
 22 29  1  0  0  0  0
 46 48  1  0  0  0  0
  7 12  1  0  0  0  0
 36 41  1  0  0  0  0
 17 25  1  0  0  0  0
M  END
$$$$

  -OEChem-05262214473D

 51 50  0     1  0  0  0  0  0999 V2000
    3.4018   -1.2440   -3.0186 C   0  0  0  0  0  0  0  0  0  0  0  0
    3.2697   -2.0909   -2.1427 O   0  0  0  0  0  0  0  0  0  0  0  0
    4.6845   -1.1645   -3.7779 C   0  0  0  0  0  0  0  0  0  0  0  0
    5.4123   -0.4862   -3.3041 H   0  0  0  0  0  0  0  0  0  0  0  0
    5.1949   -2.1387   -3.8443 H   0  0  0  0  0  0  0  0  0  0  0  0
    4.5953   -0.8128   -4.8182 H   0  0  0  0  0  0  0  0  0  0  0  0
    2.4540   -0.3103   -3.4040 N   0  0  0  0  0  0  0  0  0  0  0  0
    1.1494   -0.2128   -2.8039 C   0  0  2  0  0  0  0  0  0  0  0  0
    1.3350    0.0367   -1.3130 C   0  0  0  0  0  0  0  0  0  0  0  0
    2.3625   -0.2586   -0.7063 O   0  0  0  0  0  0  0  0  0  0  0  0
    0.3331   -1.4728   -3.0467 C   0  0  0  0  0  0  0  0  0  0  0  0
    2.6924    0.3404   -4.1502 H   0  0  0  0  0  0  0  0  0  0  0  0
    0.6550    0.6514   -3.2607 H   0  0  0  0  0  0  0  0  0  0  0  0
    0.8129   -2.3494   -2.5963 H   0  0  0  0  0  0  0  0  0  0  0  0
   -0.6690   -1.3857   -2.6142 H   0  0  0  0  0  0  0  0  0  0  0  0
    0.2259   -1.6670   -4.1194 H   0  0  0  0  0  0  0  0  0  0  0  0
    0.2019    0.5893   -0.7269 N   0  0  0  0  0  0  0  0  0  0  0  0
    0.1242    0.9059    0.6756 C   0  0  2  0  0  0  0  0  0  0  0  0
    0.9462    2.1719    0.8964 C   0  0  0  0  0  0  0  0  0  0  0  0
    2.0736    2.1608    1.3862 O   0  0  0  0  0  0  0  0  0  0  0  0
    0.6546   -0.2315    1.5578 C   0  0  0  0  0  0  0  0  0  0  0  0
   -0.1807   -1.5273    1.5143 C   0  0  0  0  0  0  0  0  0  0  0  0
    0.5284   -2.6254    2.3119 C   0  0  0  0  0  0  0  0  0  0  0  0
   -0.4332   -2.0101    0.0854 C   0  0  0  0  0  0  0  0  0  0  0  0
   -0.5975    0.8179   -1.3140 H   0  0  0  0  0  0  0  0  0  0  0  0
   -0.9255    1.1250    0.8960 H   0  0  0  0  0  0  0  0  0  0  0  0
    0.7038    0.1202    2.5980 H   0  0  0  0  0  0  0  0  0  0  0  0
    1.6893   -0.4618    1.2714 H   0  0  0  0  0  0  0  0  0  0  0  0
   -1.1510   -1.3462    1.9925 H   0  0  0  0  0  0  0  0  0  0  0  0
    1.5088   -2.8501    1.8784 H   0  0  0  0  0  0  0  0  0  0  0  0
   -0.0575   -3.5506    2.3060 H   0  0  0  0  0  0  0  0  0  0  0  0
    0.6794   -2.3258    3.3546 H   0  0  0  0  0  0  0  0  0  0  0  0
    0.5079   -2.2066   -0.4394 H   0  0  0  0  0  0  0  0  0  0  0  0
   -1.0186   -2.9360    0.0864 H   0  0  0  0  0  0  0  0  0  0  0  0
   -0.9987   -1.2721   -0.4910 H   0  0  0  0  0  0  0  0  0  0  0  0
    0.2909    3.3051    0.4348 N   0  0  0  0  0  0  0  0  0  0  0  0
    0.8608    4.6316    0.4992 C   0  0  2  0  0  0  0  0  0  0  0  0
    2.3436    4.5231    0.1687 C   0  0  0  0  0  0  0  0  0  0  0  0
    2.9839    3.4811    0.2927 O   0  0  0  0  0  0  0  0  0  0  0  0
    0.6538    5.2568    1.8700 C   0  0  0  0  0  0  0  0  0  0  0  0
   -0.6313    3.2114    0.0197 H   0  0  0  0  0  0  0  0  0  0  0  0
    0.3578    5.2296   -0.2685 H   0  0  0  0  0  0  0  0  0  0  0  0
    1.1508    4.6715    2.6523 H   0  0  0  0  0  0  0  0  0  0  0  0
    1.0609    6.2726    1.9084 H   0  0  0  0  0  0  0  0  0  0  0  0
   -0.4117    5.3068    2.1187 H   0  0  0  0  0  0  0  0  0  0  0  0
    2.8775    5.7372   -0.2398 N   0  0  0  0  0  0  0  0  0  0  0  0
    4.2677    5.8968   -0.5973 C   0  0  0  0  0  0  0  0  0  0  0  0
    2.2687    6.5451   -0.3318 H   0  0  0  0  0  0  0  0  0  0  0  0
    4.8402    6.2135    0.2870 H   0  0  0  0  0  0  0  0  0  0  0  0
    4.6635    4.9392   -0.9665 H   0  0  0  0  0  0  0  0  0  0  0  0
    4.3584    6.6592   -1.3850 H   0  0  0  0  0  0  0  0  0  0  0  0
  1  3  1  0  0  0  0
  1  7  1  0  0  0  0
  1  2  2  0  0  0  0
 37 38  1  0  0  0  0
 38 46  1  0  0  0  0
 38 39  2  0  0  0  0
  8  9  1  0  0  0  0
  9 17  1  0  0  0  0
  9 10  2  0  0  0  0
 18 19  1  0  0  0  0
 19 36  1  0  0  0  0
 19 20  2  0  0  0  0
 37 40  1  0  0  0  0
  8 11  1  0  0  0  0
 22 23  1  0  0  0  0
 22 24  1  0  0  0  0
 46 47  1  0  0  0  0
 18 21  1  0  0  0  0
 21 22  1  0  0  0  0
 36 37  1  0  0  0  0
  7  8  1  0  0  0  0
 17 18  1  0  0  0  0
  3  4  1  0  0  0  0
  3  5  1  0  0  0  0
  3  6  1  0  0  0  0
 40 43  1  0  0  0  0
 40 44  1  0  0  0  0
 40 45  1  0  0  0  0
 11 14  1  0  0  0  0
 11 15  1  0  0  0  0
 11 16  1  0  0  0  0
 23 30  1  0  0  0  0
 23 31  1  0  0  0  0
 23 32  1  0  0  0  0
 24 33  1  0  0  0  0
 24 34  1  0  0  0  0
 24 35  1  0  0  0  0
 47 49  1  0  0  0  0
 47 50  1  0  0  0  0
 47 51  1  0  0  0  0
 21 27  1  0  0  0  0
 21 28  1  0  0  0  0
 37 42  1  0  0  0  0
  8 13  1  0  0  0  0
 18 26  1  0  0  0  0
 22 29  1  0  0  0  0
 46 48  1  0  0  0  0
  7 12  1  0  0  0  0
 36 41  1  0  0  0  0
 17 25  1  0  0  0  0
M  END
$$$$

  -OEChem-05262214473D

 51 50  0     1  0  0  0  0  0999 V2000
    3.4018   -1.2440   -3.0186 C   0  0  0  0  0  0  0  0  0  0  0  0
    3.2697   -2.0909   -2.1427 O   0  0  0  0  0  0  0  0  0  0  0  0
    4.6845   -1.1645   -3.7779 C   0  0  0  0  0  0  0  0  0  0  0  0
    5.4123   -0.4862   -3.3041 H   0  0  0  0  0  0  0  0  0  0  0  0
    5.1949   -2.1387   -3.8443 H   0  0  0  0  0  0  0  0  0  0  0  0
    4.5953   -0.8128   -4.8182 H   0  0  0  0  0  0  0  0  0  0  0  0
    2.4540   -0.3103   -3.4040 N   0  0  0  0  0  0  0  0  0  0  0  0
    1.1494   -0.2128   -2.8039 C   0  0  2  0  0  0  0  0  0  0  0  0
    1.3350    0.0367   -1.3130 C   0  0  0  0  0  0  0  0  0  0  0  0
    2.3625   -0.2586   -0.7063 O   0  0  0  0  0  0  0  0  0  0  0  0
    0.3331   -1.4728   -3.0467 C   0  0  0  0  0  0  0  0  0  0  0  0
    2.6924    0.3404   -4.1502 H   0  0  0  0  0  0  0  0  0  0  0  0
    0.6550    0.6514   -3.2607 H   0  0  0  0  0  0  0  0  0  0  0  0
    0.8129   -2.3494   -2.5963 H   0  0  0  0  0  0  0  0  0  0  0  0
   -0.6690   -1.3857   -2.6142 H   0  0  0  0  0  0  0  0  0  0  0  0
    0.2259   -1.6670   -4.1194 H   0  0  0  0  0  0  0  0  0  0  0  0
    0.2019    0.5893   -0.7269 N   0  0  0  0  0  0  0  0  0  0  0  0
    0.1242    0.9059    0.6756 C   0  0  2  0  0  0  0  0  0  0  0  0
    0.9462    2.1719    0.8964 C   0  0  0  0  0  0  0  0  0  0  0  0
    2.1531    2.1541    1.1291 O   0  0  0  0  0  0  0  0  0  0  0  0
    0.6546   -0.2315    1.5578 C   0  0  0  0  0  0  0  0  0  0  0  0
   -0.1807   -1.5273    1.5143 C   0  0  0  0  0  0  0  0  0  0  0  0
    0.5284   -2.6254    2.3119 C   0  0  0  0  0  0  0  0  0  0  0  0
   -0.4332   -2.0101    0.0854 C   0  0  0  0  0  0  0  0  0  0  0  0
   -0.5975    0.8179   -1.3140 H   0  0  0  0  0  0  0  0  0  0  0  0
   -0.9255    1.1250    0.8960 H   0  0  0  0  0  0  0  0  0  0  0  0
    0.7038    0.1202    2.5980 H   0  0  0  0  0  0  0  0  0  0  0  0
    1.6893   -0.4618    1.2714 H   0  0  0  0  0  0  0  0  0  0  0  0
   -1.1510   -1.3462    1.9925 H   0  0  0  0  0  0  0  0  0  0  0  0
    1.5088   -2.8501    1.8784 H   0  0  0  0  0  0  0  0  0  0  0  0
   -0.0575   -3.5506    2.3060 H   0  0  0  0  0  0  0  0  0  0  0  0
    0.6794   -2.3258    3.3546 H   0  0  0  0  0  0  0  0  0  0  0  0
    0.5079   -2.2066   -0.4394 H   0  0  0  0  0  0  0  0  0  0  0  0
   -1.0186   -2.9360    0.0864 H   0  0  0  0  0  0  0  0  0  0  0  0
   -0.9987   -1.2721   -0.4910 H   0  0  0  0  0  0  0  0  0  0  0  0
    0.1812    3.3210    0.7518 N   0  0  0  0  0  0  0  0  0  0  0  0
    0.7219    4.6548    0.8837 C   0  0  2  0  0  0  0  0  0  0  0  0
    2.0993    4.6703    0.2341 C   0  0  0  0  0  0  0  0  0  0  0  0
    2.7742    3.6563    0.0685 O   0  0  0  0  0  0  0  0  0  0  0  0
    0.8041    5.0769    2.3424 C   0  0  0  0  0  0  0  0  0  0  0  0
   -0.8069    3.2359    0.5328 H   0  0  0  0  0  0  0  0  0  0  0  0
    0.0508    5.3239    0.3341 H   0  0  0  0  0  0  0  0  0  0  0  0
    1.4721    4.4180    2.9091 H   0  0  0  0  0  0  0  0  0  0  0  0
    1.1871    6.0981    2.4389 H   0  0  0  0  0  0  0  0  0  0  0  0
   -0.1828    5.0365    2.8160 H   0  0  0  0  0  0  0  0  0  0  0  0
    2.5045    5.9550   -0.0998 N   0  0  0  0  0  0  0  0  0  0  0  0
    3.7798    6.2345   -0.7173 C   0  0  0  0  0  0  0  0  0  0  0  0
    1.8725    6.7347    0.0564 H   0  0  0  0  0  0  0  0  0  0  0  0
    4.5237    6.4583    0.0615 H   0  0  0  0  0  0  0  0  0  0  0  0
    4.1070    5.3579   -1.2957 H   0  0  0  0  0  0  0  0  0  0  0  0
    3.6801    7.1002   -1.3886 H   0  0  0  0  0  0  0  0  0  0  0  0
  1  3  1  0  0  0  0
  1  7  1  0  0  0  0
  1  2  2  0  0  0  0
 37 38  1  0  0  0  0
 38 46  1  0  0  0  0
 38 39  2  0  0  0  0
  8  9  1  0  0  0  0
  9 17  1  0  0  0  0
  9 10  2  0  0  0  0
 18 19  1  0  0  0  0
 19 36  1  0  0  0  0
 19 20  2  0  0  0  0
 37 40  1  0  0  0  0
  8 11  1  0  0  0  0
 22 23  1  0  0  0  0
 22 24  1  0  0  0  0
 46 47  1  0  0  0  0
 18 21  1  0  0  0  0
 21 22  1  0  0  0  0
 36 37  1  0  0  0  0
  7  8  1  0  0  0  0
 17 18  1  0  0  0  0
  3  4  1  0  0  0  0
  3  5  1  0  0  0  0
  3  6  1  0  0  0  0
 40 43  1  0  0  0  0
 40 44  1  0  0  0  0
 40 45  1  0  0  0  0
 11 14  1  0  0  0  0
 11 15  1  0  0  0  0
 11 16  1  0  0  0  0
 23 30  1  0  0  0  0
 23 31  1  0  0  0  0
 23 32  1  0  0  0  0
 24 33  1  0  0  0  0
 24 34  1  0  0  0  0
 24 35  1  0  0  0  0
 47 49  1  0  0  0  0
 47 50  1  0  0  0  0
 47 51  1  0  0  0  0
 21 27  1  0  0  0  0
 21 28  1  0  0  0  0
 37 42  1  0  0  0  0
  8 13  1  0  0  0  0
 18 26  1  0  0  0  0
 22 29  1  0  0  0  0
 46 48  1  0  0  0  0
  7 12  1  0  0  0  0
 36 41  1  0  0  0  0
 17 25  1  0  0  0  0
M  END
$$$$

  -OEChem-05262214473D

 51 50  0     1  0  0  0  0  0999 V2000
    3.4018   -1.2440   -3.0186 C   0  0  0  0  0  0  0  0  0  0  0  0
    3.2697   -2.0909   -2.1427 O   0  0  0  0  0  0  0  0  0  0  0  0
    4.6845   -1.1645   -3.7779 C   0  0  0  0  0  0  0  0  0  0  0  0
    5.4123   -0.4862   -3.3041 H   0  0  0  0  0  0  0  0  0  0  0  0
    5.1949   -2.1387   -3.8443 H   0  0  0  0  0  0  0  0  0  0  0  0
    4.5953   -0.8128   -4.8182 H   0  0  0  0  0  0  0  0  0  0  0  0
    2.4540   -0.3103   -3.4040 N   0  0  0  0  0  0  0  0  0  0  0  0
    1.1494   -0.2128   -2.8039 C   0  0  2  0  0  0  0  0  0  0  0  0
    1.3350    0.0367   -1.3130 C   0  0  0  0  0  0  0  0  0  0  0  0
    2.3625   -0.2586   -0.7063 O   0  0  0  0  0  0  0  0  0  0  0  0
    0.3331   -1.4728   -3.0467 C   0  0  0  0  0  0  0  0  0  0  0  0
    2.6924    0.3404   -4.1502 H   0  0  0  0  0  0  0  0  0  0  0  0
    0.6550    0.6514   -3.2607 H   0  0  0  0  0  0  0  0  0  0  0  0
    0.8129   -2.3494   -2.5963 H   0  0  0  0  0  0  0  0  0  0  0  0
   -0.6690   -1.3857   -2.6142 H   0  0  0  0  0  0  0  0  0  0  0  0
    0.2259   -1.6670   -4.1194 H   0  0  0  0  0  0  0  0  0  0  0  0
    0.2019    0.5893   -0.7269 N   0  0  0  0  0  0  0  0  0  0  0  0
    0.1242    0.9059    0.6756 C   0  0  2  0  0  0  0  0  0  0  0  0
    0.9462    2.1719    0.8964 C   0  0  0  0  0  0  0  0  0  0  0  0
    2.1749    2.1863    0.8627 O   0  0  0  0  0  0  0  0  0  0  0  0
    0.6546   -0.2315    1.5578 C   0  0  0  0  0  0  0  0  0  0  0  0
   -0.1807   -1.5273    1.5143 C   0  0  0  0  0  0  0  0  0  0  0  0
    0.5284   -2.6254    2.3119 C   0  0  0  0  0  0  0  0  0  0  0  0
   -0.4332   -2.0101    0.0854 C   0  0  0  0  0  0  0  0  0  0  0  0
   -0.5975    0.8179   -1.3140 H   0  0  0  0  0  0  0  0  0  0  0  0
   -0.9255    1.1250    0.8960 H   0  0  0  0  0  0  0  0  0  0  0  0
    0.7038    0.1202    2.5980 H   0  0  0  0  0  0  0  0  0  0  0  0
    1.6893   -0.4618    1.2714 H   0  0  0  0  0  0  0  0  0  0  0  0
   -1.1510   -1.3462    1.9925 H   0  0  0  0  0  0  0  0  0  0  0  0
    1.5088   -2.8501    1.8784 H   0  0  0  0  0  0  0  0  0  0  0  0
   -0.0575   -3.5506    2.3060 H   0  0  0  0  0  0  0  0  0  0  0  0
    0.6794   -2.3258    3.3546 H   0  0  0  0  0  0  0  0  0  0  0  0
    0.5079   -2.2066   -0.4394 H   0  0  0  0  0  0  0  0  0  0  0  0
   -1.0186   -2.9360    0.0864 H   0  0  0  0  0  0  0  0  0  0  0  0
   -0.9987   -1.2721   -0.4910 H   0  0  0  0  0  0  0  0  0  0  0  0
    0.1428    3.2881    1.0839 N   0  0  0  0  0  0  0  0  0  0  0  0
    0.6694    4.6184    1.2881 C   0  0  2  0  0  0  0  0  0  0  0  0
    1.8719    4.7942    0.3702 C   0  0  0  0  0  0  0  0  0  0  0  0
    2.5170    3.8490   -0.0786 O   0  0  0  0  0  0  0  0  0  0  0  0
    1.0574    4.8428    2.7413 C   0  0  0  0  0  0  0  0  0  0  0  0
   -0.8672    3.1815    1.0696 H   0  0  0  0  0  0  0  0  0  0  0  0
   -0.1199    5.3193    0.9953 H   0  0  0  0  0  0  0  0  0  0  0  0
    1.8471    4.1495    3.0528 H   0  0  0  0  0  0  0  0  0  0  0  0
    1.4294    5.8604    2.9000 H   0  0  0  0  0  0  0  0  0  0  0  0
    0.1983    4.6868    3.4026 H   0  0  0  0  0  0  0  0  0  0  0  0
    2.1661    6.1318    0.1459 N   0  0  0  0  0  0  0  0  0  0  0  0
    3.2701    6.5592   -0.6814 C   0  0  0  0  0  0  0  0  0  0  0  0
    1.5660    6.8488    0.5429 H   0  0  0  0  0  0  0  0  0  0  0  0
    4.1604    6.7144   -0.0543 H   0  0  0  0  0  0  0  0  0  0  0  0
    3.4831    5.7874   -1.4357 H   0  0  0  0  0  0  0  0  0  0  0  0
    3.0076    7.5013   -1.1849 H   0  0  0  0  0  0  0  0  0  0  0  0
  1  3  1  0  0  0  0
  1  7  1  0  0  0  0
  1  2  2  0  0  0  0
 37 38  1  0  0  0  0
 38 46  1  0  0  0  0
 38 39  2  0  0  0  0
  8  9  1  0  0  0  0
  9 17  1  0  0  0  0
  9 10  2  0  0  0  0
 18 19  1  0  0  0  0
 19 36  1  0  0  0  0
 19 20  2  0  0  0  0
 37 40  1  0  0  0  0
  8 11  1  0  0  0  0
 22 23  1  0  0  0  0
 22 24  1  0  0  0  0
 46 47  1  0  0  0  0
 18 21  1  0  0  0  0
 21 22  1  0  0  0  0
 36 37  1  0  0  0  0
  7  8  1  0  0  0  0
 17 18  1  0  0  0  0
  3  4  1  0  0  0  0
  3  5  1  0  0  0  0
  3  6  1  0  0  0  0
 40 43  1  0  0  0  0
 40 44  1  0  0  0  0
 40 45  1  0  0  0  0
 11 14  1  0  0  0  0
 11 15  1  0  0  0  0
 11 16  1  0  0  0  0
 23 30  1  0  0  0  0
 23 31  1  0  0  0  0
 23 32  1  0  0  0  0
 24 33  1  0  0  0  0
 24 34  1  0  0  0  0
 24 35  1  0  0  0  0
 47 49  1  0  0  0  0
 47 50  1  0  0  0  0
 47 51  1  0  0  0  0
 21 27  1  0  0  0  0
 21 28  1  0  0  0  0
 37 42  1  0  0  0  0
  8 13  1  0  0  0  0
 18 26  1  0  0  0  0
 22 29  1  0  0  0  0
 46 48  1  0  0  0  0
  7 12  1  0  0  0  0
 36 41  1  0  0  0  0
 17 25  1  0  0  0  0
M  END
$$$$

  -OEChem-05262214473D

 51 50  0     1  0  0  0  0  0999 V2000
    3.4018   -1.2440   -3.0186 C   0  0  0  0  0  0  0  0  0  0  0  0
    3.2697   -2.0909   -2.1427 O   0  0  0  0  0  0  0  0  0  0  0  0
    4.6845   -1.1645   -3.7779 C   0  0  0  0  0  0  0  0  0  0  0  0
    5.4123   -0.4862   -3.3041 H   0  0  0  0  0  0  0  0  0  0  0  0
    5.1949   -2.1387   -3.8443 H   0  0  0  0  0  0  0  0  0  0  0  0
    4.5953   -0.8128   -4.8182 H   0  0  0  0  0  0  0  0  0  0  0  0
    2.4540   -0.3103   -3.4040 N   0  0  0  0  0  0  0  0  0  0  0  0
    1.1494   -0.2128   -2.8039 C   0  0  2  0  0  0  0  0  0  0  0  0
    1.3350    0.0367   -1.3130 C   0  0  0  0  0  0  0  0  0  0  0  0
    2.3625   -0.2586   -0.7063 O   0  0  0  0  0  0  0  0  0  0  0  0
    0.3331   -1.4728   -3.0467 C   0  0  0  0  0  0  0  0  0  0  0  0
    2.6924    0.3404   -4.1502 H   0  0  0  0  0  0  0  0  0  0  0  0
    0.6550    0.6514   -3.2607 H   0  0  0  0  0  0  0  0  0  0  0  0
    0.8129   -2.3494   -2.5963 H   0  0  0  0  0  0  0  0  0  0  0  0
   -0.6690   -1.3857   -2.6142 H   0  0  0  0  0  0  0  0  0  0  0  0
    0.2259   -1.6670   -4.1194 H   0  0  0  0  0  0  0  0  0  0  0  0
    0.2019    0.5893   -0.7269 N   0  0  0  0  0  0  0  0  0  0  0  0
    0.1242    0.9059    0.6756 C   0  0  2  0  0  0  0  0  0  0  0  0
    0.9462    2.1719    0.8964 C   0  0  0  0  0  0  0  0  0  0  0  0
    2.1376    2.2555    0.6052 O   0  0  0  0  0  0  0  0  0  0  0  0
    0.6546   -0.2315    1.5578 C   0  0  0  0  0  0  0  0  0  0  0  0
   -0.1807   -1.5273    1.5143 C   0  0  0  0  0  0  0  0  0  0  0  0
    0.5284   -2.6254    2.3119 C   0  0  0  0  0  0  0  0  0  0  0  0
   -0.4332   -2.0101    0.0854 C   0  0  0  0  0  0  0  0  0  0  0  0
   -0.5975    0.8179   -1.3140 H   0  0  0  0  0  0  0  0  0  0  0  0
   -0.9255    1.1250    0.8960 H   0  0  0  0  0  0  0  0  0  0  0  0
    0.7038    0.1202    2.5980 H   0  0  0  0  0  0  0  0  0  0  0  0
    1.6893   -0.4618    1.2714 H   0  0  0  0  0  0  0  0  0  0  0  0
   -1.1510   -1.3462    1.9925 H   0  0  0  0  0  0  0  0  0  0  0  0
    1.5088   -2.8501    1.8784 H   0  0  0  0  0  0  0  0  0  0  0  0
   -0.0575   -3.5506    2.3060 H   0  0  0  0  0  0  0  0  0  0  0  0
    0.6794   -2.3258    3.3546 H   0  0  0  0  0  0  0  0  0  0  0  0
    0.5079   -2.2066   -0.4394 H   0  0  0  0  0  0  0  0  0  0  0  0
   -1.0186   -2.9360    0.0864 H   0  0  0  0  0  0  0  0  0  0  0  0
   -0.9987   -1.2721   -0.4910 H   0  0  0  0  0  0  0  0  0  0  0  0
    0.1782    3.2085    1.4083 N   0  0  0  0  0  0  0  0  0  0  0  0
    0.7069    4.5248    1.6850 C   0  0  2  0  0  0  0  0  0  0  0  0
    1.6768    4.8864    0.5678 C   0  0  0  0  0  0  0  0  0  0  0  0
    2.2298    4.0459   -0.1386 O   0  0  0  0  0  0  0  0  0  0  0  0
    1.3965    4.5706    3.0396 C   0  0  0  0  0  0  0  0  0  0  0  0
   -0.8081    3.0518    1.5934 H   0  0  0  0  0  0  0  0  0  0  0  0
   -0.1425    5.2164    1.6700 H   0  0  0  0  0  0  0  0  0  0  0  0
    2.2503    3.8841    3.0736 H   0  0  0  0  0  0  0  0  0  0  0  0
    1.7715    5.5755    3.2601 H   0  0  0  0  0  0  0  0  0  0  0  0
    0.7055    4.2815    3.8387 H   0  0  0  0  0  0  0  0  0  0  0  0
    1.8854    6.2557    0.4806 N   0  0  0  0  0  0  0  0  0  0  0  0
    2.7733    6.8487   -0.4920 C   0  0  0  0  0  0  0  0  0  0  0  0
    1.3702    6.8797    1.0946 H   0  0  0  0  0  0  0  0  0  0  0  0
    3.7750    6.9643   -0.0523 H   0  0  0  0  0  0  0  0  0  0  0  0
    2.8343    6.1984   -1.3771 H   0  0  0  0  0  0  0  0  0  0  0  0
    2.3868    7.8352   -0.7877 H   0  0  0  0  0  0  0  0  0  0  0  0
  1  3  1  0  0  0  0
  1  7  1  0  0  0  0
  1  2  2  0  0  0  0
 37 38  1  0  0  0  0
 38 46  1  0  0  0  0
 38 39  2  0  0  0  0
  8  9  1  0  0  0  0
  9 17  1  0  0  0  0
  9 10  2  0  0  0  0
 18 19  1  0  0  0  0
 19 36  1  0  0  0  0
 19 20  2  0  0  0  0
 37 40  1  0  0  0  0
  8 11  1  0  0  0  0
 22 23  1  0  0  0  0
 22 24  1  0  0  0  0
 46 47  1  0  0  0  0
 18 21  1  0  0  0  0
 21 22  1  0  0  0  0
 36 37  1  0  0  0  0
  7  8  1  0  0  0  0
 17 18  1  0  0  0  0
  3  4  1  0  0  0  0
  3  5  1  0  0  0  0
  3  6  1  0  0  0  0
 40 43  1  0  0  0  0
 40 44  1  0  0  0  0
 40 45  1  0  0  0  0
 11 14  1  0  0  0  0
 11 15  1  0  0  0  0
 11 16  1  0  0  0  0
 23 30  1  0  0  0  0
 23 31  1  0  0  0  0
 23 32  1  0  0  0  0
 24 33  1  0  0  0  0
 24 34  1  0  0  0  0
 24 35  1  0  0  0  0
 47 49  1  0  0  0  0
 47 50  1  0  0  0  0
 47 51  1  0  0  0  0
 21 27  1  0  0  0  0
 21 28  1  0  0  0  0
 37 42  1  0  0  0  0
  8 13  1  0  0  0  0
 18 26  1  0  0  0  0
 22 29  1  0  0  0  0
 46 48  1  0  0  0  0
  7 12  1  0  0  0  0
 36 41  1  0  0  0  0
 17 25  1  0  0  0  0
M  END
$$$$

  -OEChem-05262214473D

 51 50  0     1  0  0  0  0  0999 V2000
    3.4018   -1.2440   -3.0186 C   0  0  0  0  0  0  0  0  0  0  0  0
    3.2697   -2.0909   -2.1427 O   0  0  0  0  0  0  0  0  0  0  0  0
    4.6845   -1.1645   -3.7779 C   0  0  0  0  0  0  0  0  0  0  0  0
    5.4123   -0.4862   -3.3041 H   0  0  0  0  0  0  0  0  0  0  0  0
    5.1949   -2.1387   -3.8443 H   0  0  0  0  0  0  0  0  0  0  0  0
    4.5953   -0.8128   -4.8182 H   0  0  0  0  0  0  0  0  0  0  0  0
    2.4540   -0.3103   -3.4040 N   0  0  0  0  0  0  0  0  0  0  0  0
    1.1494   -0.2128   -2.8039 C   0  0  2  0  0  0  0  0  0  0  0  0
    1.3350    0.0367   -1.3130 C   0  0  0  0  0  0  0  0  0  0  0  0
    2.3625   -0.2586   -0.7063 O   0  0  0  0  0  0  0  0  0  0  0  0
    0.3331   -1.4728   -3.0467 C   0  0  0  0  0  0  0  0  0  0  0  0
    2.6924    0.3404   -4.1502 H   0  0  0  0  0  0  0  0  0  0  0  0
    0.6550    0.6514   -3.2607 H   0  0  0  0  0  0  0  0  0  0  0  0
    0.8129   -2.3494   -2.5963 H   0  0  0  0  0  0  0  0  0  0  0  0
   -0.6690   -1.3857   -2.6142 H   0  0  0  0  0  0  0  0  0  0  0  0
    0.2259   -1.6670   -4.1194 H   0  0  0  0  0  0  0  0  0  0  0  0
    0.2019    0.5893   -0.7269 N   0  0  0  0  0  0  0  0  0  0  0  0
    0.1242    0.9059    0.6756 C   0  0  2  0  0  0  0  0  0  0  0  0
    0.9462    2.1719    0.8964 C   0  0  0  0  0  0  0  0  0  0  0  0
    2.0436    2.3568    0.3742 O   0  0  0  0  0  0  0  0  0  0  0  0
    0.6546   -0.2315    1.5578 C   0  0  0  0  0  0  0  0  0  0  0  0
   -0.1807   -1.5273    1.5143 C   0  0  0  0  0  0  0  0  0  0  0  0
    0.5284   -2.6254    2.3119 C   0  0  0  0  0  0  0  0  0  0  0  0
   -0.4332   -2.0101    0.0854 C   0  0  0  0  0  0  0  0  0  0  0  0
   -0.5975    0.8179   -1.3140 H   0  0  0  0  0  0  0  0  0  0  0  0
   -0.9255    1.1250    0.8960 H   0  0  0  0  0  0  0  0  0  0  0  0
    0.7038    0.1202    2.5980 H   0  0  0  0  0  0  0  0  0  0  0  0
    1.6893   -0.4618    1.2714 H   0  0  0  0  0  0  0  0  0  0  0  0
   -1.1510   -1.3462    1.9925 H   0  0  0  0  0  0  0  0  0  0  0  0
    1.5088   -2.8501    1.8784 H   0  0  0  0  0  0  0  0  0  0  0  0
   -0.0575   -3.5506    2.3060 H   0  0  0  0  0  0  0  0  0  0  0  0
    0.6794   -2.3258    3.3546 H   0  0  0  0  0  0  0  0  0  0  0  0
    0.5079   -2.2066   -0.4394 H   0  0  0  0  0  0  0  0  0  0  0  0
   -1.0186   -2.9360    0.0864 H   0  0  0  0  0  0  0  0  0  0  0  0
   -0.9987   -1.2721   -0.4910 H   0  0  0  0  0  0  0  0  0  0  0  0
    0.2850    3.0878    1.7030 N   0  0  0  0  0  0  0  0  0  0  0  0
    0.8318    4.3805    2.0472 C   0  0  2  0  0  0  0  0  0  0  0  0
    1.5274    4.9406    0.8135 C   0  0  0  0  0  0  0  0  0  0  0  0
    1.9321    4.2338   -0.1073 O   0  0  0  0  0  0  0  0  0  0  0  0
    1.7984    4.2788    3.2169 C   0  0  0  0  0  0  0  0  0  0  0  0
   -0.6337    2.8556    2.0686 H   0  0  0  0  0  0  0  0  0  0  0  0
   -0.0157    5.0220    2.3122 H   0  0  0  0  0  0  0  0  0  0  0  0
    2.6542    3.6399    2.9701 H   0  0  0  0  0  0  0  0  0  0  0  0
    2.1899    5.2629    3.4948 H   0  0  0  0  0  0  0  0  0  0  0  0
    1.3042    3.8481    4.0944 H   0  0  0  0  0  0  0  0  0  0  0  0
    1.6816    6.3181    0.8815 N   0  0  0  0  0  0  0  0  0  0  0  0
    2.3233    7.0833   -0.1619 C   0  0  0  0  0  0  0  0  0  0  0  0
    1.2985    6.8253    1.6738 H   0  0  0  0  0  0  0  0  0  0  0  0
    3.3938    7.1909    0.0672 H   0  0  0  0  0  0  0  0  0  0  0  0
    2.2048    6.5629   -1.1237 H   0  0  0  0  0  0  0  0  0  0  0  0
    1.8599    8.0790   -0.2241 H   0  0  0  0  0  0  0  0  0  0  0  0
  1  3  1  0  0  0  0
  1  7  1  0  0  0  0
  1  2  2  0  0  0  0
 37 38  1  0  0  0  0
 38 46  1  0  0  0  0
 38 39  2  0  0  0  0
  8  9  1  0  0  0  0
  9 17  1  0  0  0  0
  9 10  2  0  0  0  0
 18 19  1  0  0  0  0
 19 36  1  0  0  0  0
 19 20  2  0  0  0  0
 37 40  1  0  0  0  0
  8 11  1  0  0  0  0
 22 23  1  0  0  0  0
 22 24  1  0  0  0  0
 46 47  1  0  0  0  0
 18 21  1  0  0  0  0
 21 22  1  0  0  0  0
 36 37  1  0  0  0  0
  7  8  1  0  0  0  0
 17 18  1  0  0  0  0
  3  4  1  0  0  0  0
  3  5  1  0  0  0  0
  3  6  1  0  0  0  0
 40 43  1  0  0  0  0
 40 44  1  0  0  0  0
 40 45  1  0  0  0  0
 11 14  1  0  0  0  0
 11 15  1  0  0  0  0
 11 16  1  0  0  0  0
 23 30  1  0  0  0  0
 23 31  1  0  0  0  0
 23 32  1  0  0  0  0
 24 33  1  0  0  0  0
 24 34  1  0  0  0  0
 24 35  1  0  0  0  0
 47 49  1  0  0  0  0
 47 50  1  0  0  0  0
 47 51  1  0  0  0  0
 21 27  1  0  0  0  0
 21 28  1  0  0  0  0
 37 42  1  0  0  0  0
  8 13  1  0  0  0  0
 18 26  1  0  0  0  0
 22 29  1  0  0  0  0
 46 48  1  0  0  0  0
  7 12  1  0  0  0  0
 36 41  1  0  0  0  0
 17 25  1  0  0  0  0
M  END
$$$$

  -OEChem-05262214473D

 51 50  0     1  0  0  0  0  0999 V2000
    3.4018   -1.2440   -3.0186 C   0  0  0  0  0  0  0  0  0  0  0  0
    3.2697   -2.0909   -2.1427 O   0  0  0  0  0  0  0  0  0  0  0  0
    4.6845   -1.1645   -3.7779 C   0  0  0  0  0  0  0  0  0  0  0  0
    5.4123   -0.4862   -3.3041 H   0  0  0  0  0  0  0  0  0  0  0  0
    5.1949   -2.1387   -3.8443 H   0  0  0  0  0  0  0  0  0  0  0  0
    4.5953   -0.8128   -4.8182 H   0  0  0  0  0  0  0  0  0  0  0  0
    2.4540   -0.3103   -3.4040 N   0  0  0  0  0  0  0  0  0  0  0  0
    1.1494   -0.2128   -2.8039 C   0  0  2  0  0  0  0  0  0  0  0  0
    1.3350    0.0367   -1.3130 C   0  0  0  0  0  0  0  0  0  0  0  0
    2.3625   -0.2586   -0.7063 O   0  0  0  0  0  0  0  0  0  0  0  0
    0.3331   -1.4728   -3.0467 C   0  0  0  0  0  0  0  0  0  0  0  0
    2.6924    0.3404   -4.1502 H   0  0  0  0  0  0  0  0  0  0  0  0
    0.6550    0.6514   -3.2607 H   0  0  0  0  0  0  0  0  0  0  0  0
    0.8129   -2.3494   -2.5963 H   0  0  0  0  0  0  0  0  0  0  0  0
   -0.6690   -1.3857   -2.6142 H   0  0  0  0  0  0  0  0  0  0  0  0
    0.2259   -1.6670   -4.1194 H   0  0  0  0  0  0  0  0  0  0  0  0
    0.2019    0.5893   -0.7269 N   0  0  0  0  0  0  0  0  0  0  0  0
    0.1242    0.9059    0.6756 C   0  0  2  0  0  0  0  0  0  0  0  0
    0.9462    2.1719    0.8964 C   0  0  0  0  0  0  0  0  0  0  0  0
    1.8994    2.4834    0.1854 O   0  0  0  0  0  0  0  0  0  0  0  0
    0.6546   -0.2315    1.5578 C   0  0  0  0  0  0  0  0  0  0  0  0
   -0.1807   -1.5273    1.5143 C   0  0  0  0  0  0  0  0  0  0  0  0
    0.5284   -2.6254    2.3119 C   0  0  0  0  0  0  0  0  0  0  0  0
   -0.4332   -2.0101    0.0854 C   0  0  0  0  0  0  0  0  0  0  0  0
   -0.5975    0.8179   -1.3140 H   0  0  0  0  0  0  0  0  0  0  0  0
   -0.9255    1.1250    0.8960 H   0  0  0  0  0  0  0  0  0  0  0  0
    0.7038    0.1202    2.5980 H   0  0  0  0  0  0  0  0  0  0  0  0
    1.6893   -0.4618    1.2714 H   0  0  0  0  0  0  0  0  0  0  0  0
   -1.1510   -1.3462    1.9925 H   0  0  0  0  0  0  0  0  0  0  0  0
    1.5088   -2.8501    1.8784 H   0  0  0  0  0  0  0  0  0  0  0  0
   -0.0575   -3.5506    2.3060 H   0  0  0  0  0  0  0  0  0  0  0  0
    0.6794   -2.3258    3.3546 H   0  0  0  0  0  0  0  0  0  0  0  0
    0.5079   -2.2066   -0.4394 H   0  0  0  0  0  0  0  0  0  0  0  0
   -1.0186   -2.9360    0.0864 H   0  0  0  0  0  0  0  0  0  0  0  0
   -0.9987   -1.2721   -0.4910 H   0  0  0  0  0  0  0  0  0  0  0  0
    0.4560    2.9340    1.9478 N   0  0  0  0  0  0  0  0  0  0  0  0
    1.0358    4.1953    2.3501 C   0  0  2  0  0  0  0  0  0  0  0  0
    1.4338    4.9530    1.0904 C   0  0  0  0  0  0  0  0  0  0  0  0
    1.6441    4.3997    0.0130 O   0  0  0  0  0  0  0  0  0  0  0  0
    2.2355    3.9872    3.2611 C   0  0  0  0  0  0  0  0  0  0  0  0
   -0.3558    2.6065    2.4628 H   0  0  0  0  0  0  0  0  0  0  0  0
    0.2521    4.7494    2.8781 H   0  0  0  0  0  0  0  0  0  0  0  0
    3.0312    3.4336    2.7494 H   0  0  0  0  0  0  0  0  0  0  0  0
    2.6561    4.9439    3.5880 H   0  0  0  0  0  0  0  0  0  0  0  0
    1.9537    3.4163    4.1524 H   0  0  0  0  0  0  0  0  0  0  0  0
    1.5684    6.3149    1.3212 N   0  0  0  0  0  0  0  0  0  0  0  0
    1.9508    7.2470    0.2863 C   0  0  0  0  0  0  0  0  0  0  0  0
    1.3556    6.6892    2.2412 H   0  0  0  0  0  0  0  0  0  0  0  0
    3.0428    7.3789    0.2961 H   0  0  0  0  0  0  0  0  0  0  0  0
    1.6375    6.8561   -0.6930 H   0  0  0  0  0  0  0  0  0  0  0  0
    1.4629    8.2161    0.4674 H   0  0  0  0  0  0  0  0  0  0  0  0
  1  3  1  0  0  0  0
  1  7  1  0  0  0  0
  1  2  2  0  0  0  0
 37 38  1  0  0  0  0
 38 46  1  0  0  0  0
 38 39  2  0  0  0  0
  8  9  1  0  0  0  0
  9 17  1  0  0  0  0
  9 10  2  0  0  0  0
 18 19  1  0  0  0  0
 19 36  1  0  0  0  0
 19 20  2  0  0  0  0
 37 40  1  0  0  0  0
  8 11  1  0  0  0  0
 22 23  1  0  0  0  0
 22 24  1  0  0  0  0
 46 47  1  0  0  0  0
 18 21  1  0  0  0  0
 21 22  1  0  0  0  0
 36 37  1  0  0  0  0
  7  8  1  0  0  0  0
 17 18  1  0  0  0  0
  3  4  1  0  0  0  0
  3  5  1  0  0  0  0
  3  6  1  0  0  0  0
 40 43  1  0  0  0  0
 40 44  1  0  0  0  0
 40 45  1  0  0  0  0
 11 14  1  0  0  0  0
 11 15  1  0  0  0  0
 11 16  1  0  0  0  0
 23 30  1  0  0  0  0
 23 31  1  0  0  0  0
 23 32  1  0  0  0  0
 24 33  1  0  0  0  0
 24 34  1  0  0  0  0
 24 35  1  0  0  0  0
 47 49  1  0  0  0  0
 47 50  1  0  0  0  0
 47 51  1  0  0  0  0
 21 27  1  0  0  0  0
 21 28  1  0  0  0  0
 37 42  1  0  0  0  0
  8 13  1  0  0  0  0
 18 26  1  0  0  0  0
 22 29  1  0  0  0  0
 46 48  1  0  0  0  0
  7 12  1  0  0  0  0
 36 41  1  0  0  0  0
 17 25  1  0  0  0  0
M  END
$$$$

  -OEChem-05262214473D

 51 50  0     1  0  0  0  0  0999 V2000
    3.4018   -1.2440   -3.0186 C   0  0  0  0  0  0  0  0  0  0  0  0
    3.2697   -2.0909   -2.1427 O   0  0  0  0  0  0  0  0  0  0  0  0
    4.6845   -1.1645   -3.7779 C   0  0  0  0  0  0  0  0  0  0  0  0
    5.4123   -0.4862   -3.3041 H   0  0  0  0  0  0  0  0  0  0  0  0
    5.1949   -2.1387   -3.8443 H   0  0  0  0  0  0  0  0  0  0  0  0
    4.5953   -0.8128   -4.8182 H   0  0  0  0  0  0  0  0  0  0  0  0
    2.4540   -0.3103   -3.4040 N   0  0  0  0  0  0  0  0  0  0  0  0
    1.1494   -0.2128   -2.8039 C   0  0  2  0  0  0  0  0  0  0  0  0
    1.3350    0.0367   -1.3130 C   0  0  0  0  0  0  0  0  0  0  0  0
    2.3625   -0.2586   -0.7063 O   0  0  0  0  0  0  0  0  0  0  0  0
    0.3331   -1.4728   -3.0467 C   0  0  0  0  0  0  0  0  0  0  0  0
    2.6924    0.3404   -4.1502 H   0  0  0  0  0  0  0  0  0  0  0  0
    0.6550    0.6514   -3.2607 H   0  0  0  0  0  0  0  0  0  0  0  0
    0.8129   -2.3494   -2.5963 H   0  0  0  0  0  0  0  0  0  0  0  0
   -0.6690   -1.3857   -2.6142 H   0  0  0  0  0  0  0  0  0  0  0  0
    0.2259   -1.6670   -4.1194 H   0  0  0  0  0  0  0  0  0  0  0  0
    0.2019    0.5893   -0.7269 N   0  0  0  0  0  0  0  0  0  0  0  0
    0.1242    0.9059    0.6756 C   0  0  2  0  0  0  0  0  0  0  0  0
    0.9462    2.1719    0.8964 C   0  0  0  0  0  0  0  0  0  0  0  0
    1.7148    2.6265    0.0516 O   0  0  0  0  0  0  0  0  0  0  0  0
    0.6546   -0.2315    1.5578 C   0  0  0  0  0  0  0  0  0  0  0  0
   -0.1807   -1.5273    1.5143 C   0  0  0  0  0  0  0  0  0  0  0  0
    0.5284   -2.6254    2.3119 C   0  0  0  0  0  0  0  0  0  0  0  0
   -0.4332   -2.0101    0.0854 C   0  0  0  0  0  0  0  0  0  0  0  0
   -0.5975    0.8179   -1.3140 H   0  0  0  0  0  0  0  0  0  0  0  0
   -0.9255    1.1250    0.8960 H   0  0  0  0  0  0  0  0  0  0  0  0
    0.7038    0.1202    2.5980 H   0  0  0  0  0  0  0  0  0  0  0  0
    1.6893   -0.4618    1.2714 H   0  0  0  0  0  0  0  0  0  0  0  0
   -1.1510   -1.3462    1.9925 H   0  0  0  0  0  0  0  0  0  0  0  0
    1.5088   -2.8501    1.8784 H   0  0  0  0  0  0  0  0  0  0  0  0
   -0.0575   -3.5506    2.3060 H   0  0  0  0  0  0  0  0  0  0  0  0
    0.6794   -2.3258    3.3546 H   0  0  0  0  0  0  0  0  0  0  0  0
    0.5079   -2.2066   -0.4394 H   0  0  0  0  0  0  0  0  0  0  0  0
   -1.0186   -2.9360    0.0864 H   0  0  0  0  0  0  0  0  0  0  0  0
   -0.9987   -1.2721   -0.4910 H   0  0  0  0  0  0  0  0  0  0  0  0
    0.6796    2.7578    2.1261 N   0  0  0  0  0  0  0  0  0  0  0  0
    1.3047    3.9817    2.5730 C   0  0  2  0  0  0  0  0  0  0  0  0
    1.4024    4.9230    1.3797 C   0  0  0  0  0  0  0  0  0  0  0  0
    1.3857    4.5325    0.2142 O   0  0  0  0  0  0  0  0  0  0  0  0
    2.6782    3.7158    3.1693 C   0  0  0  0  0  0  0  0  0  0  0  0
    0.0066    2.3212    2.7491 H   0  0  0  0  0  0  0  0  0  0  0  0
    0.6425    4.4173    3.3292 H   0  0  0  0  0  0  0  0  0  0  0  0
    3.3557    3.2793    2.4264 H   0  0  0  0  0  0  0  0  0  0  0  0
    3.1385    4.6403    3.5334 H   0  0  0  0  0  0  0  0  0  0  0  0
    2.6097    3.0154    4.0087 H   0  0  0  0  0  0  0  0  0  0  0  0
    1.5537    6.2463    1.7698 N   0  0  0  0  0  0  0  0  0  0  0  0
    1.6810    7.3287    0.8221 C   0  0  0  0  0  0  0  0  0  0  0  0
    1.5377    6.4809    2.7579 H   0  0  0  0  0  0  0  0  0  0  0  0
    2.7458    7.5154    0.6189 H   0  0  0  0  0  0  0  0  0  0  0  0
    1.1711    7.0580   -0.1142 H   0  0  0  0  0  0  0  0  0  0  0  0
    1.2228    8.2373    1.2398 H   0  0  0  0  0  0  0  0  0  0  0  0
  1  3  1  0  0  0  0
  1  7  1  0  0  0  0
  1  2  2  0  0  0  0
 37 38  1  0  0  0  0
 38 46  1  0  0  0  0
 38 39  2  0  0  0  0
  8  9  1  0  0  0  0
  9 17  1  0  0  0  0
  9 10  2  0  0  0  0
 18 19  1  0  0  0  0
 19 36  1  0  0  0  0
 19 20  2  0  0  0  0
 37 40  1  0  0  0  0
  8 11  1  0  0  0  0
 22 23  1  0  0  0  0
 22 24  1  0  0  0  0
 46 47  1  0  0  0  0
 18 21  1  0  0  0  0
 21 22  1  0  0  0  0
 36 37  1  0  0  0  0
  7  8  1  0  0  0  0
 17 18  1  0  0  0  0
  3  4  1  0  0  0  0
  3  5  1  0  0  0  0
  3  6  1  0  0  0  0
 40 43  1  0  0  0  0
 40 44  1  0  0  0  0
 40 45  1  0  0  0  0
 11 14  1  0  0  0  0
 11 15  1  0  0  0  0
 11 16  1  0  0  0  0
 23 30  1  0  0  0  0
 23 31  1  0  0  0  0
 23 32  1  0  0  0  0
 24 33  1  0  0  0  0
 24 34  1  0  0  0  0
 24 35  1  0  0  0  0
 47 49  1  0  0  0  0
 47 50  1  0  0  0  0
 47 51  1  0  0  0  0
 21 27  1  0  0  0  0
 21 28  1  0  0  0  0
 37 42  1  0  0  0  0
  8 13  1  0  0  0  0
 18 26  1  0  0  0  0
 22 29  1  0  0  0  0
 46 48  1  0  0  0  0
  7 12  1  0  0  0  0
 36 41  1  0  0  0  0
 17 25  1  0  0  0  0
M  END
$$$$

  -OEChem-05262214473D

 51 50  0     1  0  0  0  0  0999 V2000
    3.4018   -1.2440   -3.0186 C   0  0  0  0  0  0  0  0  0  0  0  0
    3.2697   -2.0909   -2.1427 O   0  0  0  0  0  0  0  0  0  0  0  0
    4.6845   -1.1645   -3.7779 C   0  0  0  0  0  0  0  0  0  0  0  0
    5.4123   -0.4862   -3.3041 H   0  0  0  0  0  0  0  0  0  0  0  0
    5.1949   -2.1387   -3.8443 H   0  0  0  0  0  0  0  0  0  0  0  0
    4.5953   -0.8128   -4.8182 H   0  0  0  0  0  0  0  0  0  0  0  0
    2.4540   -0.3103   -3.4040 N   0  0  0  0  0  0  0  0  0  0  0  0
    1.1494   -0.2128   -2.8039 C   0  0  2  0  0  0  0  0  0  0  0  0
    1.3350    0.0367   -1.3130 C   0  0  0  0  0  0  0  0  0  0  0  0
    2.3625   -0.2586   -0.7063 O   0  0  0  0  0  0  0  0  0  0  0  0
    0.3331   -1.4728   -3.0467 C   0  0  0  0  0  0  0  0  0  0  0  0
    2.6924    0.3404   -4.1502 H   0  0  0  0  0  0  0  0  0  0  0  0
    0.6550    0.6514   -3.2607 H   0  0  0  0  0  0  0  0  0  0  0  0
    0.8129   -2.3494   -2.5963 H   0  0  0  0  0  0  0  0  0  0  0  0
   -0.6690   -1.3857   -2.6142 H   0  0  0  0  0  0  0  0  0  0  0  0
    0.2259   -1.6670   -4.1194 H   0  0  0  0  0  0  0  0  0  0  0  0
    0.2019    0.5893   -0.7269 N   0  0  0  0  0  0  0  0  0  0  0  0
    0.1242    0.9059    0.6756 C   0  0  2  0  0  0  0  0  0  0  0  0
    0.6107    2.3424    0.8393 C   0  0  0  0  0  0  0  0  0  0  0  0
    0.9450    3.0481   -0.1102 O   0  0  0  0  0  0  0  0  0  0  0  0
    0.9724   -0.0423    1.5327 C   0  0  0  0  0  0  0  0  0  0  0  0
    0.4903   -1.5073    1.5470 C   0  0  0  0  0  0  0  0  0  0  0  0
    1.4965   -2.3743    2.3089 C   0  0  0  0  0  0  0  0  0  0  0  0
    0.2895   -2.0684    0.1386 C   0  0  0  0  0  0  0  0  0  0  0  0
   -0.5975    0.8179   -1.3140 H   0  0  0  0  0  0  0  0  0  0  0  0
   -0.9330    0.8584    0.9557 H   0  0  0  0  0  0  0  0  0  0  0  0
    0.9884    0.3325    2.5658 H   0  0  0  0  0  0  0  0  0  0  0  0
    2.0144   -0.0109    1.1876 H   0  0  0  0  0  0  0  0  0  0  0  0
   -0.4665   -1.5661    2.0801 H   0  0  0  0  0  0  0  0  0  0  0  0
    2.4764   -2.3542    1.8201 H   0  0  0  0  0  0  0  0  0  0  0  0
    1.1639   -3.4172    2.3436 H   0  0  0  0  0  0  0  0  0  0  0  0
    1.6242   -2.0242    3.3389 H   0  0  0  0  0  0  0  0  0  0  0  0
    1.2193   -2.0328   -0.4392 H   0  0  0  0  0  0  0  0  0  0  0  0
   -0.0422   -3.1116    0.1802 H   0  0  0  0  0  0  0  0  0  0  0  0
   -0.4749   -1.5089   -0.4085 H   0  0  0  0  0  0  0  0  0  0  0  0
    0.5777    2.7555    2.1640 N   0  0  0  0  0  0  0  0  0  0  0  0
    0.9620    4.0818    2.5904 C   0  0  2  0  0  0  0  0  0  0  0  0
    0.4486    5.0754    1.5567 C   0  0  0  0  0  0  0  0  0  0  0  0
    0.1894    4.7626    0.3965 O   0  0  0  0  0  0  0  0  0  0  0  0
    2.4698    4.1958    2.7520 C   0  0  0  0  0  0  0  0  0  0  0  0
    0.2605    2.1074    2.8788 H   0  0  0  0  0  0  0  0  0  0  0  0
    0.4646    4.2621    3.5497 H   0  0  0  0  0  0  0  0  0  0  0  0
    2.9854    4.0183    1.8012 H   0  0  0  0  0  0  0  0  0  0  0  0
    2.7570    5.1927    3.1026 H   0  0  0  0  0  0  0  0  0  0  0  0
    2.8412    3.4604    3.4738 H   0  0  0  0  0  0  0  0  0  0  0  0
    0.3550    6.3613    2.0703 N   0  0  0  0  0  0  0  0  0  0  0  0
   -0.0952    7.4848    1.2822 C   0  0  0  0  0  0  0  0  0  0  0  0
    0.5726    6.5256    3.0488 H   0  0  0  0  0  0  0  0  0  0  0  0
    0.7723    7.9854    0.8274 H   0  0  0  0  0  0  0  0  0  0  0  0
   -0.7704    7.1296    0.4898 H   0  0  0  0  0  0  0  0  0  0  0  0
   -0.6308    8.1952    1.9291 H   0  0  0  0  0  0  0  0  0  0  0  0
  1  3  1  0  0  0  0
  1  7  1  0  0  0  0
  1  2  2  0  0  0  0
 37 38  1  0  0  0  0
 38 46  1  0  0  0  0
 38 39  2  0  0  0  0
  8  9  1  0  0  0  0
  9 17  1  0  0  0  0
  9 10  2  0  0  0  0
 18 19  1  0  0  0  0
 19 36  1  0  0  0  0
 19 20  2  0  0  0  0
 37 40  1  0  0  0  0
  8 11  1  0  0  0  0
 22 23  1  0  0  0  0
 22 24  1  0  0  0  0
 46 47  1  0  0  0  0
 18 21  1  0  0  0  0
 21 22  1  0  0  0  0
 36 37  1  0  0  0  0
  7  8  1  0  0  0  0
 17 18  1  0  0  0  0
  3  4  1  0  0  0  0
  3  5  1  0  0  0  0
  3  6  1  0  0  0  0
 40 43  1  0  0  0  0
 40 44  1  0  0  0  0
 40 45  1  0  0  0  0
 11 14  1  0  0  0  0
 11 15  1  0  0  0  0
 11 16  1  0  0  0  0
 23 30  1  0  0  0  0
 23 31  1  0  0  0  0
 23 32  1  0  0  0  0
 24 33  1  0  0  0  0
 24 34  1  0  0  0  0
 24 35  1  0  0  0  0
 47 49  1  0  0  0  0
 47 50  1  0  0  0  0
 47 51  1  0  0  0  0
 21 27  1  0  0  0  0
 21 28  1  0  0  0  0
 37 42  1  0  0  0  0
  8 13  1  0  0  0  0
 18 26  1  0  0  0  0
 22 29  1  0  0  0  0
 46 48  1  0  0  0  0
  7 12  1  0  0  0  0
 36 41  1  0  0  0  0
 17 25  1  0  0  0  0
M  END
$$$$

  -OEChem-05262214473D

 51 50  0     1  0  0  0  0  0999 V2000
    3.4018   -1.2440   -3.0186 C   0  0  0  0  0  0  0  0  0  0  0  0
    3.2697   -2.0909   -2.1427 O   0  0  0  0  0  0  0  0  0  0  0  0
    4.6845   -1.1645   -3.7779 C   0  0  0  0  0  0  0  0  0  0  0  0
    5.4123   -0.4862   -3.3041 H   0  0  0  0  0  0  0  0  0  0  0  0
    5.1949   -2.1387   -3.8443 H   0  0  0  0  0  0  0  0  0  0  0  0
    4.5953   -0.8128   -4.8182 H   0  0  0  0  0  0  0  0  0  0  0  0
    2.4540   -0.3103   -3.4040 N   0  0  0  0  0  0  0  0  0  0  0  0
    1.1494   -0.2128   -2.8039 C   0  0  2  0  0  0  0  0  0  0  0  0
    1.3350    0.0367   -1.3130 C   0  0  0  0  0  0  0  0  0  0  0  0
    2.3625   -0.2586   -0.7063 O   0  0  0  0  0  0  0  0  0  0  0  0
    0.3331   -1.4728   -3.0467 C   0  0  0  0  0  0  0  0  0  0  0  0
    2.6924    0.3404   -4.1502 H   0  0  0  0  0  0  0  0  0  0  0  0
    0.6550    0.6514   -3.2607 H   0  0  0  0  0  0  0  0  0  0  0  0
    0.8129   -2.3494   -2.5963 H   0  0  0  0  0  0  0  0  0  0  0  0
   -0.6690   -1.3857   -2.6142 H   0  0  0  0  0  0  0  0  0  0  0  0
    0.2259   -1.6670   -4.1194 H   0  0  0  0  0  0  0  0  0  0  0  0
    0.2019    0.5893   -0.7269 N   0  0  0  0  0  0  0  0  0  0  0  0
    0.1242    0.9059    0.6756 C   0  0  2  0  0  0  0  0  0  0  0  0
    0.6107    2.3424    0.8393 C   0  0  0  0  0  0  0  0  0  0  0  0
    0.6899    3.1331   -0.0986 O   0  0  0  0  0  0  0  0  0  0  0  0
    0.9724   -0.0423    1.5327 C   0  0  0  0  0  0  0  0  0  0  0  0
    0.4903   -1.5073    1.5470 C   0  0  0  0  0  0  0  0  0  0  0  0
    1.4965   -2.3743    2.3089 C   0  0  0  0  0  0  0  0  0  0  0  0
    0.2895   -2.0684    0.1386 C   0  0  0  0  0  0  0  0  0  0  0  0
   -0.5975    0.8179   -1.3140 H   0  0  0  0  0  0  0  0  0  0  0  0
   -0.9330    0.8584    0.9557 H   0  0  0  0  0  0  0  0  0  0  0  0
    0.9884    0.3325    2.5658 H   0  0  0  0  0  0  0  0  0  0  0  0
    2.0144   -0.0109    1.1876 H   0  0  0  0  0  0  0  0  0  0  0  0
   -0.4665   -1.5661    2.0801 H   0  0  0  0  0  0  0  0  0  0  0  0
    2.4764   -2.3542    1.8201 H   0  0  0  0  0  0  0  0  0  0  0  0
    1.1639   -3.4172    2.3436 H   0  0  0  0  0  0  0  0  0  0  0  0
    1.6242   -2.0242    3.3389 H   0  0  0  0  0  0  0  0  0  0  0  0
    1.2193   -2.0328   -0.4392 H   0  0  0  0  0  0  0  0  0  0  0  0
   -0.0422   -3.1116    0.1802 H   0  0  0  0  0  0  0  0  0  0  0  0
   -0.4749   -1.5089   -0.4085 H   0  0  0  0  0  0  0  0  0  0  0  0
    0.8958    2.6478    2.1629 N   0  0  0  0  0  0  0  0  0  0  0  0
    1.3496    3.9499    2.5958 C   0  0  2  0  0  0  0  0  0  0  0  0
    0.5813    5.0019    1.8069 C   0  0  0  0  0  0  0  0  0  0  0  0
    0.0514    4.7723    0.7217 O   0  0  0  0  0  0  0  0  0  0  0  0
    2.8488    4.1080    2.3961 C   0  0  0  0  0  0  0  0  0  0  0  0
    0.7748    1.9336    2.8748 H   0  0  0  0  0  0  0  0  0  0  0  0
    1.0991    4.0347    3.6589 H   0  0  0  0  0  0  0  0  0  0  0  0
    3.1189    4.0260    1.3369 H   0  0  0  0  0  0  0  0  0  0  0  0
    3.1956    5.0842    2.7509 H   0  0  0  0  0  0  0  0  0  0  0  0
    3.3985    3.3324    2.9402 H   0  0  0  0  0  0  0  0  0  0  0  0
    0.5938    6.2387    2.4365 N   0  0  0  0  0  0  0  0  0  0  0  0
   -0.0553    7.4031    1.8807 C   0  0  0  0  0  0  0  0  0  0  0  0
    1.0414    6.3333    3.3433 H   0  0  0  0  0  0  0  0  0  0  0  0
    0.6655    7.9707    1.2738 H   0  0  0  0  0  0  0  0  0  0  0  0
   -0.8977    7.0862    1.2482 H   0  0  0  0  0  0  0  0  0  0  0  0
   -0.4285    8.0392    2.6968 H   0  0  0  0  0  0  0  0  0  0  0  0
  1  3  1  0  0  0  0
  1  7  1  0  0  0  0
  1  2  2  0  0  0  0
 37 38  1  0  0  0  0
 38 46  1  0  0  0  0
 38 39  2  0  0  0  0
  8  9  1  0  0  0  0
  9 17  1  0  0  0  0
  9 10  2  0  0  0  0
 18 19  1  0  0  0  0
 19 36  1  0  0  0  0
 19 20  2  0  0  0  0
 37 40  1  0  0  0  0
  8 11  1  0  0  0  0
 22 23  1  0  0  0  0
 22 24  1  0  0  0  0
 46 47  1  0  0  0  0
 18 21  1  0  0  0  0
 21 22  1  0  0  0  0
 36 37  1  0  0  0  0
  7  8  1  0  0  0  0
 17 18  1  0  0  0  0
  3  4  1  0  0  0  0
  3  5  1  0  0  0  0
  3  6  1  0  0  0  0
 40 43  1  0  0  0  0
 40 44  1  0  0  0  0
 40 45  1  0  0  0  0
 11 14  1  0  0  0  0
 11 15  1  0  0  0  0
 11 16  1  0  0  0  0
 23 30  1  0  0  0  0
 23 31  1  0  0  0  0
 23 32  1  0  0  0  0
 24 33  1  0  0  0  0
 24 34  1  0  0  0  0
 24 35  1  0  0  0  0
 47 49  1  0  0  0  0
 47 50  1  0  0  0  0
 47 51  1  0  0  0  0
 21 27  1  0  0  0  0
 21 28  1  0  0  0  0
 37 42  1  0  0  0  0
  8 13  1  0  0  0  0
 18 26  1  0  0  0  0
 22 29  1  0  0  0  0
 46 48  1  0  0  0  0
  7 12  1  0  0  0  0
 36 41  1  0  0  0  0
 17 25  1  0  0  0  0
M  END
$$$$

  -OEChem-05262214473D

 51 50  0     1  0  0  0  0  0999 V2000
    3.4018   -1.2440   -3.0186 C   0  0  0  0  0  0  0  0  0  0  0  0
    3.2697   -2.0909   -2.1427 O   0  0  0  0  0  0  0  0  0  0  0  0
    4.6845   -1.1645   -3.7779 C   0  0  0  0  0  0  0  0  0  0  0  0
    5.4123   -0.4862   -3.3041 H   0  0  0  0  0  0  0  0  0  0  0  0
    5.1949   -2.1387   -3.8443 H   0  0  0  0  0  0  0  0  0  0  0  0
    4.5953   -0.8128   -4.8182 H   0  0  0  0  0  0  0  0  0  0  0  0
    2.4540   -0.3103   -3.4040 N   0  0  0  0  0  0  0  0  0  0  0  0
    1.1494   -0.2128   -2.8039 C   0  0  2  0  0  0  0  0  0  0  0  0
    1.3350    0.0367   -1.3130 C   0  0  0  0  0  0  0  0  0  0  0  0
    2.3625   -0.2586   -0.7063 O   0  0  0  0  0  0  0  0  0  0  0  0
    0.3331   -1.4728   -3.0467 C   0  0  0  0  0  0  0  0  0  0  0  0
    2.6924    0.3404   -4.1502 H   0  0  0  0  0  0  0  0  0  0  0  0
    0.6550    0.6514   -3.2607 H   0  0  0  0  0  0  0  0  0  0  0  0
    0.8129   -2.3494   -2.5963 H   0  0  0  0  0  0  0  0  0  0  0  0
   -0.6690   -1.3857   -2.6142 H   0  0  0  0  0  0  0  0  0  0  0  0
    0.2259   -1.6670   -4.1194 H   0  0  0  0  0  0  0  0  0  0  0  0
    0.2019    0.5893   -0.7269 N   0  0  0  0  0  0  0  0  0  0  0  0
    0.1242    0.9059    0.6756 C   0  0  2  0  0  0  0  0  0  0  0  0
    0.6107    2.3424    0.8393 C   0  0  0  0  0  0  0  0  0  0  0  0
    0.4439    3.2073   -0.0183 O   0  0  0  0  0  0  0  0  0  0  0  0
    0.9724   -0.0423    1.5327 C   0  0  0  0  0  0  0  0  0  0  0  0
    0.4903   -1.5073    1.5470 C   0  0  0  0  0  0  0  0  0  0  0  0
    1.4965   -2.3743    2.3089 C   0  0  0  0  0  0  0  0  0  0  0  0
    0.2895   -2.0684    0.1386 C   0  0  0  0  0  0  0  0  0  0  0  0
   -0.5975    0.8179   -1.3140 H   0  0  0  0  0  0  0  0  0  0  0  0
   -0.9330    0.8584    0.9557 H   0  0  0  0  0  0  0  0  0  0  0  0
    0.9884    0.3325    2.5658 H   0  0  0  0  0  0  0  0  0  0  0  0
    2.0144   -0.0109    1.1876 H   0  0  0  0  0  0  0  0  0  0  0  0
   -0.4665   -1.5661    2.0801 H   0  0  0  0  0  0  0  0  0  0  0  0
    2.4764   -2.3542    1.8201 H   0  0  0  0  0  0  0  0  0  0  0  0
    1.1639   -3.4172    2.3436 H   0  0  0  0  0  0  0  0  0  0  0  0
    1.6242   -2.0242    3.3389 H   0  0  0  0  0  0  0  0  0  0  0  0
    1.2193   -2.0328   -0.4392 H   0  0  0  0  0  0  0  0  0  0  0  0
   -0.0422   -3.1116    0.1802 H   0  0  0  0  0  0  0  0  0  0  0  0
   -0.4749   -1.5089   -0.4085 H   0  0  0  0  0  0  0  0  0  0  0  0
    1.2059    2.5528    2.0754 N   0  0  0  0  0  0  0  0  0  0  0  0
    1.7289    3.8328    2.4957 C   0  0  2  0  0  0  0  0  0  0  0  0
    0.7725    4.9140    2.0101 C   0  0  0  0  0  0  0  0  0  0  0  0
   -0.0029    4.7509    1.0703 O   0  0  0  0  0  0  0  0  0  0  0  0
    3.1306    4.0631    1.9526 C   0  0  0  0  0  0  0  0  0  0  0  0
    1.2754    1.7804    2.7313 H   0  0  0  0  0  0  0  0  0  0  0  0
    1.7450    3.8237    3.5910 H   0  0  0  0  0  0  0  0  0  0  0  0
    3.1345    4.0755    0.8566 H   0  0  0  0  0  0  0  0  0  0  0  0
    3.5365    5.0206    2.2953 H   0  0  0  0  0  0  0  0  0  0  0  0
    3.8103    3.2684    2.2784 H   0  0  0  0  0  0  0  0  0  0  0  0
    0.9171    6.0967    2.7218 N   0  0  0  0  0  0  0  0  0  0  0  0
    0.1314    7.2759    2.4424 C   0  0  0  0  0  0  0  0  0  0  0  0
    1.5715    6.1361    3.4977 H   0  0  0  0  0  0  0  0  0  0  0  0
    0.6715    7.9167    1.7299 H   0  0  0  0  0  0  0  0  0  0  0  0
   -0.8346    6.9783    2.0083 H   0  0  0  0  0  0  0  0  0  0  0  0
   -0.0417    7.8308    3.3762 H   0  0  0  0  0  0  0  0  0  0  0  0
  1  3  1  0  0  0  0
  1  7  1  0  0  0  0
  1  2  2  0  0  0  0
 37 38  1  0  0  0  0
 38 46  1  0  0  0  0
 38 39  2  0  0  0  0
  8  9  1  0  0  0  0
  9 17  1  0  0  0  0
  9 10  2  0  0  0  0
 18 19  1  0  0  0  0
 19 36  1  0  0  0  0
 19 20  2  0  0  0  0
 37 40  1  0  0  0  0
  8 11  1  0  0  0  0
 22 23  1  0  0  0  0
 22 24  1  0  0  0  0
 46 47  1  0  0  0  0
 18 21  1  0  0  0  0
 21 22  1  0  0  0  0
 36 37  1  0  0  0  0
  7  8  1  0  0  0  0
 17 18  1  0  0  0  0
  3  4  1  0  0  0  0
  3  5  1  0  0  0  0
  3  6  1  0  0  0  0
 40 43  1  0  0  0  0
 40 44  1  0  0  0  0
 40 45  1  0  0  0  0
 11 14  1  0  0  0  0
 11 15  1  0  0  0  0
 11 16  1  0  0  0  0
 23 30  1  0  0  0  0
 23 31  1  0  0  0  0
 23 32  1  0  0  0  0
 24 33  1  0  0  0  0
 24 34  1  0  0  0  0
 24 35  1  0  0  0  0
 47 49  1  0  0  0  0
 47 50  1  0  0  0  0
 47 51  1  0  0  0  0
 21 27  1  0  0  0  0
 21 28  1  0  0  0  0
 37 42  1  0  0  0  0
  8 13  1  0  0  0  0
 18 26  1  0  0  0  0
 22 29  1  0  0  0  0
 46 48  1  0  0  0  0
  7 12  1  0  0  0  0
 36 41  1  0  0  0  0
 17 25  1  0  0  0  0
M  END
$$$$

  -OEChem-05262214473D

 51 50  0     1  0  0  0  0  0999 V2000
    3.4018   -1.2440   -3.0186 C   0  0  0  0  0  0  0  0  0  0  0  0
    3.2697   -2.0909   -2.1427 O   0  0  0  0  0  0  0  0  0  0  0  0
    4.6845   -1.1645   -3.7779 C   0  0  0  0  0  0  0  0  0  0  0  0
    5.4123   -0.4862   -3.3041 H   0  0  0  0  0  0  0  0  0  0  0  0
    5.1949   -2.1387   -3.8443 H   0  0  0  0  0  0  0  0  0  0  0  0
    4.5953   -0.8128   -4.8182 H   0  0  0  0  0  0  0  0  0  0  0  0
    2.4540   -0.3103   -3.4040 N   0  0  0  0  0  0  0  0  0  0  0  0
    1.1494   -0.2128   -2.8039 C   0  0  2  0  0  0  0  0  0  0  0  0
    1.3350    0.0367   -1.3130 C   0  0  0  0  0  0  0  0  0  0  0  0
    2.3625   -0.2586   -0.7063 O   0  0  0  0  0  0  0  0  0  0  0  0
    0.3331   -1.4728   -3.0467 C   0  0  0  0  0  0  0  0  0  0  0  0
    2.6924    0.3404   -4.1502 H   0  0  0  0  0  0  0  0  0  0  0  0
    0.6550    0.6514   -3.2607 H   0  0  0  0  0  0  0  0  0  0  0  0
    0.8129   -2.3494   -2.5963 H   0  0  0  0  0  0  0  0  0  0  0  0
   -0.6690   -1.3857   -2.6142 H   0  0  0  0  0  0  0  0  0  0  0  0
    0.2259   -1.6670   -4.1194 H   0  0  0  0  0  0  0  0  0  0  0  0
    0.2019    0.5893   -0.7269 N   0  0  0  0  0  0  0  0  0  0  0  0
    0.1242    0.9059    0.6756 C   0  0  2  0  0  0  0  0  0  0  0  0
    0.6107    2.3424    0.8393 C   0  0  0  0  0  0  0  0  0  0  0  0
    0.2239    3.2655    0.1255 O   0  0  0  0  0  0  0  0  0  0  0  0
    0.9724   -0.0423    1.5327 C   0  0  0  0  0  0  0  0  0  0  0  0
    0.4903   -1.5073    1.5470 C   0  0  0  0  0  0  0  0  0  0  0  0
    1.4965   -2.3743    2.3089 C   0  0  0  0  0  0  0  0  0  0  0  0
    0.2895   -2.0684    0.1386 C   0  0  0  0  0  0  0  0  0  0  0  0
   -0.5975    0.8179   -1.3140 H   0  0  0  0  0  0  0  0  0  0  0  0
   -0.9330    0.8584    0.9557 H   0  0  0  0  0  0  0  0  0  0  0  0
    0.9884    0.3325    2.5658 H   0  0  0  0  0  0  0  0  0  0  0  0
    2.0144   -0.0109    1.1876 H   0  0  0  0  0  0  0  0  0  0  0  0
   -0.4665   -1.5661    2.0801 H   0  0  0  0  0  0  0  0  0  0  0  0
    2.4764   -2.3542    1.8201 H   0  0  0  0  0  0  0  0  0  0  0  0
    1.1639   -3.4172    2.3436 H   0  0  0  0  0  0  0  0  0  0  0  0
    1.6242   -2.0242    3.3389 H   0  0  0  0  0  0  0  0  0  0  0  0
    1.2193   -2.0328   -0.4392 H   0  0  0  0  0  0  0  0  0  0  0  0
   -0.0422   -3.1116    0.1802 H   0  0  0  0  0  0  0  0  0  0  0  0
   -0.4749   -1.5089   -0.4085 H   0  0  0  0  0  0  0  0  0  0  0  0
    1.4867    2.4768    1.9075 N   0  0  0  0  0  0  0  0  0  0  0  0
    2.0742    3.7385    2.2968 C   0  0  2  0  0  0  0  0  0  0  0  0
    1.0092    4.8176    2.1526 C   0  0  0  0  0  0  0  0  0  0  0  0
    0.0303    4.7000    1.4185 O   0  0  0  0  0  0  0  0  0  0  0  0
    3.2959    4.0642    1.4519 C   0  0  0  0  0  0  0  0  0  0  0  0
    1.7283    1.6582    2.4581 H   0  0  0  0  0  0  0  0  0  0  0  0
    2.3582    3.6434    3.3506 H   0  0  0  0  0  0  0  0  0  0  0  0
    3.0311    4.1633    0.3928 H   0  0  0  0  0  0  0  0  0  0  0  0
    3.7566    5.0063    1.7669 H   0  0  0  0  0  0  0  0  0  0  0  0
    4.0485    3.2725    1.5335 H   0  0  0  0  0  0  0  0  0  0  0  0
    1.3029    5.9449    2.9070 N   0  0  0  0  0  0  0  0  0  0  0  0
    0.4521    7.1118    2.9289 C   0  0  0  0  0  0  0  0  0  0  0  0
    2.1266    5.9477    3.5014 H   0  0  0  0  0  0  0  0  0  0  0  0
    0.7900    7.8270    2.1645 H   0  0  0  0  0  0  0  0  0  0  0  0
   -0.5854    6.8130    2.7181 H   0  0  0  0  0  0  0  0  0  0  0  0
    0.5032    7.5841    3.9210 H   0  0  0  0  0  0  0  0  0  0  0  0
  1  3  1  0  0  0  0
  1  7  1  0  0  0  0
  1  2  2  0  0  0  0
 37 38  1  0  0  0  0
 38 46  1  0  0  0  0
 38 39  2  0  0  0  0
  8  9  1  0  0  0  0
  9 17  1  0  0  0  0
  9 10  2  0  0  0  0
 18 19  1  0  0  0  0
 19 36  1  0  0  0  0
 19 20  2  0  0  0  0
 37 40  1  0  0  0  0
  8 11  1  0  0  0  0
 22 23  1  0  0  0  0
 22 24  1  0  0  0  0
 46 47  1  0  0  0  0
 18 21  1  0  0  0  0
 21 22  1  0  0  0  0
 36 37  1  0  0  0  0
  7  8  1  0  0  0  0
 17 18  1  0  0  0  0
  3  4  1  0  0  0  0
  3  5  1  0  0  0  0
  3  6  1  0  0  0  0
 40 43  1  0  0  0  0
 40 44  1  0  0  0  0
 40 45  1  0  0  0  0
 11 14  1  0  0  0  0
 11 15  1  0  0  0  0
 11 16  1  0  0  0  0
 23 30  1  0  0  0  0
 23 31  1  0  0  0  0
 23 32  1  0  0  0  0
 24 33  1  0  0  0  0
 24 34  1  0  0  0  0
 24 35  1  0  0  0  0
 47 49  1  0  0  0  0
 47 50  1  0  0  0  0
 47 51  1  0  0  0  0
 21 27  1  0  0  0  0
 21 28  1  0  0  0  0
 37 42  1  0  0  0  0
  8 13  1  0  0  0  0
 18 26  1  0  0  0  0
 22 29  1  0  0  0  0
 46 48  1  0  0  0  0
  7 12  1  0  0  0  0
 36 41  1  0  0  0  0
 17 25  1  0  0  0  0
M  END
$$$$

  -OEChem-05262214473D

 51 50  0     1  0  0  0  0  0999 V2000
    3.4018   -1.2440   -3.0186 C   0  0  0  0  0  0  0  0  0  0  0  0
    3.2697   -2.0909   -2.1427 O   0  0  0  0  0  0  0  0  0  0  0  0
    4.6845   -1.1645   -3.7779 C   0  0  0  0  0  0  0  0  0  0  0  0
    5.4123   -0.4862   -3.3041 H   0  0  0  0  0  0  0  0  0  0  0  0
    5.1949   -2.1387   -3.8443 H   0  0  0  0  0  0  0  0  0  0  0  0
    4.5953   -0.8128   -4.8182 H   0  0  0  0  0  0  0  0  0  0  0  0
    2.4540   -0.3103   -3.4040 N   0  0  0  0  0  0  0  0  0  0  0  0
    1.1494   -0.2128   -2.8039 C   0  0  2  0  0  0  0  0  0  0  0  0
    1.3350    0.0367   -1.3130 C   0  0  0  0  0  0  0  0  0  0  0  0
    2.3625   -0.2586   -0.7063 O   0  0  0  0  0  0  0  0  0  0  0  0
    0.3331   -1.4728   -3.0467 C   0  0  0  0  0  0  0  0  0  0  0  0
    2.6924    0.3404   -4.1502 H   0  0  0  0  0  0  0  0  0  0  0  0
    0.6550    0.6514   -3.2607 H   0  0  0  0  0  0  0  0  0  0  0  0
    0.8129   -2.3494   -2.5963 H   0  0  0  0  0  0  0  0  0  0  0  0
   -0.6690   -1.3857   -2.6142 H   0  0  0  0  0  0  0  0  0  0  0  0
    0.2259   -1.6670   -4.1194 H   0  0  0  0  0  0  0  0  0  0  0  0
    0.2019    0.5893   -0.7269 N   0  0  0  0  0  0  0  0  0  0  0  0
    0.1242    0.9059    0.6756 C   0  0  2  0  0  0  0  0  0  0  0  0
    0.6107    2.3424    0.8393 C   0  0  0  0  0  0  0  0  0  0  0  0
    0.0447    3.3037    0.3227 O   0  0  0  0  0  0  0  0  0  0  0  0
    0.9724   -0.0423    1.5327 C   0  0  0  0  0  0  0  0  0  0  0  0
    0.4903   -1.5073    1.5470 C   0  0  0  0  0  0  0  0  0  0  0  0
    1.4965   -2.3743    2.3089 C   0  0  0  0  0  0  0  0  0  0  0  0
    0.2895   -2.0684    0.1386 C   0  0  0  0  0  0  0  0  0  0  0  0
   -0.5975    0.8179   -1.3140 H   0  0  0  0  0  0  0  0  0  0  0  0
   -0.9330    0.8584    0.9557 H   0  0  0  0  0  0  0  0  0  0  0  0
    0.9884    0.3325    2.5658 H   0  0  0  0  0  0  0  0  0  0  0  0
    2.0144   -0.0109    1.1876 H   0  0  0  0  0  0  0  0  0  0  0  0
   -0.4665   -1.5661    2.0801 H   0  0  0  0  0  0  0  0  0  0  0  0
    2.4764   -2.3542    1.8201 H   0  0  0  0  0  0  0  0  0  0  0  0
    1.1639   -3.4172    2.3436 H   0  0  0  0  0  0  0  0  0  0  0  0
    1.6242   -2.0242    3.3389 H   0  0  0  0  0  0  0  0  0  0  0  0
    1.2193   -2.0328   -0.4392 H   0  0  0  0  0  0  0  0  0  0  0  0
   -0.0422   -3.1116    0.1802 H   0  0  0  0  0  0  0  0  0  0  0  0
   -0.4749   -1.5089   -0.4085 H   0  0  0  0  0  0  0  0  0  0  0  0
    1.7191    2.4251    1.6706 N   0  0  0  0  0  0  0  0  0  0  0  0
    2.3619    3.6734    2.0128 C   0  0  2  0  0  0  0  0  0  0  0  0
    1.2752    4.7193    2.2245 C   0  0  0  0  0  0  0  0  0  0  0  0
    0.1485    4.6231    1.7425 O   0  0  0  0  0  0  0  0  0  0  0  0
    3.3336    4.1111    0.9280 C   0  0  0  0  0  0  0  0  0  0  0  0
    2.1025    1.5752    2.0736 H   0  0  0  0  0  0  0  0  0  0  0  0
    2.8969    3.5061    2.9540 H   0  0  0  0  0  0  0  0  0  0  0  0
    2.8157    4.2836   -0.0226 H   0  0  0  0  0  0  0  0  0  0  0  0
    3.8407    5.0422    1.2017 H   0  0  0  0  0  0  0  0  0  0  0  0
    4.0970    3.3447    0.7562 H   0  0  0  0  0  0  0  0  0  0  0  0
    1.7249    5.7938    2.9792 N   0  0  0  0  0  0  0  0  0  0  0  0
    0.8850    6.9220    3.3071 C   0  0  0  0  0  0  0  0  0  0  0  0
    2.6689    5.7808    3.3541 H   0  0  0  0  0  0  0  0  0  0  0  0
    1.0129    7.7078    2.5481 H   0  0  0  0  0  0  0  0  0  0  0  0
   -0.1671    6.6016    3.3294 H   0  0  0  0  0  0  0  0  0  0  0  0
    1.1693    7.3160    4.2940 H   0  0  0  0  0  0  0  0  0  0  0  0
  1  3  1  0  0  0  0
  1  7  1  0  0  0  0
  1  2  2  0  0  0  0
 37 38  1  0  0  0  0
 38 46  1  0  0  0  0
 38 39  2  0  0  0  0
  8  9  1  0  0  0  0
  9 17  1  0  0  0  0
  9 10  2  0  0  0  0
 18 19  1  0  0  0  0
 19 36  1  0  0  0  0
 19 20  2  0  0  0  0
 37 40  1  0  0  0  0
  8 11  1  0  0  0  0
 22 23  1  0  0  0  0
 22 24  1  0  0  0  0
 46 47  1  0  0  0  0
 18 21  1  0  0  0  0
 21 22  1  0  0  0  0
 36 37  1  0  0  0  0
  7  8  1  0  0  0  0
 17 18  1  0  0  0  0
  3  4  1  0  0  0  0
  3  5  1  0  0  0  0
  3  6  1  0  0  0  0
 40 43  1  0  0  0  0
 40 44  1  0  0  0  0
 40 45  1  0  0  0  0
 11 14  1  0  0  0  0
 11 15  1  0  0  0  0
 11 16  1  0  0  0  0
 23 30  1  0  0  0  0
 23 31  1  0  0  0  0
 23 32  1  0  0  0  0
 24 33  1  0  0  0  0
 24 34  1  0  0  0  0
 24 35  1  0  0  0  0
 47 49  1  0  0  0  0
 47 50  1  0  0  0  0
 47 51  1  0  0  0  0
 21 27  1  0  0  0  0
 21 28  1  0  0  0  0
 37 42  1  0  0  0  0
  8 13  1  0  0  0  0
 18 26  1  0  0  0  0
 22 29  1  0  0  0  0
 46 48  1  0  0  0  0
  7 12  1  0  0  0  0
 36 41  1  0  0  0  0
 17 25  1  0  0  0  0
M  END
$$$$

  -OEChem-05262214473D

 51 50  0     1  0  0  0  0  0999 V2000
    3.4018   -1.2440   -3.0186 C   0  0  0  0  0  0  0  0  0  0  0  0
    3.2697   -2.0909   -2.1427 O   0  0  0  0  0  0  0  0  0  0  0  0
    4.6845   -1.1645   -3.7779 C   0  0  0  0  0  0  0  0  0  0  0  0
    5.4123   -0.4862   -3.3041 H   0  0  0  0  0  0  0  0  0  0  0  0
    5.1949   -2.1387   -3.8443 H   0  0  0  0  0  0  0  0  0  0  0  0
    4.5953   -0.8128   -4.8182 H   0  0  0  0  0  0  0  0  0  0  0  0
    2.4540   -0.3103   -3.4040 N   0  0  0  0  0  0  0  0  0  0  0  0
    1.1494   -0.2128   -2.8039 C   0  0  2  0  0  0  0  0  0  0  0  0
    1.3350    0.0367   -1.3130 C   0  0  0  0  0  0  0  0  0  0  0  0
    2.3625   -0.2586   -0.7063 O   0  0  0  0  0  0  0  0  0  0  0  0
    0.3331   -1.4728   -3.0467 C   0  0  0  0  0  0  0  0  0  0  0  0
    2.6924    0.3404   -4.1502 H   0  0  0  0  0  0  0  0  0  0  0  0
    0.6550    0.6514   -3.2607 H   0  0  0  0  0  0  0  0  0  0  0  0
    0.8129   -2.3494   -2.5963 H   0  0  0  0  0  0  0  0  0  0  0  0
   -0.6690   -1.3857   -2.6142 H   0  0  0  0  0  0  0  0  0  0  0  0
    0.2259   -1.6670   -4.1194 H   0  0  0  0  0  0  0  0  0  0  0  0
    0.2019    0.5893   -0.7269 N   0  0  0  0  0  0  0  0  0  0  0  0
    0.1242    0.9059    0.6756 C   0  0  2  0  0  0  0  0  0  0  0  0
    0.6107    2.3424    0.8393 C   0  0  0  0  0  0  0  0  0  0  0  0
   -0.0813    3.3193    0.5601 O   0  0  0  0  0  0  0  0  0  0  0  0
    0.9724   -0.0423    1.5327 C   0  0  0  0  0  0  0  0  0  0  0  0
    0.4903   -1.5073    1.5470 C   0  0  0  0  0  0  0  0  0  0  0  0
    1.4965   -2.3743    2.3089 C   0  0  0  0  0  0  0  0  0  0  0  0
    0.2895   -2.0684    0.1386 C   0  0  0  0  0  0  0  0  0  0  0  0
   -0.5975    0.8179   -1.3140 H   0  0  0  0  0  0  0  0  0  0  0  0
   -0.9330    0.8584    0.9557 H   0  0  0  0  0  0  0  0  0  0  0  0
    0.9884    0.3325    2.5658 H   0  0  0  0  0  0  0  0  0  0  0  0
    2.0144   -0.0109    1.1876 H   0  0  0  0  0  0  0  0  0  0  0  0
   -0.4665   -1.5661    2.0801 H   0  0  0  0  0  0  0  0  0  0  0  0
    2.4764   -2.3542    1.8201 H   0  0  0  0  0  0  0  0  0  0  0  0
    1.1639   -3.4172    2.3436 H   0  0  0  0  0  0  0  0  0  0  0  0
    1.6242   -2.0242    3.3389 H   0  0  0  0  0  0  0  0  0  0  0  0
    1.2193   -2.0328   -0.4392 H   0  0  0  0  0  0  0  0  0  0  0  0
   -0.0422   -3.1116    0.1802 H   0  0  0  0  0  0  0  0  0  0  0  0
   -0.4749   -1.5089   -0.4085 H   0  0  0  0  0  0  0  0  0  0  0  0
    1.8873    2.4011    1.3809 N   0  0  0  0  0  0  0  0  0  0  0  0
    2.5723    3.6420    1.6630 C   0  0  2  0  0  0  0  0  0  0  0  0
    1.5524    4.6258    2.2211 C   0  0  0  0  0  0  0  0  0  0  0  0
    0.3439    4.5252    2.0203 O   0  0  0  0  0  0  0  0  0  0  0  0
    3.2409    4.2008    0.4166 C   0  0  0  0  0  0  0  0  0  0  0  0
    2.3726    1.5372    1.6042 H   0  0  0  0  0  0  0  0  0  0  0  0
    3.3244    3.4212    2.4283 H   0  0  0  0  0  0  0  0  0  0  0  0
    2.5031    4.4281   -0.3615 H   0  0  0  0  0  0  0  0  0  0  0  0
    3.7833    5.1259    0.6382 H   0  0  0  0  0  0  0  0  0  0  0  0
    3.9524    3.4799   -0.0004 H   0  0  0  0  0  0  0  0  0  0  0  0
    2.1543    5.6535    2.9337 N   0  0  0  0  0  0  0  0  0  0  0  0
    1.4007    6.7196    3.5513 C   0  0  0  0  0  0  0  0  0  0  0  0
    3.1614    5.6468    3.0658 H   0  0  0  0  0  0  0  0  0  0  0  0
    1.3249    7.5672    2.8544 H   0  0  0  0  0  0  0  0  0  0  0  0
    0.3919    6.3586    3.8004 H   0  0  0  0  0  0  0  0  0  0  0  0
    1.9110    7.0448    4.4699 H   0  0  0  0  0  0  0  0  0  0  0  0
  1  3  1  0  0  0  0
  1  7  1  0  0  0  0
  1  2  2  0  0  0  0
 37 38  1  0  0  0  0
 38 46  1  0  0  0  0
 38 39  2  0  0  0  0
  8  9  1  0  0  0  0
  9 17  1  0  0  0  0
  9 10  2  0  0  0  0
 18 19  1  0  0  0  0
 19 36  1  0  0  0  0
 19 20  2  0  0  0  0
 37 40  1  0  0  0  0
  8 11  1  0  0  0  0
 22 23  1  0  0  0  0
 22 24  1  0  0  0  0
 46 47  1  0  0  0  0
 18 21  1  0  0  0  0
 21 22  1  0  0  0  0
 36 37  1  0  0  0  0
  7  8  1  0  0  0  0
 17 18  1  0  0  0  0
  3  4  1  0  0  0  0
  3  5  1  0  0  0  0
  3  6  1  0  0  0  0
 40 43  1  0  0  0  0
 40 44  1  0  0  0  0
 40 45  1  0  0  0  0
 11 14  1  0  0  0  0
 11 15  1  0  0  0  0
 11 16  1  0  0  0  0
 23 30  1  0  0  0  0
 23 31  1  0  0  0  0
 23 32  1  0  0  0  0
 24 33  1  0  0  0  0
 24 34  1  0  0  0  0
 24 35  1  0  0  0  0
 47 49  1  0  0  0  0
 47 50  1  0  0  0  0
 47 51  1  0  0  0  0
 21 27  1  0  0  0  0
 21 28  1  0  0  0  0
 37 42  1  0  0  0  0
  8 13  1  0  0  0  0
 18 26  1  0  0  0  0
 22 29  1  0  0  0  0
 46 48  1  0  0  0  0
  7 12  1  0  0  0  0
 36 41  1  0  0  0  0
 17 25  1  0  0  0  0
M  END
$$$$

  -OEChem-05262214473D

 51 50  0     1  0  0  0  0  0999 V2000
    3.4018   -1.2440   -3.0186 C   0  0  0  0  0  0  0  0  0  0  0  0
    3.2697   -2.0909   -2.1427 O   0  0  0  0  0  0  0  0  0  0  0  0
    4.6845   -1.1645   -3.7779 C   0  0  0  0  0  0  0  0  0  0  0  0
    5.4123   -0.4862   -3.3041 H   0  0  0  0  0  0  0  0  0  0  0  0
    5.1949   -2.1387   -3.8443 H   0  0  0  0  0  0  0  0  0  0  0  0
    4.5953   -0.8128   -4.8182 H   0  0  0  0  0  0  0  0  0  0  0  0
    2.4540   -0.3103   -3.4040 N   0  0  0  0  0  0  0  0  0  0  0  0
    1.1494   -0.2128   -2.8039 C   0  0  2  0  0  0  0  0  0  0  0  0
    1.3350    0.0367   -1.3130 C   0  0  0  0  0  0  0  0  0  0  0  0
    2.3625   -0.2586   -0.7063 O   0  0  0  0  0  0  0  0  0  0  0  0
    0.3331   -1.4728   -3.0467 C   0  0  0  0  0  0  0  0  0  0  0  0
    2.6924    0.3404   -4.1502 H   0  0  0  0  0  0  0  0  0  0  0  0
    0.6550    0.6514   -3.2607 H   0  0  0  0  0  0  0  0  0  0  0  0
    0.8129   -2.3494   -2.5963 H   0  0  0  0  0  0  0  0  0  0  0  0
   -0.6690   -1.3857   -2.6142 H   0  0  0  0  0  0  0  0  0  0  0  0
    0.2259   -1.6670   -4.1194 H   0  0  0  0  0  0  0  0  0  0  0  0
    0.2019    0.5893   -0.7269 N   0  0  0  0  0  0  0  0  0  0  0  0
    0.1242    0.9059    0.6756 C   0  0  2  0  0  0  0  0  0  0  0  0
    0.6107    2.3424    0.8393 C   0  0  0  0  0  0  0  0  0  0  0  0
   -0.1456    3.3113    0.8213 O   0  0  0  0  0  0  0  0  0  0  0  0
    0.9724   -0.0423    1.5327 C   0  0  0  0  0  0  0  0  0  0  0  0
    0.4903   -1.5073    1.5470 C   0  0  0  0  0  0  0  0  0  0  0  0
    1.4965   -2.3743    2.3089 C   0  0  0  0  0  0  0  0  0  0  0  0
    0.2895   -2.0684    0.1386 C   0  0  0  0  0  0  0  0  0  0  0  0
   -0.5975    0.8179   -1.3140 H   0  0  0  0  0  0  0  0  0  0  0  0
   -0.9330    0.8584    0.9557 H   0  0  0  0  0  0  0  0  0  0  0  0
    0.9884    0.3325    2.5658 H   0  0  0  0  0  0  0  0  0  0  0  0
    2.0144   -0.0109    1.1876 H   0  0  0  0  0  0  0  0  0  0  0  0
   -0.4665   -1.5661    2.0801 H   0  0  0  0  0  0  0  0  0  0  0  0
    2.4764   -2.3542    1.8201 H   0  0  0  0  0  0  0  0  0  0  0  0
    1.1639   -3.4172    2.3436 H   0  0  0  0  0  0  0  0  0  0  0  0
    1.6242   -2.0242    3.3389 H   0  0  0  0  0  0  0  0  0  0  0  0
    1.2193   -2.0328   -0.4392 H   0  0  0  0  0  0  0  0  0  0  0  0
   -0.0422   -3.1116    0.1802 H   0  0  0  0  0  0  0  0  0  0  0  0
   -0.4749   -1.5089   -0.4085 H   0  0  0  0  0  0  0  0  0  0  0  0
    1.9799    2.4066    1.0580 N   0  0  0  0  0  0  0  0  0  0  0  0
    2.6912    3.6464    1.2712 C   0  0  2  0  0  0  0  0  0  0  0  0
    1.8220    4.5435    2.1425 C   0  0  0  0  0  0  0  0  0  0  0  0
    0.6030    4.4132    2.2330 O   0  0  0  0  0  0  0  0  0  0  0  0
    3.0243    4.3270   -0.0473 C   0  0  0  0  0  0  0  0  0  0  0  0
    2.5201    1.5468    1.0819 H   0  0  0  0  0  0  0  0  0  0  0  0
    3.6115    3.3945    1.8094 H   0  0  0  0  0  0  0  0  0  0  0  0
    2.1146    4.5870   -0.6007 H   0  0  0  0  0  0  0  0  0  0  0  0
    3.5881    5.2516    0.1148 H   0  0  0  0  0  0  0  0  0  0  0  0
    3.6245    3.6689   -0.6849 H   0  0  0  0  0  0  0  0  0  0  0  0
    2.5619    5.5337    2.7735 N   0  0  0  0  0  0  0  0  0  0  0  0
    1.9639    6.5182    3.6448 C   0  0  0  0  0  0  0  0  0  0  0  0
    3.5707    5.5549    2.6563 H   0  0  0  0  0  0  0  0  0  0  0  0
    1.7049    7.4148    3.0626 H   0  0  0  0  0  0  0  0  0  0  0  0
    1.0533    6.1006    4.0992 H   0  0  0  0  0  0  0  0  0  0  0  0
    2.6778    6.7888    4.4366 H   0  0  0  0  0  0  0  0  0  0  0  0
  1  3  1  0  0  0  0
  1  7  1  0  0  0  0
  1  2  2  0  0  0  0
 37 38  1  0  0  0  0
 38 46  1  0  0  0  0
 38 39  2  0  0  0  0
  8  9  1  0  0  0  0
  9 17  1  0  0  0  0
  9 10  2  0  0  0  0
 18 19  1  0  0  0  0
 19 36  1  0  0  0  0
 19 20  2  0  0  0  0
 37 40  1  0  0  0  0
  8 11  1  0  0  0  0
 22 23  1  0  0  0  0
 22 24  1  0  0  0  0
 46 47  1  0  0  0  0
 18 21  1  0  0  0  0
 21 22  1  0  0  0  0
 36 37  1  0  0  0  0
  7  8  1  0  0  0  0
 17 18  1  0  0  0  0
  3  4  1  0  0  0  0
  3  5  1  0  0  0  0
  3  6  1  0  0  0  0
 40 43  1  0  0  0  0
 40 44  1  0  0  0  0
 40 45  1  0  0  0  0
 11 14  1  0  0  0  0
 11 15  1  0  0  0  0
 11 16  1  0  0  0  0
 23 30  1  0  0  0  0
 23 31  1  0  0  0  0
 23 32  1  0  0  0  0
 24 33  1  0  0  0  0
 24 34  1  0  0  0  0
 24 35  1  0  0  0  0
 47 49  1  0  0  0  0
 47 50  1  0  0  0  0
 47 51  1  0  0  0  0
 21 27  1  0  0  0  0
 21 28  1  0  0  0  0
 37 42  1  0  0  0  0
  8 13  1  0  0  0  0
 18 26  1  0  0  0  0
 22 29  1  0  0  0  0
 46 48  1  0  0  0  0
  7 12  1  0  0  0  0
 36 41  1  0  0  0  0
 17 25  1  0  0  0  0
M  END
$$$$

  -OEChem-05262214473D

 51 50  0     1  0  0  0  0  0999 V2000
    3.4018   -1.2440   -3.0186 C   0  0  0  0  0  0  0  0  0  0  0  0
    3.2697   -2.0909   -2.1427 O   0  0  0  0  0  0  0  0  0  0  0  0
    4.6845   -1.1645   -3.7779 C   0  0  0  0  0  0  0  0  0  0  0  0
    5.4123   -0.4862   -3.3041 H   0  0  0  0  0  0  0  0  0  0  0  0
    5.1949   -2.1387   -3.8443 H   0  0  0  0  0  0  0  0  0  0  0  0
    4.5953   -0.8128   -4.8182 H   0  0  0  0  0  0  0  0  0  0  0  0
    2.4540   -0.3103   -3.4040 N   0  0  0  0  0  0  0  0  0  0  0  0
    1.1494   -0.2128   -2.8039 C   0  0  2  0  0  0  0  0  0  0  0  0
    1.3350    0.0367   -1.3130 C   0  0  0  0  0  0  0  0  0  0  0  0
    2.3625   -0.2586   -0.7063 O   0  0  0  0  0  0  0  0  0  0  0  0
    0.3331   -1.4728   -3.0467 C   0  0  0  0  0  0  0  0  0  0  0  0
    2.6924    0.3404   -4.1502 H   0  0  0  0  0  0  0  0  0  0  0  0
    0.6550    0.6514   -3.2607 H   0  0  0  0  0  0  0  0  0  0  0  0
    0.8129   -2.3494   -2.5963 H   0  0  0  0  0  0  0  0  0  0  0  0
   -0.6690   -1.3857   -2.6142 H   0  0  0  0  0  0  0  0  0  0  0  0
    0.2259   -1.6670   -4.1194 H   0  0  0  0  0  0  0  0  0  0  0  0
    0.2019    0.5893   -0.7269 N   0  0  0  0  0  0  0  0  0  0  0  0
    0.1242    0.9059    0.6756 C   0  0  2  0  0  0  0  0  0  0  0  0
    0.6107    2.3424    0.8393 C   0  0  0  0  0  0  0  0  0  0  0  0
   -0.1439    3.2803    1.0887 O   0  0  0  0  0  0  0  0  0  0  0  0
    0.9724   -0.0423    1.5327 C   0  0  0  0  0  0  0  0  0  0  0  0
    0.4903   -1.5073    1.5470 C   0  0  0  0  0  0  0  0  0  0  0  0
    1.4965   -2.3743    2.3089 C   0  0  0  0  0  0  0  0  0  0  0  0
    0.2895   -2.0684    0.1386 C   0  0  0  0  0  0  0  0  0  0  0  0
   -0.5975    0.8179   -1.3140 H   0  0  0  0  0  0  0  0  0  0  0  0
   -0.9330    0.8584    0.9557 H   0  0  0  0  0  0  0  0  0  0  0  0
    0.9884    0.3325    2.5658 H   0  0  0  0  0  0  0  0  0  0  0  0
    2.0144   -0.0109    1.1876 H   0  0  0  0  0  0  0  0  0  0  0  0
   -0.4665   -1.5661    2.0801 H   0  0  0  0  0  0  0  0  0  0  0  0
    2.4764   -2.3542    1.8201 H   0  0  0  0  0  0  0  0  0  0  0  0
    1.1639   -3.4172    2.3436 H   0  0  0  0  0  0  0  0  0  0  0  0
    1.6242   -2.0242    3.3389 H   0  0  0  0  0  0  0  0  0  0  0  0
    1.2193   -2.0328   -0.4392 H   0  0  0  0  0  0  0  0  0  0  0  0
   -0.0422   -3.1116    0.1802 H   0  0  0  0  0  0  0  0  0  0  0  0
   -0.4749   -1.5089   -0.4085 H   0  0  0  0  0  0  0  0  0  0  0  0
    1.9904    2.4410    0.7241 N   0  0  0  0  0  0  0  0  0  0  0  0
    2.7104    3.6863    0.8642 C   0  0  2  0  0  0  0  0  0  0  0  0
    2.0654    4.4779    1.9941 C   0  0  0  0  0  0  0  0  0  0  0  0
    0.9082    4.2947    2.3660 O   0  0  0  0  0  0  0  0  0  0  0  0
    2.6985    4.4812   -0.4322 C   0  0  0  0  0  0  0  0  0  0  0  0
    2.5350    1.6032    0.5422 H   0  0  0  0  0  0  0  0  0  0  0  0
    3.7388    3.4278    1.1393 H   0  0  0  0  0  0  0  0  0  0  0  0
    1.6766    4.7494   -0.7239 H   0  0  0  0  0  0  0  0  0  0  0  0
    3.2685    5.4109   -0.3328 H   0  0  0  0  0  0  0  0  0  0  0  0
    3.1358    3.8989   -1.2505 H   0  0  0  0  0  0  0  0  0  0  0  0
    2.9199    5.4425    2.5095 N   0  0  0  0  0  0  0  0  0  0  0  0
    2.5362    6.3315    3.5811 C   0  0  0  0  0  0  0  0  0  0  0  0
    3.8687    5.5112    2.1534 H   0  0  0  0  0  0  0  0  0  0  0  0
    2.1269    7.2609    3.1585 H   0  0  0  0  0  0  0  0  0  0  0  0
    1.7721    5.8450    4.2052 H   0  0  0  0  0  0  0  0  0  0  0  0
    3.4175    6.5657    4.1964 H   0  0  0  0  0  0  0  0  0  0  0  0
  1  3  1  0  0  0  0
  1  7  1  0  0  0  0
  1  2  2  0  0  0  0
 37 38  1  0  0  0  0
 38 46  1  0  0  0  0
 38 39  2  0  0  0  0
  8  9  1  0  0  0  0
  9 17  1  0  0  0  0
  9 10  2  0  0  0  0
 18 19  1  0  0  0  0
 19 36  1  0  0  0  0
 19 20  2  0  0  0  0
 37 40  1  0  0  0  0
  8 11  1  0  0  0  0
 22 23  1  0  0  0  0
 22 24  1  0  0  0  0
 46 47  1  0  0  0  0
 18 21  1  0  0  0  0
 21 22  1  0  0  0  0
 36 37  1  0  0  0  0
  7  8  1  0  0  0  0
 17 18  1  0  0  0  0
  3  4  1  0  0  0  0
  3  5  1  0  0  0  0
  3  6  1  0  0  0  0
 40 43  1  0  0  0  0
 40 44  1  0  0  0  0
 40 45  1  0  0  0  0
 11 14  1  0  0  0  0
 11 15  1  0  0  0  0
 11 16  1  0  0  0  0
 23 30  1  0  0  0  0
 23 31  1  0  0  0  0
 23 32  1  0  0  0  0
 24 33  1  0  0  0  0
 24 34  1  0  0  0  0
 24 35  1  0  0  0  0
 47 49  1  0  0  0  0
 47 50  1  0  0  0  0
 47 51  1  0  0  0  0
 21 27  1  0  0  0  0
 21 28  1  0  0  0  0
 37 42  1  0  0  0  0
  8 13  1  0  0  0  0
 18 26  1  0  0  0  0
 22 29  1  0  0  0  0
 46 48  1  0  0  0  0
  7 12  1  0  0  0  0
 36 41  1  0  0  0  0
 17 25  1  0  0  0  0
M  END
$$$$

  -OEChem-05262214473D

 51 50  0     1  0  0  0  0  0999 V2000
    3.4018   -1.2440   -3.0186 C   0  0  0  0  0  0  0  0  0  0  0  0
    3.2697   -2.0909   -2.1427 O   0  0  0  0  0  0  0  0  0  0  0  0
    4.6845   -1.1645   -3.7779 C   0  0  0  0  0  0  0  0  0  0  0  0
    5.4123   -0.4862   -3.3041 H   0  0  0  0  0  0  0  0  0  0  0  0
    5.1949   -2.1387   -3.8443 H   0  0  0  0  0  0  0  0  0  0  0  0
    4.5953   -0.8128   -4.8182 H   0  0  0  0  0  0  0  0  0  0  0  0
    2.4540   -0.3103   -3.4040 N   0  0  0  0  0  0  0  0  0  0  0  0
    1.1494   -0.2128   -2.8039 C   0  0  2  0  0  0  0  0  0  0  0  0
    1.3350    0.0367   -1.3130 C   0  0  0  0  0  0  0  0  0  0  0  0
    2.3625   -0.2586   -0.7063 O   0  0  0  0  0  0  0  0  0  0  0  0
    0.3331   -1.4728   -3.0467 C   0  0  0  0  0  0  0  0  0  0  0  0
    2.6924    0.3404   -4.1502 H   0  0  0  0  0  0  0  0  0  0  0  0
    0.6550    0.6514   -3.2607 H   0  0  0  0  0  0  0  0  0  0  0  0
    0.8129   -2.3494   -2.5963 H   0  0  0  0  0  0  0  0  0  0  0  0
   -0.6690   -1.3857   -2.6142 H   0  0  0  0  0  0  0  0  0  0  0  0
    0.2259   -1.6670   -4.1194 H   0  0  0  0  0  0  0  0  0  0  0  0
    0.2019    0.5893   -0.7269 N   0  0  0  0  0  0  0  0  0  0  0  0
    0.1242    0.9059    0.6756 C   0  0  2  0  0  0  0  0  0  0  0  0
    0.6107    2.3424    0.8393 C   0  0  0  0  0  0  0  0  0  0  0  0
   -0.0761    3.2282    1.3440 O   0  0  0  0  0  0  0  0  0  0  0  0
    0.9724   -0.0423    1.5327 C   0  0  0  0  0  0  0  0  0  0  0  0
    0.4903   -1.5073    1.5470 C   0  0  0  0  0  0  0  0  0  0  0  0
    1.4965   -2.3743    2.3089 C   0  0  0  0  0  0  0  0  0  0  0  0
    0.2895   -2.0684    0.1386 C   0  0  0  0  0  0  0  0  0  0  0  0
   -0.5975    0.8179   -1.3140 H   0  0  0  0  0  0  0  0  0  0  0  0
   -0.9330    0.8584    0.9557 H   0  0  0  0  0  0  0  0  0  0  0  0
    0.9884    0.3325    2.5658 H   0  0  0  0  0  0  0  0  0  0  0  0
    2.0144   -0.0109    1.1876 H   0  0  0  0  0  0  0  0  0  0  0  0
   -0.4665   -1.5661    2.0801 H   0  0  0  0  0  0  0  0  0  0  0  0
    2.4764   -2.3542    1.8201 H   0  0  0  0  0  0  0  0  0  0  0  0
    1.1639   -3.4172    2.3436 H   0  0  0  0  0  0  0  0  0  0  0  0
    1.6242   -2.0242    3.3389 H   0  0  0  0  0  0  0  0  0  0  0  0
    1.2193   -2.0328   -0.4392 H   0  0  0  0  0  0  0  0  0  0  0  0
   -0.0422   -3.1116    0.1802 H   0  0  0  0  0  0  0  0  0  0  0  0
   -0.4749   -1.5089   -0.4085 H   0  0  0  0  0  0  0  0  0  0  0  0
    1.9182    2.5022    0.4018 N   0  0  0  0  0  0  0  0  0  0  0  0
    2.6287    3.7589    0.4696 C   0  0  2  0  0  0  0  0  0  0  0  0
    2.2663    4.4336    1.7860 C   0  0  0  0  0  0  0  0  0  0  0  0
    1.2387    4.1777    2.4103 O   0  0  0  0  0  0  0  0  0  0  0  0
    2.2858    4.6529   -0.7119 C   0  0  0  0  0  0  0  0  0  0  0  0
    2.4163    1.7027    0.0218 H   0  0  0  0  0  0  0  0  0  0  0  0
    3.6975    3.5187    0.4638 H   0  0  0  0  0  0  0  0  0  0  0  0
    1.2189    4.9043   -0.7228 H   0  0  0  0  0  0  0  0  0  0  0  0
    2.8463    5.5928   -0.6741 H   0  0  0  0  0  0  0  0  0  0  0  0
    2.5195    4.1542   -1.6587 H   0  0  0  0  0  0  0  0  0  0  0  0
    3.2039    5.3862    2.1597 N   0  0  0  0  0  0  0  0  0  0  0  0
    3.0788    6.1724    3.3648 C   0  0  0  0  0  0  0  0  0  0  0  0
    4.0352    5.5189    1.5914 H   0  0  0  0  0  0  0  0  0  0  0  0
    2.5622    7.1161    3.1356 H   0  0  0  0  0  0  0  0  0  0  0  0
    2.4994    5.6093    4.1113 H   0  0  0  0  0  0  0  0  0  0  0  0
    4.0797    6.3905    3.7657 H   0  0  0  0  0  0  0  0  0  0  0  0
  1  3  1  0  0  0  0
  1  7  1  0  0  0  0
  1  2  2  0  0  0  0
 37 38  1  0  0  0  0
 38 46  1  0  0  0  0
 38 39  2  0  0  0  0
  8  9  1  0  0  0  0
  9 17  1  0  0  0  0
  9 10  2  0  0  0  0
 18 19  1  0  0  0  0
 19 36  1  0  0  0  0
 19 20  2  0  0  0  0
 37 40  1  0  0  0  0
  8 11  1  0  0  0  0
 22 23  1  0  0  0  0
 22 24  1  0  0  0  0
 46 47  1  0  0  0  0
 18 21  1  0  0  0  0
 21 22  1  0  0  0  0
 36 37  1  0  0  0  0
  7  8  1  0  0  0  0
 17 18  1  0  0  0  0
  3  4  1  0  0  0  0
  3  5  1  0  0  0  0
  3  6  1  0  0  0  0
 40 43  1  0  0  0  0
 40 44  1  0  0  0  0
 40 45  1  0  0  0  0
 11 14  1  0  0  0  0
 11 15  1  0  0  0  0
 11 16  1  0  0  0  0
 23 30  1  0  0  0  0
 23 31  1  0  0  0  0
 23 32  1  0  0  0  0
 24 33  1  0  0  0  0
 24 34  1  0  0  0  0
 24 35  1  0  0  0  0
 47 49  1  0  0  0  0
 47 50  1  0  0  0  0
 47 51  1  0  0  0  0
 21 27  1  0  0  0  0
 21 28  1  0  0  0  0
 37 42  1  0  0  0  0
  8 13  1  0  0  0  0
 18 26  1  0  0  0  0
 22 29  1  0  0  0  0
 46 48  1  0  0  0  0
  7 12  1  0  0  0  0
 36 41  1  0  0  0  0
 17 25  1  0  0  0  0
M  END
$$$$

  -OEChem-05262214473D

 51 50  0     1  0  0  0  0  0999 V2000
    3.4018   -1.2440   -3.0186 C   0  0  0  0  0  0  0  0  0  0  0  0
    3.2697   -2.0909   -2.1427 O   0  0  0  0  0  0  0  0  0  0  0  0
    4.6845   -1.1645   -3.7779 C   0  0  0  0  0  0  0  0  0  0  0  0
    5.4123   -0.4862   -3.3041 H   0  0  0  0  0  0  0  0  0  0  0  0
    5.1949   -2.1387   -3.8443 H   0  0  0  0  0  0  0  0  0  0  0  0
    4.5953   -0.8128   -4.8182 H   0  0  0  0  0  0  0  0  0  0  0  0
    2.4540   -0.3103   -3.4040 N   0  0  0  0  0  0  0  0  0  0  0  0
    1.1494   -0.2128   -2.8039 C   0  0  2  0  0  0  0  0  0  0  0  0
    1.3350    0.0367   -1.3130 C   0  0  0  0  0  0  0  0  0  0  0  0
    2.3625   -0.2586   -0.7063 O   0  0  0  0  0  0  0  0  0  0  0  0
    0.3331   -1.4728   -3.0467 C   0  0  0  0  0  0  0  0  0  0  0  0
    2.6924    0.3404   -4.1502 H   0  0  0  0  0  0  0  0  0  0  0  0
    0.6550    0.6514   -3.2607 H   0  0  0  0  0  0  0  0  0  0  0  0
    0.8129   -2.3494   -2.5963 H   0  0  0  0  0  0  0  0  0  0  0  0
   -0.6690   -1.3857   -2.6142 H   0  0  0  0  0  0  0  0  0  0  0  0
    0.2259   -1.6670   -4.1194 H   0  0  0  0  0  0  0  0  0  0  0  0
    0.2019    0.5893   -0.7269 N   0  0  0  0  0  0  0  0  0  0  0  0
    0.1242    0.9059    0.6756 C   0  0  2  0  0  0  0  0  0  0  0  0
    0.6107    2.3424    0.8393 C   0  0  0  0  0  0  0  0  0  0  0  0
    0.0530    3.1588    1.5698 O   0  0  0  0  0  0  0  0  0  0  0  0
    0.9724   -0.0423    1.5327 C   0  0  0  0  0  0  0  0  0  0  0  0
    0.4903   -1.5073    1.5470 C   0  0  0  0  0  0  0  0  0  0  0  0
    1.4965   -2.3743    2.3089 C   0  0  0  0  0  0  0  0  0  0  0  0
    0.2895   -2.0684    0.1386 C   0  0  0  0  0  0  0  0  0  0  0  0
   -0.5975    0.8179   -1.3140 H   0  0  0  0  0  0  0  0  0  0  0  0
   -0.9330    0.8584    0.9557 H   0  0  0  0  0  0  0  0  0  0  0  0
    0.9884    0.3325    2.5658 H   0  0  0  0  0  0  0  0  0  0  0  0
    2.0144   -0.0109    1.1876 H   0  0  0  0  0  0  0  0  0  0  0  0
   -0.4665   -1.5661    2.0801 H   0  0  0  0  0  0  0  0  0  0  0  0
    2.4764   -2.3542    1.8201 H   0  0  0  0  0  0  0  0  0  0  0  0
    1.1639   -3.4172    2.3436 H   0  0  0  0  0  0  0  0  0  0  0  0
    1.6242   -2.0242    3.3389 H   0  0  0  0  0  0  0  0  0  0  0  0
    1.2193   -2.0328   -0.4392 H   0  0  0  0  0  0  0  0  0  0  0  0
   -0.0422   -3.1116    0.1802 H   0  0  0  0  0  0  0  0  0  0  0  0
   -0.4749   -1.5089   -0.4085 H   0  0  0  0  0  0  0  0  0  0  0  0
    1.7683    2.5859    0.1131 N   0  0  0  0  0  0  0  0  0  0  0  0
    2.4516    3.8594    0.1144 C   0  0  2  0  0  0  0  0  0  0  0  0
    2.4108    4.4136    1.5324 C   0  0  0  0  0  0  0  0  0  0  0  0
    1.5721    4.0702    2.3629 O   0  0  0  0  0  0  0  0  0  0  0  0
    1.8141    4.8304   -0.8672 C   0  0  0  0  0  0  0  0  0  0  0  0
    2.1721    1.8385   -0.4436 H   0  0  0  0  0  0  0  0  0  0  0  0
    3.4904    3.6612   -0.1711 H   0  0  0  0  0  0  0  0  0  0  0  0
    0.7728    5.0411   -0.5974 H   0  0  0  0  0  0  0  0  0  0  0  0
    2.3503    5.7849   -0.8859 H   0  0  0  0  0  0  0  0  0  0  0  0
    1.8175    4.4174   -1.8817 H   0  0  0  0  0  0  0  0  0  0  0  0
    3.3945    5.3686    1.7480 N   0  0  0  0  0  0  0  0  0  0  0  0
    3.5546    6.0517    3.0104 C   0  0  0  0  0  0  0  0  0  0  0  0
    4.0589    5.5773    1.0086 H   0  0  0  0  0  0  0  0  0  0  0  0
    2.9811    6.9902    2.9954 H   0  0  0  0  0  0  0  0  0  0  0  0
    3.1856    5.4097    3.8239 H   0  0  0  0  0  0  0  0  0  0  0  0
    4.6191    6.2752    3.1738 H   0  0  0  0  0  0  0  0  0  0  0  0
  1  3  1  0  0  0  0
  1  7  1  0  0  0  0
  1  2  2  0  0  0  0
 37 38  1  0  0  0  0
 38 46  1  0  0  0  0
 38 39  2  0  0  0  0
  8  9  1  0  0  0  0
  9 17  1  0  0  0  0
  9 10  2  0  0  0  0
 18 19  1  0  0  0  0
 19 36  1  0  0  0  0
 19 20  2  0  0  0  0
 37 40  1  0  0  0  0
  8 11  1  0  0  0  0
 22 23  1  0  0  0  0
 22 24  1  0  0  0  0
 46 47  1  0  0  0  0
 18 21  1  0  0  0  0
 21 22  1  0  0  0  0
 36 37  1  0  0  0  0
  7  8  1  0  0  0  0
 17 18  1  0  0  0  0
  3  4  1  0  0  0  0
  3  5  1  0  0  0  0
  3  6  1  0  0  0  0
 40 43  1  0  0  0  0
 40 44  1  0  0  0  0
 40 45  1  0  0  0  0
 11 14  1  0  0  0  0
 11 15  1  0  0  0  0
 11 16  1  0  0  0  0
 23 30  1  0  0  0  0
 23 31  1  0  0  0  0
 23 32  1  0  0  0  0
 24 33  1  0  0  0  0
 24 34  1  0  0  0  0
 24 35  1  0  0  0  0
 47 49  1  0  0  0  0
 47 50  1  0  0  0  0
 47 51  1  0  0  0  0
 21 27  1  0  0  0  0
 21 28  1  0  0  0  0
 37 42  1  0  0  0  0
  8 13  1  0  0  0  0
 18 26  1  0  0  0  0
 22 29  1  0  0  0  0
 46 48  1  0  0  0  0
  7 12  1  0  0  0  0
 36 41  1  0  0  0  0
 17 25  1  0  0  0  0
M  END
$$$$

  -OEChem-05262214473D

 51 50  0     1  0  0  0  0  0999 V2000
    3.4018   -1.2440   -3.0186 C   0  0  0  0  0  0  0  0  0  0  0  0
    3.2697   -2.0909   -2.1427 O   0  0  0  0  0  0  0  0  0  0  0  0
    4.6845   -1.1645   -3.7779 C   0  0  0  0  0  0  0  0  0  0  0  0
    5.4123   -0.4862   -3.3041 H   0  0  0  0  0  0  0  0  0  0  0  0
    5.1949   -2.1387   -3.8443 H   0  0  0  0  0  0  0  0  0  0  0  0
    4.5953   -0.8128   -4.8182 H   0  0  0  0  0  0  0  0  0  0  0  0
    2.4540   -0.3103   -3.4040 N   0  0  0  0  0  0  0  0  0  0  0  0
    1.1494   -0.2128   -2.8039 C   0  0  2  0  0  0  0  0  0  0  0  0
    1.3350    0.0367   -1.3130 C   0  0  0  0  0  0  0  0  0  0  0  0
    2.3625   -0.2586   -0.7063 O   0  0  0  0  0  0  0  0  0  0  0  0
    0.3331   -1.4728   -3.0467 C   0  0  0  0  0  0  0  0  0  0  0  0
    2.6924    0.3404   -4.1502 H   0  0  0  0  0  0  0  0  0  0  0  0
    0.6550    0.6514   -3.2607 H   0  0  0  0  0  0  0  0  0  0  0  0
    0.8129   -2.3494   -2.5963 H   0  0  0  0  0  0  0  0  0  0  0  0
   -0.6690   -1.3857   -2.6142 H   0  0  0  0  0  0  0  0  0  0  0  0
    0.2259   -1.6670   -4.1194 H   0  0  0  0  0  0  0  0  0  0  0  0
    0.2019    0.5893   -0.7269 N   0  0  0  0  0  0  0  0  0  0  0  0
    0.1242    0.9059    0.6756 C   0  0  2  0  0  0  0  0  0  0  0  0
    0.6107    2.3424    0.8393 C   0  0  0  0  0  0  0  0  0  0  0  0
    0.2346    3.0766    1.7507 O   0  0  0  0  0  0  0  0  0  0  0  0
    0.9724   -0.0423    1.5327 C   0  0  0  0  0  0  0  0  0  0  0  0
    0.4903   -1.5073    1.5470 C   0  0  0  0  0  0  0  0  0  0  0  0
    1.4965   -2.3743    2.3089 C   0  0  0  0  0  0  0  0  0  0  0  0
    0.2895   -2.0684    0.1386 C   0  0  0  0  0  0  0  0  0  0  0  0
   -0.5975    0.8179   -1.3140 H   0  0  0  0  0  0  0  0  0  0  0  0
   -0.9330    0.8584    0.9557 H   0  0  0  0  0  0  0  0  0  0  0  0
    0.9884    0.3325    2.5658 H   0  0  0  0  0  0  0  0  0  0  0  0
    2.0144   -0.0109    1.1876 H   0  0  0  0  0  0  0  0  0  0  0  0
   -0.4665   -1.5661    2.0801 H   0  0  0  0  0  0  0  0  0  0  0  0
    2.4764   -2.3542    1.8201 H   0  0  0  0  0  0  0  0  0  0  0  0
    1.1639   -3.4172    2.3436 H   0  0  0  0  0  0  0  0  0  0  0  0
    1.6242   -2.0242    3.3389 H   0  0  0  0  0  0  0  0  0  0  0  0
    1.2193   -2.0328   -0.4392 H   0  0  0  0  0  0  0  0  0  0  0  0
   -0.0422   -3.1116    0.1802 H   0  0  0  0  0  0  0  0  0  0  0  0
   -0.4749   -1.5089   -0.4085 H   0  0  0  0  0  0  0  0  0  0  0  0
    1.5508    2.6864   -0.1223 N   0  0  0  0  0  0  0  0  0  0  0  0
    2.1911    3.9809   -0.1773 C   0  0  2  0  0  0  0  0  0  0  0  0
    2.4891    4.4192    1.2505 C   0  0  0  0  0  0  0  0  0  0  0  0
    1.8854    3.9795    2.2270 O   0  0  0  0  0  0  0  0  0  0  0  0
    1.3157    5.0015   -0.8877 C   0  0  0  0  0  0  0  0  0  0  0  0
    1.8190    2.0013   -0.8224 H   0  0  0  0  0  0  0  0  0  0  0  0
    3.1317    3.8455   -0.7222 H   0  0  0  0  0  0  0  0  0  0  0  0
    0.3687    5.1505   -0.3563 H   0  0  0  0  0  0  0  0  0  0  0  0
    1.8142    5.9742   -0.9537 H   0  0  0  0  0  0  0  0  0  0  0  0
    1.0778    4.6705   -1.9044 H   0  0  0  0  0  0  0  0  0  0  0  0
    3.4787    5.3908    1.3024 N   0  0  0  0  0  0  0  0  0  0  0  0
    3.9311    5.9775    2.5422 C   0  0  0  0  0  0  0  0  0  0  0  0
    3.9381    5.6824    0.4447 H   0  0  0  0  0  0  0  0  0  0  0  0
    3.3550    6.8918    2.7475 H   0  0  0  0  0  0  0  0  0  0  0  0
    3.7839    5.2596    3.3626 H   0  0  0  0  0  0  0  0  0  0  0  0
    4.9992    6.2277    2.4611 H   0  0  0  0  0  0  0  0  0  0  0  0
  1  3  1  0  0  0  0
  1  7  1  0  0  0  0
  1  2  2  0  0  0  0
 37 38  1  0  0  0  0
 38 46  1  0  0  0  0
 38 39  2  0  0  0  0
  8  9  1  0  0  0  0
  9 17  1  0  0  0  0
  9 10  2  0  0  0  0
 18 19  1  0  0  0  0
 19 36  1  0  0  0  0
 19 20  2  0  0  0  0
 37 40  1  0  0  0  0
  8 11  1  0  0  0  0
 22 23  1  0  0  0  0
 22 24  1  0  0  0  0
 46 47  1  0  0  0  0
 18 21  1  0  0  0  0
 21 22  1  0  0  0  0
 36 37  1  0  0  0  0
  7  8  1  0  0  0  0
 17 18  1  0  0  0  0
  3  4  1  0  0  0  0
  3  5  1  0  0  0  0
  3  6  1  0  0  0  0
 40 43  1  0  0  0  0
 40 44  1  0  0  0  0
 40 45  1  0  0  0  0
 11 14  1  0  0  0  0
 11 15  1  0  0  0  0
 11 16  1  0  0  0  0
 23 30  1  0  0  0  0
 23 31  1  0  0  0  0
 23 32  1  0  0  0  0
 24 33  1  0  0  0  0
 24 34  1  0  0  0  0
 24 35  1  0  0  0  0
 47 49  1  0  0  0  0
 47 50  1  0  0  0  0
 47 51  1  0  0  0  0
 21 27  1  0  0  0  0
 21 28  1  0  0  0  0
 37 42  1  0  0  0  0
  8 13  1  0  0  0  0
 18 26  1  0  0  0  0
 22 29  1  0  0  0  0
 46 48  1  0  0  0  0
  7 12  1  0  0  0  0
 36 41  1  0  0  0  0
 17 25  1  0  0  0  0
M  END
$$$$

  -OEChem-05262214473D

 51 50  0     1  0  0  0  0  0999 V2000
    3.4018   -1.2440   -3.0186 C   0  0  0  0  0  0  0  0  0  0  0  0
    3.2697   -2.0909   -2.1427 O   0  0  0  0  0  0  0  0  0  0  0  0
    4.6845   -1.1645   -3.7779 C   0  0  0  0  0  0  0  0  0  0  0  0
    5.4123   -0.4862   -3.3041 H   0  0  0  0  0  0  0  0  0  0  0  0
    5.1949   -2.1387   -3.8443 H   0  0  0  0  0  0  0  0  0  0  0  0
    4.5953   -0.8128   -4.8182 H   0  0  0  0  0  0  0  0  0  0  0  0
    2.4540   -0.3103   -3.4040 N   0  0  0  0  0  0  0  0  0  0  0  0
    1.1494   -0.2128   -2.8039 C   0  0  2  0  0  0  0  0  0  0  0  0
    1.3350    0.0367   -1.3130 C   0  0  0  0  0  0  0  0  0  0  0  0
    2.3625   -0.2586   -0.7063 O   0  0  0  0  0  0  0  0  0  0  0  0
    0.3331   -1.4728   -3.0467 C   0  0  0  0  0  0  0  0  0  0  0  0
    2.6924    0.3404   -4.1502 H   0  0  0  0  0  0  0  0  0  0  0  0
    0.6550    0.6514   -3.2607 H   0  0  0  0  0  0  0  0  0  0  0  0
    0.8129   -2.3494   -2.5963 H   0  0  0  0  0  0  0  0  0  0  0  0
   -0.6690   -1.3857   -2.6142 H   0  0  0  0  0  0  0  0  0  0  0  0
    0.2259   -1.6670   -4.1194 H   0  0  0  0  0  0  0  0  0  0  0  0
    0.2019    0.5893   -0.7269 N   0  0  0  0  0  0  0  0  0  0  0  0
    0.1242    0.9059    0.6756 C   0  0  2  0  0  0  0  0  0  0  0  0
    0.6107    2.3424    0.8393 C   0  0  0  0  0  0  0  0  0  0  0  0
    0.4564    2.9874    1.8743 O   0  0  0  0  0  0  0  0  0  0  0  0
    0.9724   -0.0423    1.5327 C   0  0  0  0  0  0  0  0  0  0  0  0
    0.4903   -1.5073    1.5470 C   0  0  0  0  0  0  0  0  0  0  0  0
    1.4965   -2.3743    2.3089 C   0  0  0  0  0  0  0  0  0  0  0  0
    0.2895   -2.0684    0.1386 C   0  0  0  0  0  0  0  0  0  0  0  0
   -0.5975    0.8179   -1.3140 H   0  0  0  0  0  0  0  0  0  0  0  0
   -0.9330    0.8584    0.9557 H   0  0  0  0  0  0  0  0  0  0  0  0
    0.9884    0.3325    2.5658 H   0  0  0  0  0  0  0  0  0  0  0  0
    2.0144   -0.0109    1.1876 H   0  0  0  0  0  0  0  0  0  0  0  0
   -0.4665   -1.5661    2.0801 H   0  0  0  0  0  0  0  0  0  0  0  0
    2.4764   -2.3542    1.8201 H   0  0  0  0  0  0  0  0  0  0  0  0
    1.1639   -3.4172    2.3436 H   0  0  0  0  0  0  0  0  0  0  0  0
    1.6242   -2.0242    3.3389 H   0  0  0  0  0  0  0  0  0  0  0  0
    1.2193   -2.0328   -0.4392 H   0  0  0  0  0  0  0  0  0  0  0  0
   -0.0422   -3.1116    0.1802 H   0  0  0  0  0  0  0  0  0  0  0  0
   -0.4749   -1.5089   -0.4085 H   0  0  0  0  0  0  0  0  0  0  0  0
    1.2805    2.7969   -0.2883 N   0  0  0  0  0  0  0  0  0  0  0  0
    1.8651    4.1150   -0.3854 C   0  0  2  0  0  0  0  0  0  0  0  0
    2.4959    4.4500    0.9597 C   0  0  0  0  0  0  0  0  0  0  0  0
    2.1576    3.9119    2.0118 O   0  0  0  0  0  0  0  0  0  0  0  0
    0.8246    5.1546   -0.7719 C   0  0  0  0  0  0  0  0  0  0  0  0
    1.3811    2.1800   -1.0889 H   0  0  0  0  0  0  0  0  0  0  0  0
    2.6458    4.0590   -1.1518 H   0  0  0  0  0  0  0  0  0  0  0  0
    0.0341    5.2250   -0.0158 H   0  0  0  0  0  0  0  0  0  0  0  0
    1.2746    6.1478   -0.8729 H   0  0  0  0  0  0  0  0  0  0  0  0
    0.3508    4.8963   -1.7251 H   0  0  0  0  0  0  0  0  0  0  0  0
    3.4509    5.4514    0.8533 N   0  0  0  0  0  0  0  0  0  0  0  0
    4.1827    5.9549    1.9921 C   0  0  0  0  0  0  0  0  0  0  0  0
    3.6810    5.8272   -0.0619 H   0  0  0  0  0  0  0  0  0  0  0  0
    3.6585    6.8276    2.4088 H   0  0  0  0  0  0  0  0  0  0  0  0
    4.2536    5.1693    2.7588 H   0  0  0  0  0  0  0  0  0  0  0  0
    5.1939    6.2512    1.6762 H   0  0  0  0  0  0  0  0  0  0  0  0
  1  3  1  0  0  0  0
  1  7  1  0  0  0  0
  1  2  2  0  0  0  0
 37 38  1  0  0  0  0
 38 46  1  0  0  0  0
 38 39  2  0  0  0  0
  8  9  1  0  0  0  0
  9 17  1  0  0  0  0
  9 10  2  0  0  0  0
 18 19  1  0  0  0  0
 19 36  1  0  0  0  0
 19 20  2  0  0  0  0
 37 40  1  0  0  0  0
  8 11  1  0  0  0  0
 22 23  1  0  0  0  0
 22 24  1  0  0  0  0
 46 47  1  0  0  0  0
 18 21  1  0  0  0  0
 21 22  1  0  0  0  0
 36 37  1  0  0  0  0
  7  8  1  0  0  0  0
 17 18  1  0  0  0  0
  3  4  1  0  0  0  0
  3  5  1  0  0  0  0
  3  6  1  0  0  0  0
 40 43  1  0  0  0  0
 40 44  1  0  0  0  0
 40 45  1  0  0  0  0
 11 14  1  0  0  0  0
 11 15  1  0  0  0  0
 11 16  1  0  0  0  0
 23 30  1  0  0  0  0
 23 31  1  0  0  0  0
 23 32  1  0  0  0  0
 24 33  1  0  0  0  0
 24 34  1  0  0  0  0
 24 35  1  0  0  0  0
 47 49  1  0  0  0  0
 47 50  1  0  0  0  0
 47 51  1  0  0  0  0
 21 27  1  0  0  0  0
 21 28  1  0  0  0  0
 37 42  1  0  0  0  0
  8 13  1  0  0  0  0
 18 26  1  0  0  0  0
 22 29  1  0  0  0  0
 46 48  1  0  0  0  0
  7 12  1  0  0  0  0
 36 41  1  0  0  0  0
 17 25  1  0  0  0  0
M  END
$$$$

  -OEChem-05262214473D

 51 50  0     1  0  0  0  0  0999 V2000
    3.4018   -1.2440   -3.0186 C   0  0  0  0  0  0  0  0  0  0  0  0
    3.2697   -2.0909   -2.1427 O   0  0  0  0  0  0  0  0  0  0  0  0
    4.6845   -1.1645   -3.7779 C   0  0  0  0  0  0  0  0  0  0  0  0
    5.4123   -0.4862   -3.3041 H   0  0  0  0  0  0  0  0  0  0  0  0
    5.1949   -2.1387   -3.8443 H   0  0  0  0  0  0  0  0  0  0  0  0
    4.5953   -0.8128   -4.8182 H   0  0  0  0  0  0  0  0  0  0  0  0
    2.4540   -0.3103   -3.4040 N   0  0  0  0  0  0  0  0  0  0  0  0
    1.1494   -0.2128   -2.8039 C   0  0  2  0  0  0  0  0  0  0  0  0
    1.3350    0.0367   -1.3130 C   0  0  0  0  0  0  0  0  0  0  0  0
    2.3625   -0.2586   -0.7063 O   0  0  0  0  0  0  0  0  0  0  0  0
    0.3331   -1.4728   -3.0467 C   0  0  0  0  0  0  0  0  0  0  0  0
    2.6924    0.3404   -4.1502 H   0  0  0  0  0  0  0  0  0  0  0  0
    0.6550    0.6514   -3.2607 H   0  0  0  0  0  0  0  0  0  0  0  0
    0.8129   -2.3494   -2.5963 H   0  0  0  0  0  0  0  0  0  0  0  0
   -0.6690   -1.3857   -2.6142 H   0  0  0  0  0  0  0  0  0  0  0  0
    0.2259   -1.6670   -4.1194 H   0  0  0  0  0  0  0  0  0  0  0  0
    0.2019    0.5893   -0.7269 N   0  0  0  0  0  0  0  0  0  0  0  0
    0.1242    0.9059    0.6756 C   0  0  2  0  0  0  0  0  0  0  0  0
    0.6107    2.3424    0.8393 C   0  0  0  0  0  0  0  0  0  0  0  0
    0.7033    2.8972    1.9324 O   0  0  0  0  0  0  0  0  0  0  0  0
    0.9724   -0.0423    1.5327 C   0  0  0  0  0  0  0  0  0  0  0  0
    0.4903   -1.5073    1.5470 C   0  0  0  0  0  0  0  0  0  0  0  0
    1.4965   -2.3743    2.3089 C   0  0  0  0  0  0  0  0  0  0  0  0
    0.2895   -2.0684    0.1386 C   0  0  0  0  0  0  0  0  0  0  0  0
   -0.5975    0.8179   -1.3140 H   0  0  0  0  0  0  0  0  0  0  0  0
   -0.9330    0.8584    0.9557 H   0  0  0  0  0  0  0  0  0  0  0  0
    0.9884    0.3325    2.5658 H   0  0  0  0  0  0  0  0  0  0  0  0
    2.0144   -0.0109    1.1876 H   0  0  0  0  0  0  0  0  0  0  0  0
   -0.4665   -1.5661    2.0801 H   0  0  0  0  0  0  0  0  0  0  0  0
    2.4764   -2.3542    1.8201 H   0  0  0  0  0  0  0  0  0  0  0  0
    1.1639   -3.4172    2.3436 H   0  0  0  0  0  0  0  0  0  0  0  0
    1.6242   -2.0242    3.3389 H   0  0  0  0  0  0  0  0  0  0  0  0
    1.2193   -2.0328   -0.4392 H   0  0  0  0  0  0  0  0  0  0  0  0
   -0.0422   -3.1116    0.1802 H   0  0  0  0  0  0  0  0  0  0  0  0
   -0.4749   -1.5089   -0.4085 H   0  0  0  0  0  0  0  0  0  0  0  0
    0.9759    2.9098   -0.3737 N   0  0  0  0  0  0  0  0  0  0  0  0
    1.4957    4.2527   -0.4960 C   0  0  2  0  0  0  0  0  0  0  0  0
    2.4307    4.5040    0.6796 C   0  0  0  0  0  0  0  0  0  0  0  0
    2.3698    3.8719    1.7321 O   0  0  0  0  0  0  0  0  0  0  0  0
    0.3742    5.2794   -0.5276 C   0  0  0  0  0  0  0  0  0  0  0  0
    0.8882    2.3624   -1.2248 H   0  0  0  0  0  0  0  0  0  0  0  0
    2.0658    4.2873   -1.4308 H   0  0  0  0  0  0  0  0  0  0  0  0
   -0.2082    5.2596    0.4007 H   0  0  0  0  0  0  0  0  0  0  0  0
    0.7682    6.2938   -0.6490 H   0  0  0  0  0  0  0  0  0  0  0  0
   -0.3140    5.0794   -1.3560 H   0  0  0  0  0  0  0  0  0  0  0  0
    3.3129    5.5462    0.4313 N   0  0  0  0  0  0  0  0  0  0  0  0
    4.2924    5.9855    1.3975 C   0  0  0  0  0  0  0  0  0  0  0  0
    3.3053    6.0018   -0.4766 H   0  0  0  0  0  0  0  0  0  0  0  0
    3.8710    6.8020    2.0024 H   0  0  0  0  0  0  0  0  0  0  0  0
    4.5626    5.1450    2.0536 H   0  0  0  0  0  0  0  0  0  0  0  0
    5.1900    6.3441    0.8724 H   0  0  0  0  0  0  0  0  0  0  0  0
  1  3  1  0  0  0  0
  1  7  1  0  0  0  0
  1  2  2  0  0  0  0
 37 38  1  0  0  0  0
 38 46  1  0  0  0  0
 38 39  2  0  0  0  0
  8  9  1  0  0  0  0
  9 17  1  0  0  0  0
  9 10  2  0  0  0  0
 18 19  1  0  0  0  0
 19 36  1  0  0  0  0
 19 20  2  0  0  0  0
 37 40  1  0  0  0  0
  8 11  1  0  0  0  0
 22 23  1  0  0  0  0
 22 24  1  0  0  0  0
 46 47  1  0  0  0  0
 18 21  1  0  0  0  0
 21 22  1  0  0  0  0
 36 37  1  0  0  0  0
  7  8  1  0  0  0  0
 17 18  1  0  0  0  0
  3  4  1  0  0  0  0
  3  5  1  0  0  0  0
  3  6  1  0  0  0  0
 40 43  1  0  0  0  0
 40 44  1  0  0  0  0
 40 45  1  0  0  0  0
 11 14  1  0  0  0  0
 11 15  1  0  0  0  0
 11 16  1  0  0  0  0
 23 30  1  0  0  0  0
 23 31  1  0  0  0  0
 23 32  1  0  0  0  0
 24 33  1  0  0  0  0
 24 34  1  0  0  0  0
 24 35  1  0  0  0  0
 47 49  1  0  0  0  0
 47 50  1  0  0  0  0
 47 51  1  0  0  0  0
 21 27  1  0  0  0  0
 21 28  1  0  0  0  0
 37 42  1  0  0  0  0
  8 13  1  0  0  0  0
 18 26  1  0  0  0  0
 22 29  1  0  0  0  0
 46 48  1  0  0  0  0
  7 12  1  0  0  0  0
 36 41  1  0  0  0  0
 17 25  1  0  0  0  0
M  END
$$$$

  -OEChem-05262214473D

 51 50  0     1  0  0  0  0  0999 V2000
    3.4018   -1.2440   -3.0186 C   0  0  0  0  0  0  0  0  0  0  0  0
    3.2697   -2.0909   -2.1427 O   0  0  0  0  0  0  0  0  0  0  0  0
    4.6845   -1.1645   -3.7779 C   0  0  0  0  0  0  0  0  0  0  0  0
    5.4123   -0.4862   -3.3041 H   0  0  0  0  0  0  0  0  0  0  0  0
    5.1949   -2.1387   -3.8443 H   0  0  0  0  0  0  0  0  0  0  0  0
    4.5953   -0.8128   -4.8182 H   0  0  0  0  0  0  0  0  0  0  0  0
    2.4540   -0.3103   -3.4040 N   0  0  0  0  0  0  0  0  0  0  0  0
    1.1494   -0.2128   -2.8039 C   0  0  2  0  0  0  0  0  0  0  0  0
    1.3350    0.0367   -1.3130 C   0  0  0  0  0  0  0  0  0  0  0  0
    2.3625   -0.2586   -0.7063 O   0  0  0  0  0  0  0  0  0  0  0  0
    0.3331   -1.4728   -3.0467 C   0  0  0  0  0  0  0  0  0  0  0  0
    2.6924    0.3404   -4.1502 H   0  0  0  0  0  0  0  0  0  0  0  0
    0.6550    0.6514   -3.2607 H   0  0  0  0  0  0  0  0  0  0  0  0
    0.8129   -2.3494   -2.5963 H   0  0  0  0  0  0  0  0  0  0  0  0
   -0.6690   -1.3857   -2.6142 H   0  0  0  0  0  0  0  0  0  0  0  0
    0.2259   -1.6670   -4.1194 H   0  0  0  0  0  0  0  0  0  0  0  0
    0.2019    0.5893   -0.7269 N   0  0  0  0  0  0  0  0  0  0  0  0
    0.1242    0.9059    0.6756 C   0  0  2  0  0  0  0  0  0  0  0  0
    0.6107    2.3424    0.8393 C   0  0  0  0  0  0  0  0  0  0  0  0
    0.9585    2.8121    1.9208 O   0  0  0  0  0  0  0  0  0  0  0  0
    0.9724   -0.0423    1.5327 C   0  0  0  0  0  0  0  0  0  0  0  0
    0.4903   -1.5073    1.5470 C   0  0  0  0  0  0  0  0  0  0  0  0
    1.4965   -2.3743    2.3089 C   0  0  0  0  0  0  0  0  0  0  0  0
    0.2895   -2.0684    0.1386 C   0  0  0  0  0  0  0  0  0  0  0  0
   -0.5975    0.8179   -1.3140 H   0  0  0  0  0  0  0  0  0  0  0  0
   -0.9330    0.8584    0.9557 H   0  0  0  0  0  0  0  0  0  0  0  0
    0.9884    0.3325    2.5658 H   0  0  0  0  0  0  0  0  0  0  0  0
    2.0144   -0.0109    1.1876 H   0  0  0  0  0  0  0  0  0  0  0  0
   -0.4665   -1.5661    2.0801 H   0  0  0  0  0  0  0  0  0  0  0  0
    2.4764   -2.3542    1.8201 H   0  0  0  0  0  0  0  0  0  0  0  0
    1.1639   -3.4172    2.3436 H   0  0  0  0  0  0  0  0  0  0  0  0
    1.6242   -2.0242    3.3389 H   0  0  0  0  0  0  0  0  0  0  0  0
    1.2193   -2.0328   -0.4392 H   0  0  0  0  0  0  0  0  0  0  0  0
   -0.0422   -3.1116    0.1802 H   0  0  0  0  0  0  0  0  0  0  0  0
   -0.4749   -1.5089   -0.4085 H   0  0  0  0  0  0  0  0  0  0  0  0
    0.6577    3.0174   -0.3726 N   0  0  0  0  0  0  0  0  0  0  0  0
    1.1081    4.3846   -0.5014 C   0  0  2  0  0  0  0  0  0  0  0  0
    2.2980    4.5775    0.4294 C   0  0  0  0  0  0  0  0  0  0  0  0
    2.5078    3.8622    1.4069 O   0  0  0  0  0  0  0  0  0  0  0  0
   -0.0048    5.3672   -0.1717 C   0  0  0  0  0  0  0  0  0  0  0  0
    0.3738    2.5362   -1.2208 H   0  0  0  0  0  0  0  0  0  0  0  0
    1.4313    4.5146   -1.5400 H   0  0  0  0  0  0  0  0  0  0  0  0
   -0.3417    5.2519    0.8650 H   0  0  0  0  0  0  0  0  0  0  0  0
    0.3296    6.4023   -0.2973 H   0  0  0  0  0  0  0  0  0  0  0  0
   -0.8713    5.2074   -0.8224 H   0  0  0  0  0  0  0  0  0  0  0  0
    3.0741    5.6689    0.0651 N   0  0  0  0  0  0  0  0  0  0  0  0
    4.2525    6.0673    0.7990 C   0  0  0  0  0  0  0  0  0  0  0  0
    2.8364    6.1942   -0.7711 H   0  0  0  0  0  0  0  0  0  0  0  0
    3.9778    6.8166    1.5559 H   0  0  0  0  0  0  0  0  0  0  0  0
    4.6899    5.1883    1.2952 H   0  0  0  0  0  0  0  0  0  0  0  0
    4.9878    6.5001    0.1047 H   0  0  0  0  0  0  0  0  0  0  0  0
  1  3  1  0  0  0  0
  1  7  1  0  0  0  0
  1  2  2  0  0  0  0
 37 38  1  0  0  0  0
 38 46  1  0  0  0  0
 38 39  2  0  0  0  0
  8  9  1  0  0  0  0
  9 17  1  0  0  0  0
  9 10  2  0  0  0  0
 18 19  1  0  0  0  0
 19 36  1  0  0  0  0
 19 20  2  0  0  0  0
 37 40  1  0  0  0  0
  8 11  1  0  0  0  0
 22 23  1  0  0  0  0
 22 24  1  0  0  0  0
 46 47  1  0  0  0  0
 18 21  1  0  0  0  0
 21 22  1  0  0  0  0
 36 37  1  0  0  0  0
  7  8  1  0  0  0  0
 17 18  1  0  0  0  0
  3  4  1  0  0  0  0
  3  5  1  0  0  0  0
  3  6  1  0  0  0  0
 40 43  1  0  0  0  0
 40 44  1  0  0  0  0
 40 45  1  0  0  0  0
 11 14  1  0  0  0  0
 11 15  1  0  0  0  0
 11 16  1  0  0  0  0
 23 30  1  0  0  0  0
 23 31  1  0  0  0  0
 23 32  1  0  0  0  0
 24 33  1  0  0  0  0
 24 34  1  0  0  0  0
 24 35  1  0  0  0  0
 47 49  1  0  0  0  0
 47 50  1  0  0  0  0
 47 51  1  0  0  0  0
 21 27  1  0  0  0  0
 21 28  1  0  0  0  0
 37 42  1  0  0  0  0
  8 13  1  0  0  0  0
 18 26  1  0  0  0  0
 22 29  1  0  0  0  0
 46 48  1  0  0  0  0
  7 12  1  0  0  0  0
 36 41  1  0  0  0  0
 17 25  1  0  0  0  0
M  END
$$$$

  -OEChem-05262214473D

 51 50  0     1  0  0  0  0  0999 V2000
    3.4018   -1.2440   -3.0186 C   0  0  0  0  0  0  0  0  0  0  0  0
    3.2697   -2.0909   -2.1427 O   0  0  0  0  0  0  0  0  0  0  0  0
    4.6845   -1.1645   -3.7779 C   0  0  0  0  0  0  0  0  0  0  0  0
    5.4123   -0.4862   -3.3041 H   0  0  0  0  0  0  0  0  0  0  0  0
    5.1949   -2.1387   -3.8443 H   0  0  0  0  0  0  0  0  0  0  0  0
    4.5953   -0.8128   -4.8182 H   0  0  0  0  0  0  0  0  0  0  0  0
    2.4540   -0.3103   -3.4040 N   0  0  0  0  0  0  0  0  0  0  0  0
    1.1494   -0.2128   -2.8039 C   0  0  2  0  0  0  0  0  0  0  0  0
    1.3350    0.0367   -1.3130 C   0  0  0  0  0  0  0  0  0  0  0  0
    2.3625   -0.2586   -0.7063 O   0  0  0  0  0  0  0  0  0  0  0  0
    0.3331   -1.4728   -3.0467 C   0  0  0  0  0  0  0  0  0  0  0  0
    2.6924    0.3404   -4.1502 H   0  0  0  0  0  0  0  0  0  0  0  0
    0.6550    0.6514   -3.2607 H   0  0  0  0  0  0  0  0  0  0  0  0
    0.8129   -2.3494   -2.5963 H   0  0  0  0  0  0  0  0  0  0  0  0
   -0.6690   -1.3857   -2.6142 H   0  0  0  0  0  0  0  0  0  0  0  0
    0.2259   -1.6670   -4.1194 H   0  0  0  0  0  0  0  0  0  0  0  0
    0.2019    0.5893   -0.7269 N   0  0  0  0  0  0  0  0  0  0  0  0
    0.1242    0.9059    0.6756 C   0  0  2  0  0  0  0  0  0  0  0  0
    0.6107    2.3424    0.8393 C   0  0  0  0  0  0  0  0  0  0  0  0
    1.2044    2.7379    1.8404 O   0  0  0  0  0  0  0  0  0  0  0  0
    0.9724   -0.0423    1.5327 C   0  0  0  0  0  0  0  0  0  0  0  0
    0.4903   -1.5073    1.5470 C   0  0  0  0  0  0  0  0  0  0  0  0
    1.4965   -2.3743    2.3089 C   0  0  0  0  0  0  0  0  0  0  0  0
    0.2895   -2.0684    0.1386 C   0  0  0  0  0  0  0  0  0  0  0  0
   -0.5975    0.8179   -1.3140 H   0  0  0  0  0  0  0  0  0  0  0  0
   -0.9330    0.8584    0.9557 H   0  0  0  0  0  0  0  0  0  0  0  0
    0.9884    0.3325    2.5658 H   0  0  0  0  0  0  0  0  0  0  0  0
    2.0144   -0.0109    1.1876 H   0  0  0  0  0  0  0  0  0  0  0  0
   -0.4665   -1.5661    2.0801 H   0  0  0  0  0  0  0  0  0  0  0  0
    2.4764   -2.3542    1.8201 H   0  0  0  0  0  0  0  0  0  0  0  0
    1.1639   -3.4172    2.3436 H   0  0  0  0  0  0  0  0  0  0  0  0
    1.6242   -2.0242    3.3389 H   0  0  0  0  0  0  0  0  0  0  0  0
    1.2193   -2.0328   -0.4392 H   0  0  0  0  0  0  0  0  0  0  0  0
   -0.0422   -3.1116    0.1802 H   0  0  0  0  0  0  0  0  0  0  0  0
   -0.4749   -1.5089   -0.4085 H   0  0  0  0  0  0  0  0  0  0  0  0
    0.3476    3.1125   -0.2852 N   0  0  0  0  0  0  0  0  0  0  0  0
    0.7287    4.5017   -0.4013 C   0  0  2  0  0  0  0  0  0  0  0  0
    2.1068    4.6654    0.2262 C   0  0  0  0  0  0  0  0  0  0  0  0
    2.5621    3.8835    1.0583 O   0  0  0  0  0  0  0  0  0  0  0  0
   -0.2866    5.4121    0.2718 C   0  0  0  0  0  0  0  0  0  0  0  0
   -0.1268    2.6894   -1.0773 H   0  0  0  0  0  0  0  0  0  0  0  0
    0.7854    4.7257   -1.4721 H   0  0  0  0  0  0  0  0  0  0  0  0
   -0.3573    5.2024    1.3454 H   0  0  0  0  0  0  0  0  0  0  0  0
   -0.0113    6.4658    0.1583 H   0  0  0  0  0  0  0  0  0  0  0  0
   -1.2831    5.2715   -0.1606 H   0  0  0  0  0  0  0  0  0  0  0  0
    2.7507    5.8109   -0.2203 N   0  0  0  0  0  0  0  0  0  0  0  0
    4.0658    6.1945    0.2373 C   0  0  0  0  0  0  0  0  0  0  0  0
    2.3063    6.3913   -0.9255 H   0  0  0  0  0  0  0  0  0  0  0  0
    3.9718    6.8707    1.0998 H   0  0  0  0  0  0  0  0  0  0  0  0
    4.6267    5.2963    0.5352 H   0  0  0  0  0  0  0  0  0  0  0  0
    4.6010    6.7085   -0.5747 H   0  0  0  0  0  0  0  0  0  0  0  0
  1  3  1  0  0  0  0
  1  7  1  0  0  0  0
  1  2  2  0  0  0  0
 37 38  1  0  0  0  0
 38 46  1  0  0  0  0
 38 39  2  0  0  0  0
  8  9  1  0  0  0  0
  9 17  1  0  0  0  0
  9 10  2  0  0  0  0
 18 19  1  0  0  0  0
 19 36  1  0  0  0  0
 19 20  2  0  0  0  0
 37 40  1  0  0  0  0
  8 11  1  0  0  0  0
 22 23  1  0  0  0  0
 22 24  1  0  0  0  0
 46 47  1  0  0  0  0
 18 21  1  0  0  0  0
 21 22  1  0  0  0  0
 36 37  1  0  0  0  0
  7  8  1  0  0  0  0
 17 18  1  0  0  0  0
  3  4  1  0  0  0  0
  3  5  1  0  0  0  0
  3  6  1  0  0  0  0
 40 43  1  0  0  0  0
 40 44  1  0  0  0  0
 40 45  1  0  0  0  0
 11 14  1  0  0  0  0
 11 15  1  0  0  0  0
 11 16  1  0  0  0  0
 23 30  1  0  0  0  0
 23 31  1  0  0  0  0
 23 32  1  0  0  0  0
 24 33  1  0  0  0  0
 24 34  1  0  0  0  0
 24 35  1  0  0  0  0
 47 49  1  0  0  0  0
 47 50  1  0  0  0  0
 47 51  1  0  0  0  0
 21 27  1  0  0  0  0
 21 28  1  0  0  0  0
 37 42  1  0  0  0  0
  8 13  1  0  0  0  0
 18 26  1  0  0  0  0
 22 29  1  0  0  0  0
 46 48  1  0  0  0  0
  7 12  1  0  0  0  0
 36 41  1  0  0  0  0
 17 25  1  0  0  0  0
M  END
$$$$

  -OEChem-05262214473D

 51 50  0     1  0  0  0  0  0999 V2000
    3.4018   -1.2440   -3.0186 C   0  0  0  0  0  0  0  0  0  0  0  0
    3.2697   -2.0909   -2.1427 O   0  0  0  0  0  0  0  0  0  0  0  0
    4.6845   -1.1645   -3.7779 C   0  0  0  0  0  0  0  0  0  0  0  0
    5.4123   -0.4862   -3.3041 H   0  0  0  0  0  0  0  0  0  0  0  0
    5.1949   -2.1387   -3.8443 H   0  0  0  0  0  0  0  0  0  0  0  0
    4.5953   -0.8128   -4.8182 H   0  0  0  0  0  0  0  0  0  0  0  0
    2.4540   -0.3103   -3.4040 N   0  0  0  0  0  0  0  0  0  0  0  0
    1.1494   -0.2128   -2.8039 C   0  0  2  0  0  0  0  0  0  0  0  0
    1.3350    0.0367   -1.3130 C   0  0  0  0  0  0  0  0  0  0  0  0
    2.3625   -0.2586   -0.7063 O   0  0  0  0  0  0  0  0  0  0  0  0
    0.3331   -1.4728   -3.0467 C   0  0  0  0  0  0  0  0  0  0  0  0
    2.6924    0.3404   -4.1502 H   0  0  0  0  0  0  0  0  0  0  0  0
    0.6550    0.6514   -3.2607 H   0  0  0  0  0  0  0  0  0  0  0  0
    0.8129   -2.3494   -2.5963 H   0  0  0  0  0  0  0  0  0  0  0  0
   -0.6690   -1.3857   -2.6142 H   0  0  0  0  0  0  0  0  0  0  0  0
    0.2259   -1.6670   -4.1194 H   0  0  0  0  0  0  0  0  0  0  0  0
    0.2019    0.5893   -0.7269 N   0  0  0  0  0  0  0  0  0  0  0  0
    0.1242    0.9059    0.6756 C   0  0  2  0  0  0  0  0  0  0  0  0
    0.6107    2.3424    0.8393 C   0  0  0  0  0  0  0  0  0  0  0  0
    1.4245    2.6798    1.6967 O   0  0  0  0  0  0  0  0  0  0  0  0
    0.9724   -0.0423    1.5327 C   0  0  0  0  0  0  0  0  0  0  0  0
    0.4903   -1.5073    1.5470 C   0  0  0  0  0  0  0  0  0  0  0  0
    1.4965   -2.3743    2.3089 C   0  0  0  0  0  0  0  0  0  0  0  0
    0.2895   -2.0684    0.1386 C   0  0  0  0  0  0  0  0  0  0  0  0
   -0.5975    0.8179   -1.3140 H   0  0  0  0  0  0  0  0  0  0  0  0
   -0.9330    0.8584    0.9557 H   0  0  0  0  0  0  0  0  0  0  0  0
    0.9884    0.3325    2.5658 H   0  0  0  0  0  0  0  0  0  0  0  0
    2.0144   -0.0109    1.1876 H   0  0  0  0  0  0  0  0  0  0  0  0
   -0.4665   -1.5661    2.0801 H   0  0  0  0  0  0  0  0  0  0  0  0
    2.4764   -2.3542    1.8201 H   0  0  0  0  0  0  0  0  0  0  0  0
    1.1639   -3.4172    2.3436 H   0  0  0  0  0  0  0  0  0  0  0  0
    1.6242   -2.0242    3.3389 H   0  0  0  0  0  0  0  0  0  0  0  0
    1.2193   -2.0328   -0.4392 H   0  0  0  0  0  0  0  0  0  0  0  0
   -0.0422   -3.1116    0.1802 H   0  0  0  0  0  0  0  0  0  0  0  0
   -0.4749   -1.5089   -0.4085 H   0  0  0  0  0  0  0  0  0  0  0  0
    0.0668    3.1885   -0.1173 N   0  0  0  0  0  0  0  0  0  0  0  0
    0.3834    4.5960   -0.2024 C   0  0  2  0  0  0  0  0  0  0  0  0
    1.8701    4.7618    0.0837 C   0  0  0  0  0  0  0  0  0  0  0  0
    2.5290    3.9344    0.7101 O   0  0  0  0  0  0  0  0  0  0  0  0
   -0.4519    5.4110    0.7726 C   0  0  0  0  0  0  0  0  0  0  0  0
   -0.5797    2.8116   -0.8040 H   0  0  0  0  0  0  0  0  0  0  0  0
    0.1722    4.9060   -1.2317 H   0  0  0  0  0  0  0  0  0  0  0  0
   -0.2539    5.1146    1.8091 H   0  0  0  0  0  0  0  0  0  0  0  0
   -0.2313    6.4801    0.6867 H   0  0  0  0  0  0  0  0  0  0  0  0
   -1.5214    5.2673    0.5843 H   0  0  0  0  0  0  0  0  0  0  0  0
    2.3649    5.9627   -0.4054 N   0  0  0  0  0  0  0  0  0  0  0  0
    3.7451    6.3586   -0.2492 C   0  0  0  0  0  0  0  0  0  0  0  0
    1.7512    6.5797   -0.9292 H   0  0  0  0  0  0  0  0  0  0  0  0
    3.8533    6.9603    0.6652 H   0  0  0  0  0  0  0  0  0  0  0  0
    4.3775    5.4616   -0.1747 H   0  0  0  0  0  0  0  0  0  0  0  0
    4.0560    6.9552   -1.1195 H   0  0  0  0  0  0  0  0  0  0  0  0
  1  3  1  0  0  0  0
  1  7  1  0  0  0  0
  1  2  2  0  0  0  0
 37 38  1  0  0  0  0
 38 46  1  0  0  0  0
 38 39  2  0  0  0  0
  8  9  1  0  0  0  0
  9 17  1  0  0  0  0
  9 10  2  0  0  0  0
 18 19  1  0  0  0  0
 19 36  1  0  0  0  0
 19 20  2  0  0  0  0
 37 40  1  0  0  0  0
  8 11  1  0  0  0  0
 22 23  1  0  0  0  0
 22 24  1  0  0  0  0
 46 47  1  0  0  0  0
 18 21  1  0  0  0  0
 21 22  1  0  0  0  0
 36 37  1  0  0  0  0
  7  8  1  0  0  0  0
 17 18  1  0  0  0  0
  3  4  1  0  0  0  0
  3  5  1  0  0  0  0
  3  6  1  0  0  0  0
 40 43  1  0  0  0  0
 40 44  1  0  0  0  0
 40 45  1  0  0  0  0
 11 14  1  0  0  0  0
 11 15  1  0  0  0  0
 11 16  1  0  0  0  0
 23 30  1  0  0  0  0
 23 31  1  0  0  0  0
 23 32  1  0  0  0  0
 24 33  1  0  0  0  0
 24 34  1  0  0  0  0
 24 35  1  0  0  0  0
 47 49  1  0  0  0  0
 47 50  1  0  0  0  0
 47 51  1  0  0  0  0
 21 27  1  0  0  0  0
 21 28  1  0  0  0  0
 37 42  1  0  0  0  0
  8 13  1  0  0  0  0
 18 26  1  0  0  0  0
 22 29  1  0  0  0  0
 46 48  1  0  0  0  0
  7 12  1  0  0  0  0
 36 41  1  0  0  0  0
 17 25  1  0  0  0  0
M  END
$$$$

  -OEChem-05262214473D

 51 50  0     1  0  0  0  0  0999 V2000
    3.4018   -1.2440   -3.0186 C   0  0  0  0  0  0  0  0  0  0  0  0
    3.2697   -2.0909   -2.1427 O   0  0  0  0  0  0  0  0  0  0  0  0
    4.6845   -1.1645   -3.7779 C   0  0  0  0  0  0  0  0  0  0  0  0
    5.4123   -0.4862   -3.3041 H   0  0  0  0  0  0  0  0  0  0  0  0
    5.1949   -2.1387   -3.8443 H   0  0  0  0  0  0  0  0  0  0  0  0
    4.5953   -0.8128   -4.8182 H   0  0  0  0  0  0  0  0  0  0  0  0
    2.4540   -0.3103   -3.4040 N   0  0  0  0  0  0  0  0  0  0  0  0
    1.1494   -0.2128   -2.8039 C   0  0  2  0  0  0  0  0  0  0  0  0
    1.3350    0.0367   -1.3130 C   0  0  0  0  0  0  0  0  0  0  0  0
    2.3625   -0.2586   -0.7063 O   0  0  0  0  0  0  0  0  0  0  0  0
    0.3331   -1.4728   -3.0467 C   0  0  0  0  0  0  0  0  0  0  0  0
    2.6924    0.3404   -4.1502 H   0  0  0  0  0  0  0  0  0  0  0  0
    0.6550    0.6514   -3.2607 H   0  0  0  0  0  0  0  0  0  0  0  0
    0.8129   -2.3494   -2.5963 H   0  0  0  0  0  0  0  0  0  0  0  0
   -0.6690   -1.3857   -2.6142 H   0  0  0  0  0  0  0  0  0  0  0  0
    0.2259   -1.6670   -4.1194 H   0  0  0  0  0  0  0  0  0  0  0  0
    0.2019    0.5893   -0.7269 N   0  0  0  0  0  0  0  0  0  0  0  0
    0.1242    0.9059    0.6756 C   0  0  2  0  0  0  0  0  0  0  0  0
    0.6107    2.3424    0.8393 C   0  0  0  0  0  0  0  0  0  0  0  0
    1.6036    2.6416    1.4994 O   0  0  0  0  0  0  0  0  0  0  0  0
    0.9724   -0.0423    1.5327 C   0  0  0  0  0  0  0  0  0  0  0  0
    0.4903   -1.5073    1.5470 C   0  0  0  0  0  0  0  0  0  0  0  0
    1.4965   -2.3743    2.3089 C   0  0  0  0  0  0  0  0  0  0  0  0
    0.2895   -2.0684    0.1386 C   0  0  0  0  0  0  0  0  0  0  0  0
   -0.5975    0.8179   -1.3140 H   0  0  0  0  0  0  0  0  0  0  0  0
   -0.9330    0.8584    0.9557 H   0  0  0  0  0  0  0  0  0  0  0  0
    0.9884    0.3325    2.5658 H   0  0  0  0  0  0  0  0  0  0  0  0
    2.0144   -0.0109    1.1876 H   0  0  0  0  0  0  0  0  0  0  0  0
   -0.4665   -1.5661    2.0801 H   0  0  0  0  0  0  0  0  0  0  0  0
    2.4764   -2.3542    1.8201 H   0  0  0  0  0  0  0  0  0  0  0  0
    1.1639   -3.4172    2.3436 H   0  0  0  0  0  0  0  0  0  0  0  0
    1.6242   -2.0242    3.3389 H   0  0  0  0  0  0  0  0  0  0  0  0
    1.2193   -2.0328   -0.4392 H   0  0  0  0  0  0  0  0  0  0  0  0
   -0.0422   -3.1116    0.1802 H   0  0  0  0  0  0  0  0  0  0  0  0
   -0.4749   -1.5089   -0.4085 H   0  0  0  0  0  0  0  0  0  0  0  0
   -0.1656    3.2402    0.1196 N   0  0  0  0  0  0  0  0  0  0  0  0
    0.0958    4.6611    0.0816 C   0  0  2  0  0  0  0  0  0  0  0  0
    1.6041    4.8601    0.0117 C   0  0  0  0  0  0  0  0  0  0  0  0
    2.4107    4.0114    0.3861 O   0  0  0  0  0  0  0  0  0  0  0  0
   -0.4896    5.3641    1.2964 C   0  0  0  0  0  0  0  0  0  0  0  0
   -0.9539    2.8946   -0.4196 H   0  0  0  0  0  0  0  0  0  0  0  0
   -0.3664    5.0432   -0.8351 H   0  0  0  0  0  0  0  0  0  0  0  0
   -0.0386    4.9943    2.2245 H   0  0  0  0  0  0  0  0  0  0  0  0
   -0.3155    6.4442    1.2519 H   0  0  0  0  0  0  0  0  0  0  0  0
   -1.5698    5.1951    1.3616 H   0  0  0  0  0  0  0  0  0  0  0  0
    1.9430    6.1138   -0.4776 N   0  0  0  0  0  0  0  0  0  0  0  0
    3.3122    6.5483   -0.6275 C   0  0  0  0  0  0  0  0  0  0  0  0
    1.2089    6.7466   -0.7819 H   0  0  0  0  0  0  0  0  0  0  0  0
    3.6304    7.0795    0.2817 H   0  0  0  0  0  0  0  0  0  0  0  0
    3.9592    5.6730   -0.7860 H   0  0  0  0  0  0  0  0  0  0  0  0
    3.3900    7.2233   -1.4925 H   0  0  0  0  0  0  0  0  0  0  0  0
  1  3  1  0  0  0  0
  1  7  1  0  0  0  0
  1  2  2  0  0  0  0
 37 38  1  0  0  0  0
 38 46  1  0  0  0  0
 38 39  2  0  0  0  0
  8  9  1  0  0  0  0
  9 17  1  0  0  0  0
  9 10  2  0  0  0  0
 18 19  1  0  0  0  0
 19 36  1  0  0  0  0
 19 20  2  0  0  0  0
 37 40  1  0  0  0  0
  8 11  1  0  0  0  0
 22 23  1  0  0  0  0
 22 24  1  0  0  0  0
 46 47  1  0  0  0  0
 18 21  1  0  0  0  0
 21 22  1  0  0  0  0
 36 37  1  0  0  0  0
  7  8  1  0  0  0  0
 17 18  1  0  0  0  0
  3  4  1  0  0  0  0
  3  5  1  0  0  0  0
  3  6  1  0  0  0  0
 40 43  1  0  0  0  0
 40 44  1  0  0  0  0
 40 45  1  0  0  0  0
 11 14  1  0  0  0  0
 11 15  1  0  0  0  0
 11 16  1  0  0  0  0
 23 30  1  0  0  0  0
 23 31  1  0  0  0  0
 23 32  1  0  0  0  0
 24 33  1  0  0  0  0
 24 34  1  0  0  0  0
 24 35  1  0  0  0  0
 47 49  1  0  0  0  0
 47 50  1  0  0  0  0
 47 51  1  0  0  0  0
 21 27  1  0  0  0  0
 21 28  1  0  0  0  0
 37 42  1  0  0  0  0
  8 13  1  0  0  0  0
 18 26  1  0  0  0  0
 22 29  1  0  0  0  0
 46 48  1  0  0  0  0
  7 12  1  0  0  0  0
 36 41  1  0  0  0  0
 17 25  1  0  0  0  0
M  END
$$$$

  -OEChem-05262214473D

 51 50  0     1  0  0  0  0  0999 V2000
    3.4018   -1.2440   -3.0186 C   0  0  0  0  0  0  0  0  0  0  0  0
    3.2697   -2.0909   -2.1427 O   0  0  0  0  0  0  0  0  0  0  0  0
    4.6845   -1.1645   -3.7779 C   0  0  0  0  0  0  0  0  0  0  0  0
    5.4123   -0.4862   -3.3041 H   0  0  0  0  0  0  0  0  0  0  0  0
    5.1949   -2.1387   -3.8443 H   0  0  0  0  0  0  0  0  0  0  0  0
    4.5953   -0.8128   -4.8182 H   0  0  0  0  0  0  0  0  0  0  0  0
    2.4540   -0.3103   -3.4040 N   0  0  0  0  0  0  0  0  0  0  0  0
    1.1494   -0.2128   -2.8039 C   0  0  2  0  0  0  0  0  0  0  0  0
    1.3350    0.0367   -1.3130 C   0  0  0  0  0  0  0  0  0  0  0  0
    2.3625   -0.2586   -0.7063 O   0  0  0  0  0  0  0  0  0  0  0  0
    0.3331   -1.4728   -3.0467 C   0  0  0  0  0  0  0  0  0  0  0  0
    2.6924    0.3404   -4.1502 H   0  0  0  0  0  0  0  0  0  0  0  0
    0.6550    0.6514   -3.2607 H   0  0  0  0  0  0  0  0  0  0  0  0
    0.8129   -2.3494   -2.5963 H   0  0  0  0  0  0  0  0  0  0  0  0
   -0.6690   -1.3857   -2.6142 H   0  0  0  0  0  0  0  0  0  0  0  0
    0.2259   -1.6670   -4.1194 H   0  0  0  0  0  0  0  0  0  0  0  0
    0.2019    0.5893   -0.7269 N   0  0  0  0  0  0  0  0  0  0  0  0
    0.1242    0.9059    0.6756 C   0  0  2  0  0  0  0  0  0  0  0  0
    0.6107    2.3424    0.8393 C   0  0  0  0  0  0  0  0  0  0  0  0
    1.7297    2.6259    1.2621 O   0  0  0  0  0  0  0  0  0  0  0  0
    0.9724   -0.0423    1.5327 C   0  0  0  0  0  0  0  0  0  0  0  0
    0.4903   -1.5073    1.5470 C   0  0  0  0  0  0  0  0  0  0  0  0
    1.4965   -2.3743    2.3089 C   0  0  0  0  0  0  0  0  0  0  0  0
    0.2895   -2.0684    0.1386 C   0  0  0  0  0  0  0  0  0  0  0  0
   -0.5975    0.8179   -1.3140 H   0  0  0  0  0  0  0  0  0  0  0  0
   -0.9330    0.8584    0.9557 H   0  0  0  0  0  0  0  0  0  0  0  0
    0.9884    0.3325    2.5658 H   0  0  0  0  0  0  0  0  0  0  0  0
    2.0144   -0.0109    1.1876 H   0  0  0  0  0  0  0  0  0  0  0  0
   -0.4665   -1.5661    2.0801 H   0  0  0  0  0  0  0  0  0  0  0  0
    2.4764   -2.3542    1.8201 H   0  0  0  0  0  0  0  0  0  0  0  0
    1.1639   -3.4172    2.3436 H   0  0  0  0  0  0  0  0  0  0  0  0
    1.6242   -2.0242    3.3389 H   0  0  0  0  0  0  0  0  0  0  0  0
    1.2193   -2.0328   -0.4392 H   0  0  0  0  0  0  0  0  0  0  0  0
   -0.0422   -3.1116    0.1802 H   0  0  0  0  0  0  0  0  0  0  0  0
   -0.4749   -1.5089   -0.4085 H   0  0  0  0  0  0  0  0  0  0  0  0
   -0.3338    3.2641    0.4094 N   0  0  0  0  0  0  0  0  0  0  0  0
   -0.1147    4.6925    0.4314 C   0  0  2  0  0  0  0  0  0  0  0  0
    1.3269    4.9536    0.0152 C   0  0  0  0  0  0  0  0  0  0  0  0
    2.2154    4.1092    0.1083 O   0  0  0  0  0  0  0  0  0  0  0  0
   -0.3969    5.2744    1.8078 C   0  0  0  0  0  0  0  0  0  0  0  0
   -1.2239    2.9326    0.0498 H   0  0  0  0  0  0  0  0  0  0  0  0
   -0.7939    5.1281   -0.3094 H   0  0  0  0  0  0  0  0  0  0  0  0
    0.2740    4.8498    2.5634 H   0  0  0  0  0  0  0  0  0  0  0  0
   -0.2580    6.3606    1.8154 H   0  0  0  0  0  0  0  0  0  0  0  0
   -1.4252    5.0599    2.1182 H   0  0  0  0  0  0  0  0  0  0  0  0
    1.5135    6.2541   -0.4321 N   0  0  0  0  0  0  0  0  0  0  0  0
    2.7965    6.7508   -0.8716 C   0  0  0  0  0  0  0  0  0  0  0  0
    0.7164    6.8806   -0.4936 H   0  0  0  0  0  0  0  0  0  0  0  0
    3.3184    7.2201   -0.0246 H   0  0  0  0  0  0  0  0  0  0  0  0
    3.4003    5.9160   -1.2570 H   0  0  0  0  0  0  0  0  0  0  0  0
    2.6483    7.4945   -1.6684 H   0  0  0  0  0  0  0  0  0  0  0  0
  1  3  1  0  0  0  0
  1  7  1  0  0  0  0
  1  2  2  0  0  0  0
 37 38  1  0  0  0  0
 38 46  1  0  0  0  0
 38 39  2  0  0  0  0
  8  9  1  0  0  0  0
  9 17  1  0  0  0  0
  9 10  2  0  0  0  0
 18 19  1  0  0  0  0
 19 36  1  0  0  0  0
 19 20  2  0  0  0  0
 37 40  1  0  0  0  0
  8 11  1  0  0  0  0
 22 23  1  0  0  0  0
 22 24  1  0  0  0  0
 46 47  1  0  0  0  0
 18 21  1  0  0  0  0
 21 22  1  0  0  0  0
 36 37  1  0  0  0  0
  7  8  1  0  0  0  0
 17 18  1  0  0  0  0
  3  4  1  0  0  0  0
  3  5  1  0  0  0  0
  3  6  1  0  0  0  0
 40 43  1  0  0  0  0
 40 44  1  0  0  0  0
 40 45  1  0  0  0  0
 11 14  1  0  0  0  0
 11 15  1  0  0  0  0
 11 16  1  0  0  0  0
 23 30  1  0  0  0  0
 23 31  1  0  0  0  0
 23 32  1  0  0  0  0
 24 33  1  0  0  0  0
 24 34  1  0  0  0  0
 24 35  1  0  0  0  0
 47 49  1  0  0  0  0
 47 50  1  0  0  0  0
 47 51  1  0  0  0  0
 21 27  1  0  0  0  0
 21 28  1  0  0  0  0
 37 42  1  0  0  0  0
  8 13  1  0  0  0  0
 18 26  1  0  0  0  0
 22 29  1  0  0  0  0
 46 48  1  0  0  0  0
  7 12  1  0  0  0  0
 36 41  1  0  0  0  0
 17 25  1  0  0  0  0
M  END
$$$$

  -OEChem-05262214473D

 51 50  0     1  0  0  0  0  0999 V2000
    3.4018   -1.2440   -3.0186 C   0  0  0  0  0  0  0  0  0  0  0  0
    3.2697   -2.0909   -2.1427 O   0  0  0  0  0  0  0  0  0  0  0  0
    4.6845   -1.1645   -3.7779 C   0  0  0  0  0  0  0  0  0  0  0  0
    5.4123   -0.4862   -3.3041 H   0  0  0  0  0  0  0  0  0  0  0  0
    5.1949   -2.1387   -3.8443 H   0  0  0  0  0  0  0  0  0  0  0  0
    4.5953   -0.8128   -4.8182 H   0  0  0  0  0  0  0  0  0  0  0  0
    2.4540   -0.3103   -3.4040 N   0  0  0  0  0  0  0  0  0  0  0  0
    1.1494   -0.2128   -2.8039 C   0  0  2  0  0  0  0  0  0  0  0  0
    1.3350    0.0367   -1.3130 C   0  0  0  0  0  0  0  0  0  0  0  0
    2.3625   -0.2586   -0.7063 O   0  0  0  0  0  0  0  0  0  0  0  0
    0.3331   -1.4728   -3.0467 C   0  0  0  0  0  0  0  0  0  0  0  0
    2.6924    0.3404   -4.1502 H   0  0  0  0  0  0  0  0  0  0  0  0
    0.6550    0.6514   -3.2607 H   0  0  0  0  0  0  0  0  0  0  0  0
    0.8129   -2.3494   -2.5963 H   0  0  0  0  0  0  0  0  0  0  0  0
   -0.6690   -1.3857   -2.6142 H   0  0  0  0  0  0  0  0  0  0  0  0
    0.2259   -1.6670   -4.1194 H   0  0  0  0  0  0  0  0  0  0  0  0
    0.2019    0.5893   -0.7269 N   0  0  0  0  0  0  0  0  0  0  0  0
    0.1242    0.9059    0.6756 C   0  0  2  0  0  0  0  0  0  0  0  0
    0.6107    2.3424    0.8393 C   0  0  0  0  0  0  0  0  0  0  0  0
    1.7940    2.6339    1.0008 O   0  0  0  0  0  0  0  0  0  0  0  0
    0.9724   -0.0423    1.5327 C   0  0  0  0  0  0  0  0  0  0  0  0
    0.4903   -1.5073    1.5470 C   0  0  0  0  0  0  0  0  0  0  0  0
    1.4965   -2.3743    2.3089 C   0  0  0  0  0  0  0  0  0  0  0  0
    0.2895   -2.0684    0.1386 C   0  0  0  0  0  0  0  0  0  0  0  0
   -0.5975    0.8179   -1.3140 H   0  0  0  0  0  0  0  0  0  0  0  0
   -0.9330    0.8584    0.9557 H   0  0  0  0  0  0  0  0  0  0  0  0
    0.9884    0.3325    2.5658 H   0  0  0  0  0  0  0  0  0  0  0  0
    2.0144   -0.0109    1.1876 H   0  0  0  0  0  0  0  0  0  0  0  0
   -0.4665   -1.5661    2.0801 H   0  0  0  0  0  0  0  0  0  0  0  0
    2.4764   -2.3542    1.8201 H   0  0  0  0  0  0  0  0  0  0  0  0
    1.1639   -3.4172    2.3436 H   0  0  0  0  0  0  0  0  0  0  0  0
    1.6242   -2.0242    3.3389 H   0  0  0  0  0  0  0  0  0  0  0  0
    1.2193   -2.0328   -0.4392 H   0  0  0  0  0  0  0  0  0  0  0  0
   -0.0422   -3.1116    0.1802 H   0  0  0  0  0  0  0  0  0  0  0  0
   -0.4749   -1.5089   -0.4085 H   0  0  0  0  0  0  0  0  0  0  0  0
   -0.4263    3.2587    0.7322 N   0  0  0  0  0  0  0  0  0  0  0  0
   -0.2336    4.6881    0.8232 C   0  0  2  0  0  0  0  0  0  0  0  0
    1.0573    5.0359    0.0938 C   0  0  0  0  0  0  0  0  0  0  0  0
    1.9563    4.2212   -0.1044 O   0  0  0  0  0  0  0  0  0  0  0  0
   -0.1803    5.1482    2.2717 C   0  0  0  0  0  0  0  0  0  0  0  0
   -1.3715    2.9230    0.5721 H   0  0  0  0  0  0  0  0  0  0  0  0
   -1.0811    5.1549    0.3095 H   0  0  0  0  0  0  0  0  0  0  0  0
    0.6626    4.6909    2.8026 H   0  0  0  0  0  0  0  0  0  0  0  0
   -0.0629    6.2348    2.3388 H   0  0  0  0  0  0  0  0  0  0  0  0
   -1.0974    4.8709    2.8027 H   0  0  0  0  0  0  0  0  0  0  0  0
    1.1060    6.3739   -0.2719 N   0  0  0  0  0  0  0  0  0  0  0  0
    2.2333    6.9522   -0.9651 C   0  0  0  0  0  0  0  0  0  0  0  0
    0.3072    6.9725   -0.0841 H   0  0  0  0  0  0  0  0  0  0  0  0
    2.9384    7.3725   -0.2328 H   0  0  0  0  0  0  0  0  0  0  0  0
    2.7389    6.1740   -1.5558 H   0  0  0  0  0  0  0  0  0  0  0  0
    1.8814    7.7505   -1.6351 H   0  0  0  0  0  0  0  0  0  0  0  0
  1  3  1  0  0  0  0
  1  7  1  0  0  0  0
  1  2  2  0  0  0  0
 37 38  1  0  0  0  0
 38 46  1  0  0  0  0
 38 39  2  0  0  0  0
  8  9  1  0  0  0  0
  9 17  1  0  0  0  0
  9 10  2  0  0  0  0
 18 19  1  0  0  0  0
 19 36  1  0  0  0  0
 19 20  2  0  0  0  0
 37 40  1  0  0  0  0
  8 11  1  0  0  0  0
 22 23  1  0  0  0  0
 22 24  1  0  0  0  0
 46 47  1  0  0  0  0
 18 21  1  0  0  0  0
 21 22  1  0  0  0  0
 36 37  1  0  0  0  0
  7  8  1  0  0  0  0
 17 18  1  0  0  0  0
  3  4  1  0  0  0  0
  3  5  1  0  0  0  0
  3  6  1  0  0  0  0
 40 43  1  0  0  0  0
 40 44  1  0  0  0  0
 40 45  1  0  0  0  0
 11 14  1  0  0  0  0
 11 15  1  0  0  0  0
 11 16  1  0  0  0  0
 23 30  1  0  0  0  0
 23 31  1  0  0  0  0
 23 32  1  0  0  0  0
 24 33  1  0  0  0  0
 24 34  1  0  0  0  0
 24 35  1  0  0  0  0
 47 49  1  0  0  0  0
 47 50  1  0  0  0  0
 47 51  1  0  0  0  0
 21 27  1  0  0  0  0
 21 28  1  0  0  0  0
 37 42  1  0  0  0  0
  8 13  1  0  0  0  0
 18 26  1  0  0  0  0
 22 29  1  0  0  0  0
 46 48  1  0  0  0  0
  7 12  1  0  0  0  0
 36 41  1  0  0  0  0
 17 25  1  0  0  0  0
M  END
$$$$

  -OEChem-05262214473D

 51 50  0     1  0  0  0  0  0999 V2000
    3.4018   -1.2440   -3.0186 C   0  0  0  0  0  0  0  0  0  0  0  0
    3.2697   -2.0909   -2.1427 O   0  0  0  0  0  0  0  0  0  0  0  0
    4.6845   -1.1645   -3.7779 C   0  0  0  0  0  0  0  0  0  0  0  0
    5.4123   -0.4862   -3.3041 H   0  0  0  0  0  0  0  0  0  0  0  0
    5.1949   -2.1387   -3.8443 H   0  0  0  0  0  0  0  0  0  0  0  0
    4.5953   -0.8128   -4.8182 H   0  0  0  0  0  0  0  0  0  0  0  0
    2.4540   -0.3103   -3.4040 N   0  0  0  0  0  0  0  0  0  0  0  0
    1.1494   -0.2128   -2.8039 C   0  0  2  0  0  0  0  0  0  0  0  0
    1.3350    0.0367   -1.3130 C   0  0  0  0  0  0  0  0  0  0  0  0
    2.3625   -0.2586   -0.7063 O   0  0  0  0  0  0  0  0  0  0  0  0
    0.3331   -1.4728   -3.0467 C   0  0  0  0  0  0  0  0  0  0  0  0
    2.6924    0.3404   -4.1502 H   0  0  0  0  0  0  0  0  0  0  0  0
    0.6550    0.6514   -3.2607 H   0  0  0  0  0  0  0  0  0  0  0  0
    0.8129   -2.3494   -2.5963 H   0  0  0  0  0  0  0  0  0  0  0  0
   -0.6690   -1.3857   -2.6142 H   0  0  0  0  0  0  0  0  0  0  0  0
    0.2259   -1.6670   -4.1194 H   0  0  0  0  0  0  0  0  0  0  0  0
    0.2019    0.5893   -0.7269 N   0  0  0  0  0  0  0  0  0  0  0  0
    0.1242    0.9059    0.6756 C   0  0  2  0  0  0  0  0  0  0  0  0
    0.6107    2.3424    0.8393 C   0  0  0  0  0  0  0  0  0  0  0  0
    1.7922    2.6650    0.7334 O   0  0  0  0  0  0  0  0  0  0  0  0
    0.9724   -0.0423    1.5327 C   0  0  0  0  0  0  0  0  0  0  0  0
    0.4903   -1.5073    1.5470 C   0  0  0  0  0  0  0  0  0  0  0  0
    1.4965   -2.3743    2.3089 C   0  0  0  0  0  0  0  0  0  0  0  0
    0.2895   -2.0684    0.1386 C   0  0  0  0  0  0  0  0  0  0  0  0
   -0.5975    0.8179   -1.3140 H   0  0  0  0  0  0  0  0  0  0  0  0
   -0.9330    0.8584    0.9557 H   0  0  0  0  0  0  0  0  0  0  0  0
    0.9884    0.3325    2.5658 H   0  0  0  0  0  0  0  0  0  0  0  0
    2.0144   -0.0109    1.1876 H   0  0  0  0  0  0  0  0  0  0  0  0
   -0.4665   -1.5661    2.0801 H   0  0  0  0  0  0  0  0  0  0  0  0
    2.4764   -2.3542    1.8201 H   0  0  0  0  0  0  0  0  0  0  0  0
    1.1639   -3.4172    2.3436 H   0  0  0  0  0  0  0  0  0  0  0  0
    1.6242   -2.0242    3.3389 H   0  0  0  0  0  0  0  0  0  0  0  0
    1.2193   -2.0328   -0.4392 H   0  0  0  0  0  0  0  0  0  0  0  0
   -0.0422   -3.1116    0.1802 H   0  0  0  0  0  0  0  0  0  0  0  0
   -0.4749   -1.5089   -0.4085 H   0  0  0  0  0  0  0  0  0  0  0  0
   -0.4369    3.2242    1.0662 N   0  0  0  0  0  0  0  0  0  0  0  0
   -0.2528    4.6482    1.2302 C   0  0  2  0  0  0  0  0  0  0  0  0
    0.8139    5.1015    0.2422 C   0  0  0  0  0  0  0  0  0  0  0  0
    1.6510    4.3398   -0.2374 O   0  0  0  0  0  0  0  0  0  0  0  0
    0.1455    4.9940    2.6566 C   0  0  0  0  0  0  0  0  0  0  0  0
   -1.3864    2.8666    1.1119 H   0  0  0  0  0  0  0  0  0  0  0  0
   -1.2084    5.1216    0.9796 H   0  0  0  0  0  0  0  0  0  0  0  0
    1.1006    4.5285    2.9259 H   0  0  0  0  0  0  0  0  0  0  0  0
    0.2567    6.0756    2.7864 H   0  0  0  0  0  0  0  0  0  0  0  0
   -0.6086    4.6409    3.3683 H   0  0  0  0  0  0  0  0  0  0  0  0
    0.7480    6.4650   -0.0079 N   0  0  0  0  0  0  0  0  0  0  0  0
    1.6610    7.1388   -0.9015 C   0  0  0  0  0  0  0  0  0  0  0  0
    0.0091    7.0162    0.4188 H   0  0  0  0  0  0  0  0  0  0  0  0
    2.5164    7.5264   -0.3287 H   0  0  0  0  0  0  0  0  0  0  0  0
    2.0200    6.4296   -1.6618 H   0  0  0  0  0  0  0  0  0  0  0  0
    1.1417    7.9736   -1.3949 H   0  0  0  0  0  0  0  0  0  0  0  0
  1  3  1  0  0  0  0
  1  7  1  0  0  0  0
  1  2  2  0  0  0  0
 37 38  1  0  0  0  0
 38 46  1  0  0  0  0
 38 39  2  0  0  0  0
  8  9  1  0  0  0  0
  9 17  1  0  0  0  0
  9 10  2  0  0  0  0
 18 19  1  0  0  0  0
 19 36  1  0  0  0  0
 19 20  2  0  0  0  0
 37 40  1  0  0  0  0
  8 11  1  0  0  0  0
 22 23  1  0  0  0  0
 22 24  1  0  0  0  0
 46 47  1  0  0  0  0
 18 21  1  0  0  0  0
 21 22  1  0  0  0  0
 36 37  1  0  0  0  0
  7  8  1  0  0  0  0
 17 18  1  0  0  0  0
  3  4  1  0  0  0  0
  3  5  1  0  0  0  0
  3  6  1  0  0  0  0
 40 43  1  0  0  0  0
 40 44  1  0  0  0  0
 40 45  1  0  0  0  0
 11 14  1  0  0  0  0
 11 15  1  0  0  0  0
 11 16  1  0  0  0  0
 23 30  1  0  0  0  0
 23 31  1  0  0  0  0
 23 32  1  0  0  0  0
 24 33  1  0  0  0  0
 24 34  1  0  0  0  0
 24 35  1  0  0  0  0
 47 49  1  0  0  0  0
 47 50  1  0  0  0  0
 47 51  1  0  0  0  0
 21 27  1  0  0  0  0
 21 28  1  0  0  0  0
 37 42  1  0  0  0  0
  8 13  1  0  0  0  0
 18 26  1  0  0  0  0
 22 29  1  0  0  0  0
 46 48  1  0  0  0  0
  7 12  1  0  0  0  0
 36 41  1  0  0  0  0
 17 25  1  0  0  0  0
M  END
$$$$

  -OEChem-05262214473D

 51 50  0     1  0  0  0  0  0999 V2000
    3.4018   -1.2440   -3.0186 C   0  0  0  0  0  0  0  0  0  0  0  0
    3.2697   -2.0909   -2.1427 O   0  0  0  0  0  0  0  0  0  0  0  0
    4.6845   -1.1645   -3.7779 C   0  0  0  0  0  0  0  0  0  0  0  0
    5.4123   -0.4862   -3.3041 H   0  0  0  0  0  0  0  0  0  0  0  0
    5.1949   -2.1387   -3.8443 H   0  0  0  0  0  0  0  0  0  0  0  0
    4.5953   -0.8128   -4.8182 H   0  0  0  0  0  0  0  0  0  0  0  0
    2.4540   -0.3103   -3.4040 N   0  0  0  0  0  0  0  0  0  0  0  0
    1.1494   -0.2128   -2.8039 C   0  0  2  0  0  0  0  0  0  0  0  0
    1.3350    0.0367   -1.3130 C   0  0  0  0  0  0  0  0  0  0  0  0
    2.3625   -0.2586   -0.7063 O   0  0  0  0  0  0  0  0  0  0  0  0
    0.3331   -1.4728   -3.0467 C   0  0  0  0  0  0  0  0  0  0  0  0
    2.6924    0.3404   -4.1502 H   0  0  0  0  0  0  0  0  0  0  0  0
    0.6550    0.6514   -3.2607 H   0  0  0  0  0  0  0  0  0  0  0  0
    0.8129   -2.3494   -2.5963 H   0  0  0  0  0  0  0  0  0  0  0  0
   -0.6690   -1.3857   -2.6142 H   0  0  0  0  0  0  0  0  0  0  0  0
    0.2259   -1.6670   -4.1194 H   0  0  0  0  0  0  0  0  0  0  0  0
    0.2019    0.5893   -0.7269 N   0  0  0  0  0  0  0  0  0  0  0  0
    0.1242    0.9059    0.6756 C   0  0  2  0  0  0  0  0  0  0  0  0
    0.6107    2.3424    0.8393 C   0  0  0  0  0  0  0  0  0  0  0  0
    1.7245    2.7170    0.4781 O   0  0  0  0  0  0  0  0  0  0  0  0
    0.9724   -0.0423    1.5327 C   0  0  0  0  0  0  0  0  0  0  0  0
    0.4903   -1.5073    1.5470 C   0  0  0  0  0  0  0  0  0  0  0  0
    1.4965   -2.3743    2.3089 C   0  0  0  0  0  0  0  0  0  0  0  0
    0.2895   -2.0684    0.1386 C   0  0  0  0  0  0  0  0  0  0  0  0
   -0.5975    0.8179   -1.3140 H   0  0  0  0  0  0  0  0  0  0  0  0
   -0.9330    0.8584    0.9557 H   0  0  0  0  0  0  0  0  0  0  0  0
    0.9884    0.3325    2.5658 H   0  0  0  0  0  0  0  0  0  0  0  0
    2.0144   -0.0109    1.1876 H   0  0  0  0  0  0  0  0  0  0  0  0
   -0.4665   -1.5661    2.0801 H   0  0  0  0  0  0  0  0  0  0  0  0
    2.4764   -2.3542    1.8201 H   0  0  0  0  0  0  0  0  0  0  0  0
    1.1639   -3.4172    2.3436 H   0  0  0  0  0  0  0  0  0  0  0  0
    1.6242   -2.0242    3.3389 H   0  0  0  0  0  0  0  0  0  0  0  0
    1.2193   -2.0328   -0.4392 H   0  0  0  0  0  0  0  0  0  0  0  0
   -0.0422   -3.1116    0.1802 H   0  0  0  0  0  0  0  0  0  0  0  0
   -0.4749   -1.5089   -0.4085 H   0  0  0  0  0  0  0  0  0  0  0  0
   -0.3647    3.1630    1.3885 N   0  0  0  0  0  0  0  0  0  0  0  0
   -0.1711    4.5756    1.6248 C   0  0  2  0  0  0  0  0  0  0  0  0
    0.6130    5.1458    0.4503 C   0  0  0  0  0  0  0  0  0  0  0  0
    1.3205    4.4568   -0.2817 O   0  0  0  0  0  0  0  0  0  0  0  0
    0.5583    4.8223    2.9363 C   0  0  0  0  0  0  0  0  0  0  0  0
   -1.2677    2.7671    1.6322 H   0  0  0  0  0  0  0  0  0  0  0  0
   -1.1671    5.0306    1.6551 H   0  0  0  0  0  0  0  0  0  0  0  0
    1.5583    4.3736    2.9248 H   0  0  0  0  0  0  0  0  0  0  0  0
    0.6789    5.8937    3.1277 H   0  0  0  0  0  0  0  0  0  0  0  0
    0.0077    4.3856    3.7765 H   0  0  0  0  0  0  0  0  0  0  0  0
    0.4640    6.5214    0.3419 N   0  0  0  0  0  0  0  0  0  0  0  0
    1.1184    7.2979   -0.6851 C   0  0  0  0  0  0  0  0  0  0  0  0
   -0.1574    7.0085    0.9808 H   0  0  0  0  0  0  0  0  0  0  0  0
    2.0811    7.6712   -0.3058 H   0  0  0  0  0  0  0  0  0  0  0  0
    1.2927    6.6652   -1.5679 H   0  0  0  0  0  0  0  0  0  0  0  0
    0.4796    8.1488   -0.9642 H   0  0  0  0  0  0  0  0  0  0  0  0
  1  3  1  0  0  0  0
  1  7  1  0  0  0  0
  1  2  2  0  0  0  0
 37 38  1  0  0  0  0
 38 46  1  0  0  0  0
 38 39  2  0  0  0  0
  8  9  1  0  0  0  0
  9 17  1  0  0  0  0
  9 10  2  0  0  0  0
 18 19  1  0  0  0  0
 19 36  1  0  0  0  0
 19 20  2  0  0  0  0
 37 40  1  0  0  0  0
  8 11  1  0  0  0  0
 22 23  1  0  0  0  0
 22 24  1  0  0  0  0
 46 47  1  0  0  0  0
 18 21  1  0  0  0  0
 21 22  1  0  0  0  0
 36 37  1  0  0  0  0
  7  8  1  0  0  0  0
 17 18  1  0  0  0  0
  3  4  1  0  0  0  0
  3  5  1  0  0  0  0
  3  6  1  0  0  0  0
 40 43  1  0  0  0  0
 40 44  1  0  0  0  0
 40 45  1  0  0  0  0
 11 14  1  0  0  0  0
 11 15  1  0  0  0  0
 11 16  1  0  0  0  0
 23 30  1  0  0  0  0
 23 31  1  0  0  0  0
 23 32  1  0  0  0  0
 24 33  1  0  0  0  0
 24 34  1  0  0  0  0
 24 35  1  0  0  0  0
 47 49  1  0  0  0  0
 47 50  1  0  0  0  0
 47 51  1  0  0  0  0
 21 27  1  0  0  0  0
 21 28  1  0  0  0  0
 37 42  1  0  0  0  0
  8 13  1  0  0  0  0
 18 26  1  0  0  0  0
 22 29  1  0  0  0  0
 46 48  1  0  0  0  0
  7 12  1  0  0  0  0
 36 41  1  0  0  0  0
 17 25  1  0  0  0  0
M  END
$$$$

  -OEChem-05262214473D

 51 50  0     1  0  0  0  0  0999 V2000
    3.4018   -1.2440   -3.0186 C   0  0  0  0  0  0  0  0  0  0  0  0
    3.2697   -2.0909   -2.1427 O   0  0  0  0  0  0  0  0  0  0  0  0
    4.6845   -1.1645   -3.7779 C   0  0  0  0  0  0  0  0  0  0  0  0
    5.4123   -0.4862   -3.3041 H   0  0  0  0  0  0  0  0  0  0  0  0
    5.1949   -2.1387   -3.8443 H   0  0  0  0  0  0  0  0  0  0  0  0
    4.5953   -0.8128   -4.8182 H   0  0  0  0  0  0  0  0  0  0  0  0
    2.4540   -0.3103   -3.4040 N   0  0  0  0  0  0  0  0  0  0  0  0
    1.1494   -0.2128   -2.8039 C   0  0  2  0  0  0  0  0  0  0  0  0
    1.3350    0.0367   -1.3130 C   0  0  0  0  0  0  0  0  0  0  0  0
    2.3625   -0.2586   -0.7063 O   0  0  0  0  0  0  0  0  0  0  0  0
    0.3331   -1.4728   -3.0467 C   0  0  0  0  0  0  0  0  0  0  0  0
    2.6924    0.3404   -4.1502 H   0  0  0  0  0  0  0  0  0  0  0  0
    0.6550    0.6514   -3.2607 H   0  0  0  0  0  0  0  0  0  0  0  0
    0.8129   -2.3494   -2.5963 H   0  0  0  0  0  0  0  0  0  0  0  0
   -0.6690   -1.3857   -2.6142 H   0  0  0  0  0  0  0  0  0  0  0  0
    0.2259   -1.6670   -4.1194 H   0  0  0  0  0  0  0  0  0  0  0  0
    0.2019    0.5893   -0.7269 N   0  0  0  0  0  0  0  0  0  0  0  0
    0.1242    0.9059    0.6756 C   0  0  2  0  0  0  0  0  0  0  0  0
    0.6107    2.3424    0.8393 C   0  0  0  0  0  0  0  0  0  0  0  0
    1.5954    2.7865    0.2524 O   0  0  0  0  0  0  0  0  0  0  0  0
    0.9724   -0.0423    1.5327 C   0  0  0  0  0  0  0  0  0  0  0  0
    0.4903   -1.5073    1.5470 C   0  0  0  0  0  0  0  0  0  0  0  0
    1.4965   -2.3743    2.3089 C   0  0  0  0  0  0  0  0  0  0  0  0
    0.2895   -2.0684    0.1386 C   0  0  0  0  0  0  0  0  0  0  0  0
   -0.5975    0.8179   -1.3140 H   0  0  0  0  0  0  0  0  0  0  0  0
   -0.9330    0.8584    0.9557 H   0  0  0  0  0  0  0  0  0  0  0  0
    0.9884    0.3325    2.5658 H   0  0  0  0  0  0  0  0  0  0  0  0
    2.0144   -0.0109    1.1876 H   0  0  0  0  0  0  0  0  0  0  0  0
   -0.4665   -1.5661    2.0801 H   0  0  0  0  0  0  0  0  0  0  0  0
    2.4764   -2.3542    1.8201 H   0  0  0  0  0  0  0  0  0  0  0  0
    1.1639   -3.4172    2.3436 H   0  0  0  0  0  0  0  0  0  0  0  0
    1.6242   -2.0242    3.3389 H   0  0  0  0  0  0  0  0  0  0  0  0
    1.2193   -2.0328   -0.4392 H   0  0  0  0  0  0  0  0  0  0  0  0
   -0.0422   -3.1116    0.1802 H   0  0  0  0  0  0  0  0  0  0  0  0
   -0.4749   -1.5089   -0.4085 H   0  0  0  0  0  0  0  0  0  0  0  0
   -0.2147    3.0793    1.6771 N   0  0  0  0  0  0  0  0  0  0  0  0
    0.0061    4.4751    1.9800 C   0  0  2  0  0  0  0  0  0  0  0  0
    0.4685    5.1658    0.7039 C   0  0  0  0  0  0  0  0  0  0  0  0
    0.9872    4.5643   -0.2343 O   0  0  0  0  0  0  0  0  0  0  0  0
    1.0299    4.6449    3.0916 C   0  0  0  0  0  0  0  0  0  0  0  0
   -1.0235    2.6313    2.0976 H   0  0  0  0  0  0  0  0  0  0  0  0
   -0.9600    4.8882    2.2900 H   0  0  0  0  0  0  0  0  0  0  0  0
    2.0044    4.2368    2.7993 H   0  0  0  0  0  0  0  0  0  0  0  0
    1.1749    5.7015    3.3395 H   0  0  0  0  0  0  0  0  0  0  0  0
    0.7097    4.1224    3.9996 H   0  0  0  0  0  0  0  0  0  0  0  0
    0.2734    6.5390    0.7536 N   0  0  0  0  0  0  0  0  0  0  0  0
    0.6426    7.4187   -0.3308 C   0  0  0  0  0  0  0  0  0  0  0  0
   -0.1811    6.9501    1.5636 H   0  0  0  0  0  0  0  0  0  0  0  0
    1.6622    7.7971   -0.1657 H   0  0  0  0  0  0  0  0  0  0  0  0
    0.6066    6.8649   -1.2805 H   0  0  0  0  0  0  0  0  0  0  0  0
   -0.0599    8.2641   -0.3724 H   0  0  0  0  0  0  0  0  0  0  0  0
  1  3  1  0  0  0  0
  1  7  1  0  0  0  0
  1  2  2  0  0  0  0
 37 38  1  0  0  0  0
 38 46  1  0  0  0  0
 38 39  2  0  0  0  0
  8  9  1  0  0  0  0
  9 17  1  0  0  0  0
  9 10  2  0  0  0  0
 18 19  1  0  0  0  0
 19 36  1  0  0  0  0
 19 20  2  0  0  0  0
 37 40  1  0  0  0  0
  8 11  1  0  0  0  0
 22 23  1  0  0  0  0
 22 24  1  0  0  0  0
 46 47  1  0  0  0  0
 18 21  1  0  0  0  0
 21 22  1  0  0  0  0
 36 37  1  0  0  0  0
  7  8  1  0  0  0  0
 17 18  1  0  0  0  0
  3  4  1  0  0  0  0
  3  5  1  0  0  0  0
  3  6  1  0  0  0  0
 40 43  1  0  0  0  0
 40 44  1  0  0  0  0
 40 45  1  0  0  0  0
 11 14  1  0  0  0  0
 11 15  1  0  0  0  0
 11 16  1  0  0  0  0
 23 30  1  0  0  0  0
 23 31  1  0  0  0  0
 23 32  1  0  0  0  0
 24 33  1  0  0  0  0
 24 34  1  0  0  0  0
 24 35  1  0  0  0  0
 47 49  1  0  0  0  0
 47 50  1  0  0  0  0
 47 51  1  0  0  0  0
 21 27  1  0  0  0  0
 21 28  1  0  0  0  0
 37 42  1  0  0  0  0
  8 13  1  0  0  0  0
 18 26  1  0  0  0  0
 22 29  1  0  0  0  0
 46 48  1  0  0  0  0
  7 12  1  0  0  0  0
 36 41  1  0  0  0  0
 17 25  1  0  0  0  0
M  END
$$$$

  -OEChem-05262214473D

 51 50  0     1  0  0  0  0  0999 V2000
    3.4018   -1.2440   -3.0186 C   0  0  0  0  0  0  0  0  0  0  0  0
    3.2697   -2.0909   -2.1427 O   0  0  0  0  0  0  0  0  0  0  0  0
    4.6845   -1.1645   -3.7779 C   0  0  0  0  0  0  0  0  0  0  0  0
    5.4123   -0.4862   -3.3041 H   0  0  0  0  0  0  0  0  0  0  0  0
    5.1949   -2.1387   -3.8443 H   0  0  0  0  0  0  0  0  0  0  0  0
    4.5953   -0.8128   -4.8182 H   0  0  0  0  0  0  0  0  0  0  0  0
    2.4540   -0.3103   -3.4040 N   0  0  0  0  0  0  0  0  0  0  0  0
    1.1494   -0.2128   -2.8039 C   0  0  2  0  0  0  0  0  0  0  0  0
    1.3350    0.0367   -1.3130 C   0  0  0  0  0  0  0  0  0  0  0  0
    2.3625   -0.2586   -0.7063 O   0  0  0  0  0  0  0  0  0  0  0  0
    0.3331   -1.4728   -3.0467 C   0  0  0  0  0  0  0  0  0  0  0  0
    2.6924    0.3404   -4.1502 H   0  0  0  0  0  0  0  0  0  0  0  0
    0.6550    0.6514   -3.2607 H   0  0  0  0  0  0  0  0  0  0  0  0
    0.8129   -2.3494   -2.5963 H   0  0  0  0  0  0  0  0  0  0  0  0
   -0.6690   -1.3857   -2.6142 H   0  0  0  0  0  0  0  0  0  0  0  0
    0.2259   -1.6670   -4.1194 H   0  0  0  0  0  0  0  0  0  0  0  0
    0.2019    0.5893   -0.7269 N   0  0  0  0  0  0  0  0  0  0  0  0
    0.1242    0.9059    0.6756 C   0  0  2  0  0  0  0  0  0  0  0  0
    0.6107    2.3424    0.8393 C   0  0  0  0  0  0  0  0  0  0  0  0
    1.4138    2.8686    0.0715 O   0  0  0  0  0  0  0  0  0  0  0  0
    0.9724   -0.0423    1.5327 C   0  0  0  0  0  0  0  0  0  0  0  0
    0.4903   -1.5073    1.5470 C   0  0  0  0  0  0  0  0  0  0  0  0
    1.4965   -2.3743    2.3089 C   0  0  0  0  0  0  0  0  0  0  0  0
    0.2895   -2.0684    0.1386 C   0  0  0  0  0  0  0  0  0  0  0  0
   -0.5975    0.8179   -1.3140 H   0  0  0  0  0  0  0  0  0  0  0  0
   -0.9330    0.8584    0.9557 H   0  0  0  0  0  0  0  0  0  0  0  0
    0.9884    0.3325    2.5658 H   0  0  0  0  0  0  0  0  0  0  0  0
    2.0144   -0.0109    1.1876 H   0  0  0  0  0  0  0  0  0  0  0  0
   -0.4665   -1.5661    2.0801 H   0  0  0  0  0  0  0  0  0  0  0  0
    2.4764   -2.3542    1.8201 H   0  0  0  0  0  0  0  0  0  0  0  0
    1.1639   -3.4172    2.3436 H   0  0  0  0  0  0  0  0  0  0  0  0
    1.6242   -2.0242    3.3389 H   0  0  0  0  0  0  0  0  0  0  0  0
    1.2193   -2.0328   -0.4392 H   0  0  0  0  0  0  0  0  0  0  0  0
   -0.0422   -3.1116    0.1802 H   0  0  0  0  0  0  0  0  0  0  0  0
   -0.4749   -1.5089   -0.4085 H   0  0  0  0  0  0  0  0  0  0  0  0
    0.0028    2.9788    1.9125 N   0  0  0  0  0  0  0  0  0  0  0  0
    0.2665    4.3537    2.2717 C   0  0  2  0  0  0  0  0  0  0  0  0
    0.3902    5.1602    0.9857 C   0  0  0  0  0  0  0  0  0  0  0  0
    0.6738    4.6549   -0.0984 O   0  0  0  0  0  0  0  0  0  0  0  0
    1.5283    4.4737    3.1121 C   0  0  0  0  0  0  0  0  0  0  0  0
   -0.6704    2.4685    2.4765 H   0  0  0  0  0  0  0  0  0  0  0  0
   -0.6013    4.7039    2.8411 H   0  0  0  0  0  0  0  0  0  0  0  0
    2.4085    4.1274    2.5582 H   0  0  0  0  0  0  0  0  0  0  0  0
    1.7110    5.5122    3.4073 H   0  0  0  0  0  0  0  0  0  0  0  0
    1.4493    3.8693    4.0222 H   0  0  0  0  0  0  0  0  0  0  0  0
    0.1891    6.5168    1.1992 N   0  0  0  0  0  0  0  0  0  0  0  0
    0.2661    7.4929    0.1374 C   0  0  0  0  0  0  0  0  0  0  0  0
   -0.0603    6.8450    2.1275 H   0  0  0  0  0  0  0  0  0  0  0  0
    1.2883    7.8955    0.0822 H   0  0  0  0  0  0  0  0  0  0  0  0
    0.0082    7.0150   -0.8192 H   0  0  0  0  0  0  0  0  0  0  0  0
   -0.4399    8.3116    0.3403 H   0  0  0  0  0  0  0  0  0  0  0  0
  1  3  1  0  0  0  0
  1  7  1  0  0  0  0
  1  2  2  0  0  0  0
 37 38  1  0  0  0  0
 38 46  1  0  0  0  0
 38 39  2  0  0  0  0
  8  9  1  0  0  0  0
  9 17  1  0  0  0  0
  9 10  2  0  0  0  0
 18 19  1  0  0  0  0
 19 36  1  0  0  0  0
 19 20  2  0  0  0  0
 37 40  1  0  0  0  0
  8 11  1  0  0  0  0
 22 23  1  0  0  0  0
 22 24  1  0  0  0  0
 46 47  1  0  0  0  0
 18 21  1  0  0  0  0
 21 22  1  0  0  0  0
 36 37  1  0  0  0  0
  7  8  1  0  0  0  0
 17 18  1  0  0  0  0
  3  4  1  0  0  0  0
  3  5  1  0  0  0  0
  3  6  1  0  0  0  0
 40 43  1  0  0  0  0
 40 44  1  0  0  0  0
 40 45  1  0  0  0  0
 11 14  1  0  0  0  0
 11 15  1  0  0  0  0
 11 16  1  0  0  0  0
 23 30  1  0  0  0  0
 23 31  1  0  0  0  0
 23 32  1  0  0  0  0
 24 33  1  0  0  0  0
 24 34  1  0  0  0  0
 24 35  1  0  0  0  0
 47 49  1  0  0  0  0
 47 50  1  0  0  0  0
 47 51  1  0  0  0  0
 21 27  1  0  0  0  0
 21 28  1  0  0  0  0
 37 42  1  0  0  0  0
  8 13  1  0  0  0  0
 18 26  1  0  0  0  0
 22 29  1  0  0  0  0
 46 48  1  0  0  0  0
  7 12  1  0  0  0  0
 36 41  1  0  0  0  0
 17 25  1  0  0  0  0
M  END
$$$$

  -OEChem-05262214473D

 51 50  0     1  0  0  0  0  0999 V2000
    3.4018   -1.2440   -3.0186 C   0  0  0  0  0  0  0  0  0  0  0  0
    3.2697   -2.0909   -2.1427 O   0  0  0  0  0  0  0  0  0  0  0  0
    4.6845   -1.1645   -3.7779 C   0  0  0  0  0  0  0  0  0  0  0  0
    5.4123   -0.4862   -3.3041 H   0  0  0  0  0  0  0  0  0  0  0  0
    5.1949   -2.1387   -3.8443 H   0  0  0  0  0  0  0  0  0  0  0  0
    4.5953   -0.8128   -4.8182 H   0  0  0  0  0  0  0  0  0  0  0  0
    2.4540   -0.3103   -3.4040 N   0  0  0  0  0  0  0  0  0  0  0  0
    1.1494   -0.2128   -2.8039 C   0  0  2  0  0  0  0  0  0  0  0  0
    1.3350    0.0367   -1.3130 C   0  0  0  0  0  0  0  0  0  0  0  0
    2.3625   -0.2586   -0.7063 O   0  0  0  0  0  0  0  0  0  0  0  0
    0.3331   -1.4728   -3.0467 C   0  0  0  0  0  0  0  0  0  0  0  0
    2.6924    0.3404   -4.1502 H   0  0  0  0  0  0  0  0  0  0  0  0
    0.6550    0.6514   -3.2607 H   0  0  0  0  0  0  0  0  0  0  0  0
    0.8129   -2.3494   -2.5963 H   0  0  0  0  0  0  0  0  0  0  0  0
   -0.6690   -1.3857   -2.6142 H   0  0  0  0  0  0  0  0  0  0  0  0
    0.2259   -1.6670   -4.1194 H   0  0  0  0  0  0  0  0  0  0  0  0
    0.2019    0.5893   -0.7269 N   0  0  0  0  0  0  0  0  0  0  0  0
    0.1242    0.9059    0.6756 C   0  0  2  0  0  0  0  0  0  0  0  0
    0.6107    2.3424    0.8393 C   0  0  0  0  0  0  0  0  0  0  0  0
    1.1919    2.9578   -0.0522 O   0  0  0  0  0  0  0  0  0  0  0  0
    0.9724   -0.0423    1.5327 C   0  0  0  0  0  0  0  0  0  0  0  0
    0.4903   -1.5073    1.5470 C   0  0  0  0  0  0  0  0  0  0  0  0
    1.4965   -2.3743    2.3089 C   0  0  0  0  0  0  0  0  0  0  0  0
    0.2895   -2.0684    0.1386 C   0  0  0  0  0  0  0  0  0  0  0  0
   -0.5975    0.8179   -1.3140 H   0  0  0  0  0  0  0  0  0  0  0  0
   -0.9330    0.8584    0.9557 H   0  0  0  0  0  0  0  0  0  0  0  0
    0.9884    0.3325    2.5658 H   0  0  0  0  0  0  0  0  0  0  0  0
    2.0144   -0.0109    1.1876 H   0  0  0  0  0  0  0  0  0  0  0  0
   -0.4665   -1.5661    2.0801 H   0  0  0  0  0  0  0  0  0  0  0  0
    2.4764   -2.3542    1.8201 H   0  0  0  0  0  0  0  0  0  0  0  0
    1.1639   -3.4172    2.3436 H   0  0  0  0  0  0  0  0  0  0  0  0
    1.6242   -2.0242    3.3389 H   0  0  0  0  0  0  0  0  0  0  0  0
    1.2193   -2.0328   -0.4392 H   0  0  0  0  0  0  0  0  0  0  0  0
   -0.0422   -3.1116    0.1802 H   0  0  0  0  0  0  0  0  0  0  0  0
   -0.4749   -1.5089   -0.4085 H   0  0  0  0  0  0  0  0  0  0  0  0
    0.2731    2.8684    2.0786 N   0  0  0  0  0  0  0  0  0  0  0  0
    0.5926    4.2195    2.4799 C   0  0  2  0  0  0  0  0  0  0  0  0
    0.3834    5.1294    1.2766 C   0  0  0  0  0  0  0  0  0  0  0  0
    0.4017    4.7226    0.1168 O   0  0  0  0  0  0  0  0  0  0  0  0
    2.0194    4.3206    2.9963 C   0  0  0  0  0  0  0  0  0  0  0  0
   -0.2324    2.2898    2.7429 H   0  0  0  0  0  0  0  0  0  0  0  0
   -0.1154    4.4903    3.2707 H   0  0  0  0  0  0  0  0  0  0  0  0
    2.7431    4.0529    2.2178 H   0  0  0  0  0  0  0  0  0  0  0  0
    2.2507    5.3387    3.3265 H   0  0  0  0  0  0  0  0  0  0  0  0
    2.1763    3.6435    3.8429 H   0  0  0  0  0  0  0  0  0  0  0  0
    0.2170    6.4562    1.6483 N   0  0  0  0  0  0  0  0  0  0  0  0
    0.0144    7.5154    0.6876 C   0  0  0  0  0  0  0  0  0  0  0  0
    0.1968    6.7002    2.6341 H   0  0  0  0  0  0  0  0  0  0  0  0
    0.9847    7.9598    0.4209 H   0  0  0  0  0  0  0  0  0  0  0  0
   -0.4614    7.1053   -0.2154 H   0  0  0  0  0  0  0  0  0  0  0  0
   -0.6346    8.2881    1.1253 H   0  0  0  0  0  0  0  0  0  0  0  0
  1  3  1  0  0  0  0
  1  7  1  0  0  0  0
  1  2  2  0  0  0  0
 37 38  1  0  0  0  0
 38 46  1  0  0  0  0
 38 39  2  0  0  0  0
  8  9  1  0  0  0  0
  9 17  1  0  0  0  0
  9 10  2  0  0  0  0
 18 19  1  0  0  0  0
 19 36  1  0  0  0  0
 19 20  2  0  0  0  0
 37 40  1  0  0  0  0
  8 11  1  0  0  0  0
 22 23  1  0  0  0  0
 22 24  1  0  0  0  0
 46 47  1  0  0  0  0
 18 21  1  0  0  0  0
 21 22  1  0  0  0  0
 36 37  1  0  0  0  0
  7  8  1  0  0  0  0
 17 18  1  0  0  0  0
  3  4  1  0  0  0  0
  3  5  1  0  0  0  0
  3  6  1  0  0  0  0
 40 43  1  0  0  0  0
 40 44  1  0  0  0  0
 40 45  1  0  0  0  0
 11 14  1  0  0  0  0
 11 15  1  0  0  0  0
 11 16  1  0  0  0  0
 23 30  1  0  0  0  0
 23 31  1  0  0  0  0
 23 32  1  0  0  0  0
 24 33  1  0  0  0  0
 24 34  1  0  0  0  0
 24 35  1  0  0  0  0
 47 49  1  0  0  0  0
 47 50  1  0  0  0  0
 47 51  1  0  0  0  0
 21 27  1  0  0  0  0
 21 28  1  0  0  0  0
 37 42  1  0  0  0  0
  8 13  1  0  0  0  0
 18 26  1  0  0  0  0
 22 29  1  0  0  0  0
 46 48  1  0  0  0  0
  7 12  1  0  0  0  0
 36 41  1  0  0  0  0
 17 25  1  0  0  0  0
M  END
$$$$

  -OEChem-05262214473D

 51 50  0     1  0  0  0  0  0999 V2000
    3.4018   -1.2440   -3.0186 C   0  0  0  0  0  0  0  0  0  0  0  0
    3.2697   -2.0909   -2.1427 O   0  0  0  0  0  0  0  0  0  0  0  0
    4.6845   -1.1645   -3.7779 C   0  0  0  0  0  0  0  0  0  0  0  0
    5.4123   -0.4862   -3.3041 H   0  0  0  0  0  0  0  0  0  0  0  0
    5.1949   -2.1387   -3.8443 H   0  0  0  0  0  0  0  0  0  0  0  0
    4.5953   -0.8128   -4.8182 H   0  0  0  0  0  0  0  0  0  0  0  0
    2.4540   -0.3103   -3.4040 N   0  0  0  0  0  0  0  0  0  0  0  0
    1.1494   -0.2128   -2.8039 C   0  0  2  0  0  0  0  0  0  0  0  0
    1.3350    0.0367   -1.3130 C   0  0  0  0  0  0  0  0  0  0  0  0
    2.3625   -0.2586   -0.7063 O   0  0  0  0  0  0  0  0  0  0  0  0
    0.3331   -1.4728   -3.0467 C   0  0  0  0  0  0  0  0  0  0  0  0
    2.6924    0.3404   -4.1502 H   0  0  0  0  0  0  0  0  0  0  0  0
    0.6550    0.6514   -3.2607 H   0  0  0  0  0  0  0  0  0  0  0  0
    0.8129   -2.3494   -2.5963 H   0  0  0  0  0  0  0  0  0  0  0  0
   -0.6690   -1.3857   -2.6142 H   0  0  0  0  0  0  0  0  0  0  0  0
    0.2259   -1.6670   -4.1194 H   0  0  0  0  0  0  0  0  0  0  0  0
    0.2019    0.5893   -0.7269 N   0  0  0  0  0  0  0  0  0  0  0  0
    0.1242    0.9059    0.6756 C   0  0  2  0  0  0  0  0  0  0  0  0
    0.2405    2.4218    0.8008 C   0  0  0  0  0  0  0  0  0  0  0  0
    0.3329    3.1685   -0.1713 O   0  0  0  0  0  0  0  0  0  0  0  0
    1.2302    0.2202    1.4878 C   0  0  0  0  0  0  0  0  0  0  0  0
    1.1352   -1.3183    1.5401 C   0  0  0  0  0  0  0  0  0  0  0  0
    2.3682   -1.8878    2.2474 C   0  0  0  0  0  0  0  0  0  0  0  0
    1.0053   -1.9418    0.1497 C   0  0  0  0  0  0  0  0  0  0  0  0
   -0.5975    0.8179   -1.3140 H   0  0  0  0  0  0  0  0  0  0  0  0
   -0.8696    0.5998    1.0176 H   0  0  0  0  0  0  0  0  0  0  0  0
    1.2080    0.6088    2.5156 H   0  0  0  0  0  0  0  0  0  0  0  0
    2.2099    0.5055    1.0819 H   0  0  0  0  0  0  0  0  0  0  0  0
    0.2552   -1.6047    2.1288 H   0  0  0  0  0  0  0  0  0  0  0  0
    3.2828   -1.6321    1.7018 H   0  0  0  0  0  0  0  0  0  0  0  0
    2.3121   -2.9798    2.3085 H   0  0  0  0  0  0  0  0  0  0  0  0
    2.4599   -1.4950    3.2658 H   0  0  0  0  0  0  0  0  0  0  0  0
    1.8627   -1.6856   -0.4819 H   0  0  0  0  0  0  0  0  0  0  0  0
    0.9506   -3.0337    0.2176 H   0  0  0  0  0  0  0  0  0  0  0  0
    0.0954   -1.6044   -0.3553 H   0  0  0  0  0  0  0  0  0  0  0  0
    0.1773    2.8413    2.1224 N   0  0  0  0  0  0  0  0  0  0  0  0
    0.2371    4.2304    2.5167 C   0  0  2  0  0  0  0  0  0  0  0  0
   -0.5667    5.0406    1.5083 C   0  0  0  0  0  0  0  0  0  0  0  0
   -0.8020    4.6480    0.3674 O   0  0  0  0  0  0  0  0  0  0  0  0
    1.6739    4.7237    2.5887 C   0  0  0  0  0  0  0  0  0  0  0  0
    0.0739    2.1496    2.8589 H   0  0  0  0  0  0  0  0  0  0  0  0
   -0.2360    4.3001    3.5022 H   0  0  0  0  0  0  0  0  0  0  0  0
    2.1644    4.6615    1.6105 H   0  0  0  0  0  0  0  0  0  0  0  0
    1.7189    5.7680    2.9152 H   0  0  0  0  0  0  0  0  0  0  0  0
    2.2581    4.1209    3.2924 H   0  0  0  0  0  0  0  0  0  0  0  0
   -0.9535    6.2722    2.0179 N   0  0  0  0  0  0  0  0  0  0  0  0
   -1.7155    7.2292    1.2501 C   0  0  0  0  0  0  0  0  0  0  0  0
   -0.7309    6.5068    2.9808 H   0  0  0  0  0  0  0  0  0  0  0  0
   -1.0289    7.9222    0.7418 H   0  0  0  0  0  0  0  0  0  0  0  0
   -2.3217    6.6986    0.5011 H   0  0  0  0  0  0  0  0  0  0  0  0
   -2.3766    7.7955    1.9225 H   0  0  0  0  0  0  0  0  0  0  0  0
  1  3  1  0  0  0  0
  1  7  1  0  0  0  0
  1  2  2  0  0  0  0
 37 38  1  0  0  0  0
 38 46  1  0  0  0  0
 38 39  2  0  0  0  0
  8  9  1  0  0  0  0
  9 17  1  0  0  0  0
  9 10  2  0  0  0  0
 18 19  1  0  0  0  0
 19 36  1  0  0  0  0
 19 20  2  0  0  0  0
 37 40  1  0  0  0  0
  8 11  1  0  0  0  0
 22 23  1  0  0  0  0
 22 24  1  0  0  0  0
 46 47  1  0  0  0  0
 18 21  1  0  0  0  0
 21 22  1  0  0  0  0
 36 37  1  0  0  0  0
  7  8  1  0  0  0  0
 17 18  1  0  0  0  0
  3  4  1  0  0  0  0
  3  5  1  0  0  0  0
  3  6  1  0  0  0  0
 40 43  1  0  0  0  0
 40 44  1  0  0  0  0
 40 45  1  0  0  0  0
 11 14  1  0  0  0  0
 11 15  1  0  0  0  0
 11 16  1  0  0  0  0
 23 30  1  0  0  0  0
 23 31  1  0  0  0  0
 23 32  1  0  0  0  0
 24 33  1  0  0  0  0
 24 34  1  0  0  0  0
 24 35  1  0  0  0  0
 47 49  1  0  0  0  0
 47 50  1  0  0  0  0
 47 51  1  0  0  0  0
 21 27  1  0  0  0  0
 21 28  1  0  0  0  0
 37 42  1  0  0  0  0
  8 13  1  0  0  0  0
 18 26  1  0  0  0  0
 22 29  1  0  0  0  0
 46 48  1  0  0  0  0
  7 12  1  0  0  0  0
 36 41  1  0  0  0  0
 17 25  1  0  0  0  0
M  END
$$$$

  -OEChem-05262214473D

 51 50  0     1  0  0  0  0  0999 V2000
    3.4018   -1.2440   -3.0186 C   0  0  0  0  0  0  0  0  0  0  0  0
    3.2697   -2.0909   -2.1427 O   0  0  0  0  0  0  0  0  0  0  0  0
    4.6845   -1.1645   -3.7779 C   0  0  0  0  0  0  0  0  0  0  0  0
    5.4123   -0.4862   -3.3041 H   0  0  0  0  0  0  0  0  0  0  0  0
    5.1949   -2.1387   -3.8443 H   0  0  0  0  0  0  0  0  0  0  0  0
    4.5953   -0.8128   -4.8182 H   0  0  0  0  0  0  0  0  0  0  0  0
    2.4540   -0.3103   -3.4040 N   0  0  0  0  0  0  0  0  0  0  0  0
    1.1494   -0.2128   -2.8039 C   0  0  2  0  0  0  0  0  0  0  0  0
    1.3350    0.0367   -1.3130 C   0  0  0  0  0  0  0  0  0  0  0  0
    2.3625   -0.2586   -0.7063 O   0  0  0  0  0  0  0  0  0  0  0  0
    0.3331   -1.4728   -3.0467 C   0  0  0  0  0  0  0  0  0  0  0  0
    2.6924    0.3404   -4.1502 H   0  0  0  0  0  0  0  0  0  0  0  0
    0.6550    0.6514   -3.2607 H   0  0  0  0  0  0  0  0  0  0  0  0
    0.8129   -2.3494   -2.5963 H   0  0  0  0  0  0  0  0  0  0  0  0
   -0.6690   -1.3857   -2.6142 H   0  0  0  0  0  0  0  0  0  0  0  0
    0.2259   -1.6670   -4.1194 H   0  0  0  0  0  0  0  0  0  0  0  0
    0.2019    0.5893   -0.7269 N   0  0  0  0  0  0  0  0  0  0  0  0
    0.1242    0.9059    0.6756 C   0  0  2  0  0  0  0  0  0  0  0  0
    0.2405    2.4218    0.8008 C   0  0  0  0  0  0  0  0  0  0  0  0
    0.0656    3.1869   -0.1454 O   0  0  0  0  0  0  0  0  0  0  0  0
    1.2302    0.2202    1.4878 C   0  0  0  0  0  0  0  0  0  0  0  0
    1.1352   -1.3183    1.5401 C   0  0  0  0  0  0  0  0  0  0  0  0
    2.3682   -1.8878    2.2474 C   0  0  0  0  0  0  0  0  0  0  0  0
    1.0053   -1.9418    0.1497 C   0  0  0  0  0  0  0  0  0  0  0  0
   -0.5975    0.8179   -1.3140 H   0  0  0  0  0  0  0  0  0  0  0  0
   -0.8696    0.5998    1.0176 H   0  0  0  0  0  0  0  0  0  0  0  0
    1.2080    0.6088    2.5156 H   0  0  0  0  0  0  0  0  0  0  0  0
    2.2099    0.5055    1.0819 H   0  0  0  0  0  0  0  0  0  0  0  0
    0.2552   -1.6047    2.1288 H   0  0  0  0  0  0  0  0  0  0  0  0
    3.2828   -1.6321    1.7018 H   0  0  0  0  0  0  0  0  0  0  0  0
    2.3121   -2.9798    2.3085 H   0  0  0  0  0  0  0  0  0  0  0  0
    2.4599   -1.4950    3.2658 H   0  0  0  0  0  0  0  0  0  0  0  0
    1.8627   -1.6856   -0.4819 H   0  0  0  0  0  0  0  0  0  0  0  0
    0.9506   -3.0337    0.2176 H   0  0  0  0  0  0  0  0  0  0  0  0
    0.0954   -1.6044   -0.3553 H   0  0  0  0  0  0  0  0  0  0  0  0
    0.5118    2.8172    2.1033 N   0  0  0  0  0  0  0  0  0  0  0  0
    0.6452    4.2005    2.5002 C   0  0  2  0  0  0  0  0  0  0  0  0
   -0.4061    5.0083    1.7507 C   0  0  0  0  0  0  0  0  0  0  0  0
   -0.9198    4.6296    0.7001 O   0  0  0  0  0  0  0  0  0  0  0  0
    2.0425    4.7266    2.2117 C   0  0  0  0  0  0  0  0  0  0  0  0
    0.6144    2.1109    2.8259 H   0  0  0  0  0  0  0  0  0  0  0  0
    0.4404    4.2421    3.5756 H   0  0  0  0  0  0  0  0  0  0  0  0
    2.2658    4.6926    1.1391 H   0  0  0  0  0  0  0  0  0  0  0  0
    2.1506    5.7659    2.5391 H   0  0  0  0  0  0  0  0  0  0  0  0
    2.7994    4.1260    2.7279 H   0  0  0  0  0  0  0  0  0  0  0  0
   -0.6716    6.2215    2.3702 N   0  0  0  0  0  0  0  0  0  0  0  0
   -1.6233    7.1729    1.8457 C   0  0  0  0  0  0  0  0  0  0  0  0
   -0.2131    6.4449    3.2486 H   0  0  0  0  0  0  0  0  0  0  0  0
   -1.1038    7.8906    1.1938 H   0  0  0  0  0  0  0  0  0  0  0  0
   -2.3919    6.6408    1.2659 H   0  0  0  0  0  0  0  0  0  0  0  0
   -2.0995    7.7118    2.6781 H   0  0  0  0  0  0  0  0  0  0  0  0
  1  3  1  0  0  0  0
  1  7  1  0  0  0  0
  1  2  2  0  0  0  0
 37 38  1  0  0  0  0
 38 46  1  0  0  0  0
 38 39  2  0  0  0  0
  8  9  1  0  0  0  0
  9 17  1  0  0  0  0
  9 10  2  0  0  0  0
 18 19  1  0  0  0  0
 19 36  1  0  0  0  0
 19 20  2  0  0  0  0
 37 40  1  0  0  0  0
  8 11  1  0  0  0  0
 22 23  1  0  0  0  0
 22 24  1  0  0  0  0
 46 47  1  0  0  0  0
 18 21  1  0  0  0  0
 21 22  1  0  0  0  0
 36 37  1  0  0  0  0
  7  8  1  0  0  0  0
 17 18  1  0  0  0  0
  3  4  1  0  0  0  0
  3  5  1  0  0  0  0
  3  6  1  0  0  0  0
 40 43  1  0  0  0  0
 40 44  1  0  0  0  0
 40 45  1  0  0  0  0
 11 14  1  0  0  0  0
 11 15  1  0  0  0  0
 11 16  1  0  0  0  0
 23 30  1  0  0  0  0
 23 31  1  0  0  0  0
 23 32  1  0  0  0  0
 24 33  1  0  0  0  0
 24 34  1  0  0  0  0
 24 35  1  0  0  0  0
 47 49  1  0  0  0  0
 47 50  1  0  0  0  0
 47 51  1  0  0  0  0
 21 27  1  0  0  0  0
 21 28  1  0  0  0  0
 37 42  1  0  0  0  0
  8 13  1  0  0  0  0
 18 26  1  0  0  0  0
 22 29  1  0  0  0  0
 46 48  1  0  0  0  0
  7 12  1  0  0  0  0
 36 41  1  0  0  0  0
 17 25  1  0  0  0  0
M  END
$$$$

  -OEChem-05262214473D

 51 50  0     1  0  0  0  0  0999 V2000
    3.4018   -1.2440   -3.0186 C   0  0  0  0  0  0  0  0  0  0  0  0
    3.2697   -2.0909   -2.1427 O   0  0  0  0  0  0  0  0  0  0  0  0
    4.6845   -1.1645   -3.7779 C   0  0  0  0  0  0  0  0  0  0  0  0
    5.4123   -0.4862   -3.3041 H   0  0  0  0  0  0  0  0  0  0  0  0
    5.1949   -2.1387   -3.8443 H   0  0  0  0  0  0  0  0  0  0  0  0
    4.5953   -0.8128   -4.8182 H   0  0  0  0  0  0  0  0  0  0  0  0
    2.4540   -0.3103   -3.4040 N   0  0  0  0  0  0  0  0  0  0  0  0
    1.1494   -0.2128   -2.8039 C   0  0  2  0  0  0  0  0  0  0  0  0
    1.3350    0.0367   -1.3130 C   0  0  0  0  0  0  0  0  0  0  0  0
    2.3625   -0.2586   -0.7063 O   0  0  0  0  0  0  0  0  0  0  0  0
    0.3331   -1.4728   -3.0467 C   0  0  0  0  0  0  0  0  0  0  0  0
    2.6924    0.3404   -4.1502 H   0  0  0  0  0  0  0  0  0  0  0  0
    0.6550    0.6514   -3.2607 H   0  0  0  0  0  0  0  0  0  0  0  0
    0.8129   -2.3494   -2.5963 H   0  0  0  0  0  0  0  0  0  0  0  0
   -0.6690   -1.3857   -2.6142 H   0  0  0  0  0  0  0  0  0  0  0  0
    0.2259   -1.6670   -4.1194 H   0  0  0  0  0  0  0  0  0  0  0  0
    0.2019    0.5893   -0.7269 N   0  0  0  0  0  0  0  0  0  0  0  0
    0.1242    0.9059    0.6756 C   0  0  2  0  0  0  0  0  0  0  0  0
    0.2405    2.4218    0.8008 C   0  0  0  0  0  0  0  0  0  0  0  0
   -0.1863    3.1984   -0.0512 O   0  0  0  0  0  0  0  0  0  0  0  0
    1.2302    0.2202    1.4878 C   0  0  0  0  0  0  0  0  0  0  0  0
    1.1352   -1.3183    1.5401 C   0  0  0  0  0  0  0  0  0  0  0  0
    2.3682   -1.8878    2.2474 C   0  0  0  0  0  0  0  0  0  0  0  0
    1.0053   -1.9418    0.1497 C   0  0  0  0  0  0  0  0  0  0  0  0
   -0.5975    0.8179   -1.3140 H   0  0  0  0  0  0  0  0  0  0  0  0
   -0.8696    0.5998    1.0176 H   0  0  0  0  0  0  0  0  0  0  0  0
    1.2080    0.6088    2.5156 H   0  0  0  0  0  0  0  0  0  0  0  0
    2.2099    0.5055    1.0819 H   0  0  0  0  0  0  0  0  0  0  0  0
    0.2552   -1.6047    2.1288 H   0  0  0  0  0  0  0  0  0  0  0  0
    3.2828   -1.6321    1.7018 H   0  0  0  0  0  0  0  0  0  0  0  0
    2.3121   -2.9798    2.3085 H   0  0  0  0  0  0  0  0  0  0  0  0
    2.4599   -1.4950    3.2658 H   0  0  0  0  0  0  0  0  0  0  0  0
    1.8627   -1.6856   -0.4819 H   0  0  0  0  0  0  0  0  0  0  0  0
    0.9506   -3.0337    0.2176 H   0  0  0  0  0  0  0  0  0  0  0  0
    0.0954   -1.6044   -0.3553 H   0  0  0  0  0  0  0  0  0  0  0  0
    0.8305    2.8014    1.9985 N   0  0  0  0  0  0  0  0  0  0  0  0
    1.0357    4.1805    2.3788 C   0  0  2  0  0  0  0  0  0  0  0  0
   -0.1880    4.9756    1.9430 C   0  0  0  0  0  0  0  0  0  0  0  0
   -0.9477    4.6027    1.0514 O   0  0  0  0  0  0  0  0  0  0  0  0
    2.3016    4.7446    1.7528 C   0  0  0  0  0  0  0  0  0  0  0  0
    1.1288    2.0856    2.6543 H   0  0  0  0  0  0  0  0  0  0  0  0
    1.1139    4.1990    3.4713 H   0  0  0  0  0  0  0  0  0  0  0  0
    2.2419    4.7342    0.6584 H   0  0  0  0  0  0  0  0  0  0  0  0
    2.4709    5.7805    2.0647 H   0  0  0  0  0  0  0  0  0  0  0  0
    3.1769    4.1536    2.0435 H   0  0  0  0  0  0  0  0  0  0  0  0
   -0.3077    6.1715    2.6371 N   0  0  0  0  0  0  0  0  0  0  0  0
   -1.3799    7.1087    2.3963 C   0  0  0  0  0  0  0  0  0  0  0  0
    0.3572    6.3908    3.3729 H   0  0  0  0  0  0  0  0  0  0  0  0
   -1.0592    7.8495    1.6491 H   0  0  0  0  0  0  0  0  0  0  0  0
   -2.2618    6.5684    2.0217 H   0  0  0  0  0  0  0  0  0  0  0  0
   -1.6358    7.6219    3.3350 H   0  0  0  0  0  0  0  0  0  0  0  0
  1  3  1  0  0  0  0
  1  7  1  0  0  0  0
  1  2  2  0  0  0  0
 37 38  1  0  0  0  0
 38 46  1  0  0  0  0
 38 39  2  0  0  0  0
  8  9  1  0  0  0  0
  9 17  1  0  0  0  0
  9 10  2  0  0  0  0
 18 19  1  0  0  0  0
 19 36  1  0  0  0  0
 19 20  2  0  0  0  0
 37 40  1  0  0  0  0
  8 11  1  0  0  0  0
 22 23  1  0  0  0  0
 22 24  1  0  0  0  0
 46 47  1  0  0  0  0
 18 21  1  0  0  0  0
 21 22  1  0  0  0  0
 36 37  1  0  0  0  0
  7  8  1  0  0  0  0
 17 18  1  0  0  0  0
  3  4  1  0  0  0  0
  3  5  1  0  0  0  0
  3  6  1  0  0  0  0
 40 43  1  0  0  0  0
 40 44  1  0  0  0  0
 40 45  1  0  0  0  0
 11 14  1  0  0  0  0
 11 15  1  0  0  0  0
 11 16  1  0  0  0  0
 23 30  1  0  0  0  0
 23 31  1  0  0  0  0
 23 32  1  0  0  0  0
 24 33  1  0  0  0  0
 24 34  1  0  0  0  0
 24 35  1  0  0  0  0
 47 49  1  0  0  0  0
 47 50  1  0  0  0  0
 47 51  1  0  0  0  0
 21 27  1  0  0  0  0
 21 28  1  0  0  0  0
 37 42  1  0  0  0  0
  8 13  1  0  0  0  0
 18 26  1  0  0  0  0
 22 29  1  0  0  0  0
 46 48  1  0  0  0  0
  7 12  1  0  0  0  0
 36 41  1  0  0  0  0
 17 25  1  0  0  0  0
M  END
$$$$

  -OEChem-05262214473D

 51 50  0     1  0  0  0  0  0999 V2000
    3.4018   -1.2440   -3.0186 C   0  0  0  0  0  0  0  0  0  0  0  0
    3.2697   -2.0909   -2.1427 O   0  0  0  0  0  0  0  0  0  0  0  0
    4.6845   -1.1645   -3.7779 C   0  0  0  0  0  0  0  0  0  0  0  0
    5.4123   -0.4862   -3.3041 H   0  0  0  0  0  0  0  0  0  0  0  0
    5.1949   -2.1387   -3.8443 H   0  0  0  0  0  0  0  0  0  0  0  0
    4.5953   -0.8128   -4.8182 H   0  0  0  0  0  0  0  0  0  0  0  0
    2.4540   -0.3103   -3.4040 N   0  0  0  0  0  0  0  0  0  0  0  0
    1.1494   -0.2128   -2.8039 C   0  0  2  0  0  0  0  0  0  0  0  0
    1.3350    0.0367   -1.3130 C   0  0  0  0  0  0  0  0  0  0  0  0
    2.3625   -0.2586   -0.7063 O   0  0  0  0  0  0  0  0  0  0  0  0
    0.3331   -1.4728   -3.0467 C   0  0  0  0  0  0  0  0  0  0  0  0
    2.6924    0.3404   -4.1502 H   0  0  0  0  0  0  0  0  0  0  0  0
    0.6550    0.6514   -3.2607 H   0  0  0  0  0  0  0  0  0  0  0  0
    0.8129   -2.3494   -2.5963 H   0  0  0  0  0  0  0  0  0  0  0  0
   -0.6690   -1.3857   -2.6142 H   0  0  0  0  0  0  0  0  0  0  0  0
    0.2259   -1.6670   -4.1194 H   0  0  0  0  0  0  0  0  0  0  0  0
    0.2019    0.5893   -0.7269 N   0  0  0  0  0  0  0  0  0  0  0  0
    0.1242    0.9059    0.6756 C   0  0  2  0  0  0  0  0  0  0  0  0
    0.2405    2.4218    0.8008 C   0  0  0  0  0  0  0  0  0  0  0  0
   -0.4056    3.2023    0.1048 O   0  0  0  0  0  0  0  0  0  0  0  0
    1.2302    0.2202    1.4878 C   0  0  0  0  0  0  0  0  0  0  0  0
    1.1352   -1.3183    1.5401 C   0  0  0  0  0  0  0  0  0  0  0  0
    2.3682   -1.8878    2.2474 C   0  0  0  0  0  0  0  0  0  0  0  0
    1.0053   -1.9418    0.1497 C   0  0  0  0  0  0  0  0  0  0  0  0
   -0.5975    0.8179   -1.3140 H   0  0  0  0  0  0  0  0  0  0  0  0
   -0.8696    0.5998    1.0176 H   0  0  0  0  0  0  0  0  0  0  0  0
    1.2080    0.6088    2.5156 H   0  0  0  0  0  0  0  0  0  0  0  0
    2.2099    0.5055    1.0819 H   0  0  0  0  0  0  0  0  0  0  0  0
    0.2552   -1.6047    2.1288 H   0  0  0  0  0  0  0  0  0  0  0  0
    3.2828   -1.6321    1.7018 H   0  0  0  0  0  0  0  0  0  0  0  0
    2.3121   -2.9798    2.3085 H   0  0  0  0  0  0  0  0  0  0  0  0
    2.4599   -1.4950    3.2658 H   0  0  0  0  0  0  0  0  0  0  0  0
    1.8627   -1.6856   -0.4819 H   0  0  0  0  0  0  0  0  0  0  0  0
    0.9506   -3.0337    0.2176 H   0  0  0  0  0  0  0  0  0  0  0  0
    0.0954   -1.6044   -0.3553 H   0  0  0  0  0  0  0  0  0  0  0  0
    1.1117    2.7950    1.8149 N   0  0  0  0  0  0  0  0  0  0  0  0
    1.3821    4.1720    2.1606 C   0  0  2  0  0  0  0  0  0  0  0  0
    0.0728    4.9450    2.0719 C   0  0  0  0  0  0  0  0  0  0  0  0
   -0.8836    4.5692    1.3974 O   0  0  0  0  0  0  0  0  0  0  0  0
    2.4335    4.7766    1.2432 C   0  0  0  0  0  0  0  0  0  0  0  0
    1.5821    2.0754    2.3557 H   0  0  0  0  0  0  0  0  0  0  0  0
    1.7385    4.1738    3.1965 H   0  0  0  0  0  0  0  0  0  0  0  0
    2.0942    4.7833    0.2009 H   0  0  0  0  0  0  0  0  0  0  0  0
    2.6580    5.8108    1.5244 H   0  0  0  0  0  0  0  0  0  0  0  0
    3.3649    4.2018    1.2858 H   0  0  0  0  0  0  0  0  0  0  0  0
    0.1135    6.1257    2.8002 N   0  0  0  0  0  0  0  0  0  0  0  0
   -1.0018    7.0410    2.8643 C   0  0  0  0  0  0  0  0  0  0  0  0
    0.9412    6.3483    3.3452 H   0  0  0  0  0  0  0  0  0  0  0  0
   -0.8981    7.8019    2.0766 H   0  0  0  0  0  0  0  0  0  0  0  0
   -1.9402    6.4863    2.7167 H   0  0  0  0  0  0  0  0  0  0  0  0
   -1.0170    7.5320    3.8485 H   0  0  0  0  0  0  0  0  0  0  0  0
  1  3  1  0  0  0  0
  1  7  1  0  0  0  0
  1  2  2  0  0  0  0
 37 38  1  0  0  0  0
 38 46  1  0  0  0  0
 38 39  2  0  0  0  0
  8  9  1  0  0  0  0
  9 17  1  0  0  0  0
  9 10  2  0  0  0  0
 18 19  1  0  0  0  0
 19 36  1  0  0  0  0
 19 20  2  0  0  0  0
 37 40  1  0  0  0  0
  8 11  1  0  0  0  0
 22 23  1  0  0  0  0
 22 24  1  0  0  0  0
 46 47  1  0  0  0  0
 18 21  1  0  0  0  0
 21 22  1  0  0  0  0
 36 37  1  0  0  0  0
  7  8  1  0  0  0  0
 17 18  1  0  0  0  0
  3  4  1  0  0  0  0
  3  5  1  0  0  0  0
  3  6  1  0  0  0  0
 40 43  1  0  0  0  0
 40 44  1  0  0  0  0
 40 45  1  0  0  0  0
 11 14  1  0  0  0  0
 11 15  1  0  0  0  0
 11 16  1  0  0  0  0
 23 30  1  0  0  0  0
 23 31  1  0  0  0  0
 23 32  1  0  0  0  0
 24 33  1  0  0  0  0
 24 34  1  0  0  0  0
 24 35  1  0  0  0  0
 47 49  1  0  0  0  0
 47 50  1  0  0  0  0
 47 51  1  0  0  0  0
 21 27  1  0  0  0  0
 21 28  1  0  0  0  0
 37 42  1  0  0  0  0
  8 13  1  0  0  0  0
 18 26  1  0  0  0  0
 22 29  1  0  0  0  0
 46 48  1  0  0  0  0
  7 12  1  0  0  0  0
 36 41  1  0  0  0  0
 17 25  1  0  0  0  0
M  END
$$$$

  -OEChem-05262214473D

 51 50  0     1  0  0  0  0  0999 V2000
    3.4018   -1.2440   -3.0186 C   0  0  0  0  0  0  0  0  0  0  0  0
    3.2697   -2.0909   -2.1427 O   0  0  0  0  0  0  0  0  0  0  0  0
    4.6845   -1.1645   -3.7779 C   0  0  0  0  0  0  0  0  0  0  0  0
    5.4123   -0.4862   -3.3041 H   0  0  0  0  0  0  0  0  0  0  0  0
    5.1949   -2.1387   -3.8443 H   0  0  0  0  0  0  0  0  0  0  0  0
    4.5953   -0.8128   -4.8182 H   0  0  0  0  0  0  0  0  0  0  0  0
    2.4540   -0.3103   -3.4040 N   0  0  0  0  0  0  0  0  0  0  0  0
    1.1494   -0.2128   -2.8039 C   0  0  2  0  0  0  0  0  0  0  0  0
    1.3350    0.0367   -1.3130 C   0  0  0  0  0  0  0  0  0  0  0  0
    2.3625   -0.2586   -0.7063 O   0  0  0  0  0  0  0  0  0  0  0  0
    0.3331   -1.4728   -3.0467 C   0  0  0  0  0  0  0  0  0  0  0  0
    2.6924    0.3404   -4.1502 H   0  0  0  0  0  0  0  0  0  0  0  0
    0.6550    0.6514   -3.2607 H   0  0  0  0  0  0  0  0  0  0  0  0
    0.8129   -2.3494   -2.5963 H   0  0  0  0  0  0  0  0  0  0  0  0
   -0.6690   -1.3857   -2.6142 H   0  0  0  0  0  0  0  0  0  0  0  0
    0.2259   -1.6670   -4.1194 H   0  0  0  0  0  0  0  0  0  0  0  0
    0.2019    0.5893   -0.7269 N   0  0  0  0  0  0  0  0  0  0  0  0
    0.1242    0.9059    0.6756 C   0  0  2  0  0  0  0  0  0  0  0  0
    0.2405    2.4218    0.8008 C   0  0  0  0  0  0  0  0  0  0  0  0
   -0.5775    3.1984    0.3120 O   0  0  0  0  0  0  0  0  0  0  0  0
    1.2302    0.2202    1.4878 C   0  0  0  0  0  0  0  0  0  0  0  0
    1.1352   -1.3183    1.5401 C   0  0  0  0  0  0  0  0  0  0  0  0
    2.3682   -1.8878    2.2474 C   0  0  0  0  0  0  0  0  0  0  0  0
    1.0053   -1.9418    0.1497 C   0  0  0  0  0  0  0  0  0  0  0  0
   -0.5975    0.8179   -1.3140 H   0  0  0  0  0  0  0  0  0  0  0  0
   -0.8696    0.5998    1.0176 H   0  0  0  0  0  0  0  0  0  0  0  0
    1.2080    0.6088    2.5156 H   0  0  0  0  0  0  0  0  0  0  0  0
    2.2099    0.5055    1.0819 H   0  0  0  0  0  0  0  0  0  0  0  0
    0.2552   -1.6047    2.1288 H   0  0  0  0  0  0  0  0  0  0  0  0
    3.2828   -1.6321    1.7018 H   0  0  0  0  0  0  0  0  0  0  0  0
    2.3121   -2.9798    2.3085 H   0  0  0  0  0  0  0  0  0  0  0  0
    2.4599   -1.4950    3.2658 H   0  0  0  0  0  0  0  0  0  0  0  0
    1.8627   -1.6856   -0.4819 H   0  0  0  0  0  0  0  0  0  0  0  0
    0.9506   -3.0337    0.2176 H   0  0  0  0  0  0  0  0  0  0  0  0
    0.0954   -1.6044   -0.3553 H   0  0  0  0  0  0  0  0  0  0  0  0
    1.3362    2.7984    1.5651 N   0  0  0  0  0  0  0  0  0  0  0  0
    1.6607    4.1754    1.8606 C   0  0  2  0  0  0  0  0  0  0  0  0
    0.3586    4.9183    2.1288 C   0  0  0  0  0  0  0  0  0  0  0  0
   -0.7321    4.5313    1.7144 O   0  0  0  0  0  0  0  0  0  0  0  0
    2.4291    4.8204    0.7177 C   0  0  0  0  0  0  0  0  0  0  0  0
    1.9433    2.0812    1.9506 H   0  0  0  0  0  0  0  0  0  0  0  0
    2.2717    4.1681    2.7699 H   0  0  0  0  0  0  0  0  0  0  0  0
    1.8329    4.8367   -0.2019 H   0  0  0  0  0  0  0  0  0  0  0  0
    2.6990    5.8547    0.9550 H   0  0  0  0  0  0  0  0  0  0  0  0
    3.3507    4.2673    0.5066 H   0  0  0  0  0  0  0  0  0  0  0  0
    0.5633    6.0872    2.8486 N   0  0  0  0  0  0  0  0  0  0  0  0
   -0.5149    6.9744    3.2177 C   0  0  0  0  0  0  0  0  0  0  0  0
    1.4991    6.3202    3.1675 H   0  0  0  0  0  0  0  0  0  0  0  0
   -0.6316    7.7508    2.4472 H   0  0  0  0  0  0  0  0  0  0  0  0
   -1.4491    6.4001    3.3038 H   0  0  0  0  0  0  0  0  0  0  0  0
   -0.2854    7.4482    4.1835 H   0  0  0  0  0  0  0  0  0  0  0  0
  1  3  1  0  0  0  0
  1  7  1  0  0  0  0
  1  2  2  0  0  0  0
 37 38  1  0  0  0  0
 38 46  1  0  0  0  0
 38 39  2  0  0  0  0
  8  9  1  0  0  0  0
  9 17  1  0  0  0  0
  9 10  2  0  0  0  0
 18 19  1  0  0  0  0
 19 36  1  0  0  0  0
 19 20  2  0  0  0  0
 37 40  1  0  0  0  0
  8 11  1  0  0  0  0
 22 23  1  0  0  0  0
 22 24  1  0  0  0  0
 46 47  1  0  0  0  0
 18 21  1  0  0  0  0
 21 22  1  0  0  0  0
 36 37  1  0  0  0  0
  7  8  1  0  0  0  0
 17 18  1  0  0  0  0
  3  4  1  0  0  0  0
  3  5  1  0  0  0  0
  3  6  1  0  0  0  0
 40 43  1  0  0  0  0
 40 44  1  0  0  0  0
 40 45  1  0  0  0  0
 11 14  1  0  0  0  0
 11 15  1  0  0  0  0
 11 16  1  0  0  0  0
 23 30  1  0  0  0  0
 23 31  1  0  0  0  0
 23 32  1  0  0  0  0
 24 33  1  0  0  0  0
 24 34  1  0  0  0  0
 24 35  1  0  0  0  0
 47 49  1  0  0  0  0
 47 50  1  0  0  0  0
 47 51  1  0  0  0  0
 21 27  1  0  0  0  0
 21 28  1  0  0  0  0
 37 42  1  0  0  0  0
  8 13  1  0  0  0  0
 18 26  1  0  0  0  0
 22 29  1  0  0  0  0
 46 48  1  0  0  0  0
  7 12  1  0  0  0  0
 36 41  1  0  0  0  0
 17 25  1  0  0  0  0
M  END
$$$$

  -OEChem-05262214473D

 51 50  0     1  0  0  0  0  0999 V2000
    3.4018   -1.2440   -3.0186 C   0  0  0  0  0  0  0  0  0  0  0  0
    3.2697   -2.0909   -2.1427 O   0  0  0  0  0  0  0  0  0  0  0  0
    4.6845   -1.1645   -3.7779 C   0  0  0  0  0  0  0  0  0  0  0  0
    5.4123   -0.4862   -3.3041 H   0  0  0  0  0  0  0  0  0  0  0  0
    5.1949   -2.1387   -3.8443 H   0  0  0  0  0  0  0  0  0  0  0  0
    4.5953   -0.8128   -4.8182 H   0  0  0  0  0  0  0  0  0  0  0  0
    2.4540   -0.3103   -3.4040 N   0  0  0  0  0  0  0  0  0  0  0  0
    1.1494   -0.2128   -2.8039 C   0  0  2  0  0  0  0  0  0  0  0  0
    1.3350    0.0367   -1.3130 C   0  0  0  0  0  0  0  0  0  0  0  0
    2.3625   -0.2586   -0.7063 O   0  0  0  0  0  0  0  0  0  0  0  0
    0.3331   -1.4728   -3.0467 C   0  0  0  0  0  0  0  0  0  0  0  0
    2.6924    0.3404   -4.1502 H   0  0  0  0  0  0  0  0  0  0  0  0
    0.6550    0.6514   -3.2607 H   0  0  0  0  0  0  0  0  0  0  0  0
    0.8129   -2.3494   -2.5963 H   0  0  0  0  0  0  0  0  0  0  0  0
   -0.6690   -1.3857   -2.6142 H   0  0  0  0  0  0  0  0  0  0  0  0
    0.2259   -1.6670   -4.1194 H   0  0  0  0  0  0  0  0  0  0  0  0
    0.2019    0.5893   -0.7269 N   0  0  0  0  0  0  0  0  0  0  0  0
    0.1242    0.9059    0.6756 C   0  0  2  0  0  0  0  0  0  0  0  0
    0.2405    2.4218    0.8008 C   0  0  0  0  0  0  0  0  0  0  0  0
   -0.6901    3.1869    0.5562 O   0  0  0  0  0  0  0  0  0  0  0  0
    1.2302    0.2202    1.4878 C   0  0  0  0  0  0  0  0  0  0  0  0
    1.1352   -1.3183    1.5401 C   0  0  0  0  0  0  0  0  0  0  0  0
    2.3682   -1.8878    2.2474 C   0  0  0  0  0  0  0  0  0  0  0  0
    1.0053   -1.9418    0.1497 C   0  0  0  0  0  0  0  0  0  0  0  0
   -0.5975    0.8179   -1.3140 H   0  0  0  0  0  0  0  0  0  0  0  0
   -0.8696    0.5998    1.0176 H   0  0  0  0  0  0  0  0  0  0  0  0
    1.2080    0.6088    2.5156 H   0  0  0  0  0  0  0  0  0  0  0  0
    2.2099    0.5055    1.0819 H   0  0  0  0  0  0  0  0  0  0  0  0
    0.2552   -1.6047    2.1288 H   0  0  0  0  0  0  0  0  0  0  0  0
    3.2828   -1.6321    1.7018 H   0  0  0  0  0  0  0  0  0  0  0  0
    2.3121   -2.9798    2.3085 H   0  0  0  0  0  0  0  0  0  0  0  0
    2.4599   -1.4950    3.2658 H   0  0  0  0  0  0  0  0  0  0  0  0
    1.8627   -1.6856   -0.4819 H   0  0  0  0  0  0  0  0  0  0  0  0
    0.9506   -3.0337    0.2176 H   0  0  0  0  0  0  0  0  0  0  0  0
    0.0954   -1.6044   -0.3553 H   0  0  0  0  0  0  0  0  0  0  0  0
    1.4888    2.8114    1.2661 N   0  0  0  0  0  0  0  0  0  0  0  0
    1.8527    4.1905    1.4993 C   0  0  2  0  0  0  0  0  0  0  0  0
    0.6498    4.8976    2.1097 C   0  0  0  0  0  0  0  0  0  0  0  0
   -0.5034    4.4918    1.9809 O   0  0  0  0  0  0  0  0  0  0  0  0
    2.2888    4.8729    0.2121 C   0  0  0  0  0  0  0  0  0  0  0  0
    2.1880    2.1024    1.4664 H   0  0  0  0  0  0  0  0  0  0  0  0
    2.6771    4.1824    2.2206 H   0  0  0  0  0  0  0  0  0  0  0  0
    1.4758    4.8906   -0.5228 H   0  0  0  0  0  0  0  0  0  0  0  0
    2.5913    5.9092    0.3953 H   0  0  0  0  0  0  0  0  0  0  0  0
    3.1351    4.3456   -0.2412 H   0  0  0  0  0  0  0  0  0  0  0  0
    1.0110    6.0586    2.7789 N   0  0  0  0  0  0  0  0  0  0  0  0
    0.0478    6.9135    3.4325 C   0  0  0  0  0  0  0  0  0  0  0  0
    1.9929    6.3084    2.8517 H   0  0  0  0  0  0  0  0  0  0  0  0
   -0.2778    7.6998    2.7356 H   0  0  0  0  0  0  0  0  0  0  0  0
   -0.8218    6.3157    3.7429 H   0  0  0  0  0  0  0  0  0  0  0  0
    0.5093    7.3761    4.3174 H   0  0  0  0  0  0  0  0  0  0  0  0
  1  3  1  0  0  0  0
  1  7  1  0  0  0  0
  1  2  2  0  0  0  0
 37 38  1  0  0  0  0
 38 46  1  0  0  0  0
 38 39  2  0  0  0  0
  8  9  1  0  0  0  0
  9 17  1  0  0  0  0
  9 10  2  0  0  0  0
 18 19  1  0  0  0  0
 19 36  1  0  0  0  0
 19 20  2  0  0  0  0
 37 40  1  0  0  0  0
  8 11  1  0  0  0  0
 22 23  1  0  0  0  0
 22 24  1  0  0  0  0
 46 47  1  0  0  0  0
 18 21  1  0  0  0  0
 21 22  1  0  0  0  0
 36 37  1  0  0  0  0
  7  8  1  0  0  0  0
 17 18  1  0  0  0  0
  3  4  1  0  0  0  0
  3  5  1  0  0  0  0
  3  6  1  0  0  0  0
 40 43  1  0  0  0  0
 40 44  1  0  0  0  0
 40 45  1  0  0  0  0
 11 14  1  0  0  0  0
 11 15  1  0  0  0  0
 11 16  1  0  0  0  0
 23 30  1  0  0  0  0
 23 31  1  0  0  0  0
 23 32  1  0  0  0  0
 24 33  1  0  0  0  0
 24 34  1  0  0  0  0
 24 35  1  0  0  0  0
 47 49  1  0  0  0  0
 47 50  1  0  0  0  0
 47 51  1  0  0  0  0
 21 27  1  0  0  0  0
 21 28  1  0  0  0  0
 37 42  1  0  0  0  0
  8 13  1  0  0  0  0
 18 26  1  0  0  0  0
 22 29  1  0  0  0  0
 46 48  1  0  0  0  0
  7 12  1  0  0  0  0
 36 41  1  0  0  0  0
 17 25  1  0  0  0  0
M  END
$$$$

  -OEChem-05262214473D

 51 50  0     1  0  0  0  0  0999 V2000
    3.4018   -1.2440   -3.0186 C   0  0  0  0  0  0  0  0  0  0  0  0
    3.2697   -2.0909   -2.1427 O   0  0  0  0  0  0  0  0  0  0  0  0
    4.6845   -1.1645   -3.7779 C   0  0  0  0  0  0  0  0  0  0  0  0
    5.4123   -0.4862   -3.3041 H   0  0  0  0  0  0  0  0  0  0  0  0
    5.1949   -2.1387   -3.8443 H   0  0  0  0  0  0  0  0  0  0  0  0
    4.5953   -0.8128   -4.8182 H   0  0  0  0  0  0  0  0  0  0  0  0
    2.4540   -0.3103   -3.4040 N   0  0  0  0  0  0  0  0  0  0  0  0
    1.1494   -0.2128   -2.8039 C   0  0  2  0  0  0  0  0  0  0  0  0
    1.3350    0.0367   -1.3130 C   0  0  0  0  0  0  0  0  0  0  0  0
    2.3625   -0.2586   -0.7063 O   0  0  0  0  0  0  0  0  0  0  0  0
    0.3331   -1.4728   -3.0467 C   0  0  0  0  0  0  0  0  0  0  0  0
    2.6924    0.3404   -4.1502 H   0  0  0  0  0  0  0  0  0  0  0  0
    0.6550    0.6514   -3.2607 H   0  0  0  0  0  0  0  0  0  0  0  0
    0.8129   -2.3494   -2.5963 H   0  0  0  0  0  0  0  0  0  0  0  0
   -0.6690   -1.3857   -2.6142 H   0  0  0  0  0  0  0  0  0  0  0  0
    0.2259   -1.6670   -4.1194 H   0  0  0  0  0  0  0  0  0  0  0  0
    0.2019    0.5893   -0.7269 N   0  0  0  0  0  0  0  0  0  0  0  0
    0.1242    0.9059    0.6756 C   0  0  2  0  0  0  0  0  0  0  0  0
    0.2405    2.4218    0.8008 C   0  0  0  0  0  0  0  0  0  0  0  0
   -0.7358    3.1685    0.8209 O   0  0  0  0  0  0  0  0  0  0  0  0
    1.2302    0.2202    1.4878 C   0  0  0  0  0  0  0  0  0  0  0  0
    1.1352   -1.3183    1.5401 C   0  0  0  0  0  0  0  0  0  0  0  0
    2.3682   -1.8878    2.2474 C   0  0  0  0  0  0  0  0  0  0  0  0
    1.0053   -1.9418    0.1497 C   0  0  0  0  0  0  0  0  0  0  0  0
   -0.5975    0.8179   -1.3140 H   0  0  0  0  0  0  0  0  0  0  0  0
   -0.8696    0.5998    1.0176 H   0  0  0  0  0  0  0  0  0  0  0  0
    1.2080    0.6088    2.5156 H   0  0  0  0  0  0  0  0  0  0  0  0
    2.2099    0.5055    1.0819 H   0  0  0  0  0  0  0  0  0  0  0  0
    0.2552   -1.6047    2.1288 H   0  0  0  0  0  0  0  0  0  0  0  0
    3.2828   -1.6321    1.7018 H   0  0  0  0  0  0  0  0  0  0  0  0
    2.3121   -2.9798    2.3085 H   0  0  0  0  0  0  0  0  0  0  0  0
    2.4599   -1.4950    3.2658 H   0  0  0  0  0  0  0  0  0  0  0  0
    1.8627   -1.6856   -0.4819 H   0  0  0  0  0  0  0  0  0  0  0  0
    0.9506   -3.0337    0.2176 H   0  0  0  0  0  0  0  0  0  0  0  0
    0.0954   -1.6044   -0.3553 H   0  0  0  0  0  0  0  0  0  0  0  0
    1.5590    2.8331    0.9384 N   0  0  0  0  0  0  0  0  0  0  0  0
    1.9448    4.2163    1.1012 C   0  0  2  0  0  0  0  0  0  0  0  0
    0.9266    4.8841    2.0160 C   0  0  0  0  0  0  0  0  0  0  0  0
   -0.2131    4.4531    2.1787 O   0  0  0  0  0  0  0  0  0  0  0  0
    2.0221    4.9307   -0.2391 C   0  0  0  0  0  0  0  0  0  0  0  0
    2.2993    2.1377    0.9362 H   0  0  0  0  0  0  0  0  0  0  0  0
    2.9272    4.2157    1.5860 H   0  0  0  0  0  0  0  0  0  0  0  0
    1.0471    4.9414   -0.7399 H   0  0  0  0  0  0  0  0  0  0  0  0
    2.3422    5.9706   -0.1166 H   0  0  0  0  0  0  0  0  0  0  0  0
    2.7330    4.4314   -0.9064 H   0  0  0  0  0  0  0  0  0  0  0  0
    1.4262    6.0418    2.5958 N   0  0  0  0  0  0  0  0  0  0  0  0
    0.6479    6.8624    3.4941 C   0  0  0  0  0  0  0  0  0  0  0  0
    2.3889    6.3137    2.4195 H   0  0  0  0  0  0  0  0  0  0  0  0
    0.1392    7.6524    2.9221 H   0  0  0  0  0  0  0  0  0  0  0  0
   -0.1012    6.2388    4.0039 H   0  0  0  0  0  0  0  0  0  0  0  0
    1.3129    7.3208    4.2408 H   0  0  0  0  0  0  0  0  0  0  0  0
  1  3  1  0  0  0  0
  1  7  1  0  0  0  0
  1  2  2  0  0  0  0
 37 38  1  0  0  0  0
 38 46  1  0  0  0  0
 38 39  2  0  0  0  0
  8  9  1  0  0  0  0
  9 17  1  0  0  0  0
  9 10  2  0  0  0  0
 18 19  1  0  0  0  0
 19 36  1  0  0  0  0
 19 20  2  0  0  0  0
 37 40  1  0  0  0  0
  8 11  1  0  0  0  0
 22 23  1  0  0  0  0
 22 24  1  0  0  0  0
 46 47  1  0  0  0  0
 18 21  1  0  0  0  0
 21 22  1  0  0  0  0
 36 37  1  0  0  0  0
  7  8  1  0  0  0  0
 17 18  1  0  0  0  0
  3  4  1  0  0  0  0
  3  5  1  0  0  0  0
  3  6  1  0  0  0  0
 40 43  1  0  0  0  0
 40 44  1  0  0  0  0
 40 45  1  0  0  0  0
 11 14  1  0  0  0  0
 11 15  1  0  0  0  0
 11 16  1  0  0  0  0
 23 30  1  0  0  0  0
 23 31  1  0  0  0  0
 23 32  1  0  0  0  0
 24 33  1  0  0  0  0
 24 34  1  0  0  0  0
 24 35  1  0  0  0  0
 47 49  1  0  0  0  0
 47 50  1  0  0  0  0
 47 51  1  0  0  0  0
 21 27  1  0  0  0  0
 21 28  1  0  0  0  0
 37 42  1  0  0  0  0
  8 13  1  0  0  0  0
 18 26  1  0  0  0  0
 22 29  1  0  0  0  0
 46 48  1  0  0  0  0
  7 12  1  0  0  0  0
 36 41  1  0  0  0  0
 17 25  1  0  0  0  0
M  END
$$$$

  -OEChem-05262214473D

 51 50  0     1  0  0  0  0  0999 V2000
    3.4018   -1.2440   -3.0186 C   0  0  0  0  0  0  0  0  0  0  0  0
    3.2697   -2.0909   -2.1427 O   0  0  0  0  0  0  0  0  0  0  0  0
    4.6845   -1.1645   -3.7779 C   0  0  0  0  0  0  0  0  0  0  0  0
    5.4123   -0.4862   -3.3041 H   0  0  0  0  0  0  0  0  0  0  0  0
    5.1949   -2.1387   -3.8443 H   0  0  0  0  0  0  0  0  0  0  0  0
    4.5953   -0.8128   -4.8182 H   0  0  0  0  0  0  0  0  0  0  0  0
    2.4540   -0.3103   -3.4040 N   0  0  0  0  0  0  0  0  0  0  0  0
    1.1494   -0.2128   -2.8039 C   0  0  2  0  0  0  0  0  0  0  0  0
    1.3350    0.0367   -1.3130 C   0  0  0  0  0  0  0  0  0  0  0  0
    2.3625   -0.2586   -0.7063 O   0  0  0  0  0  0  0  0  0  0  0  0
    0.3331   -1.4728   -3.0467 C   0  0  0  0  0  0  0  0  0  0  0  0
    2.6924    0.3404   -4.1502 H   0  0  0  0  0  0  0  0  0  0  0  0
    0.6550    0.6514   -3.2607 H   0  0  0  0  0  0  0  0  0  0  0  0
    0.8129   -2.3494   -2.5963 H   0  0  0  0  0  0  0  0  0  0  0  0
   -0.6690   -1.3857   -2.6142 H   0  0  0  0  0  0  0  0  0  0  0  0
    0.2259   -1.6670   -4.1194 H   0  0  0  0  0  0  0  0  0  0  0  0
    0.2019    0.5893   -0.7269 N   0  0  0  0  0  0  0  0  0  0  0  0
    0.1242    0.9059    0.6756 C   0  0  2  0  0  0  0  0  0  0  0  0
    0.2405    2.4218    0.8008 C   0  0  0  0  0  0  0  0  0  0  0  0
   -0.7115    3.1446    1.0879 O   0  0  0  0  0  0  0  0  0  0  0  0
    1.2302    0.2202    1.4878 C   0  0  0  0  0  0  0  0  0  0  0  0
    1.1352   -1.3183    1.5401 C   0  0  0  0  0  0  0  0  0  0  0  0
    2.3682   -1.8878    2.2474 C   0  0  0  0  0  0  0  0  0  0  0  0
    1.0053   -1.9418    0.1497 C   0  0  0  0  0  0  0  0  0  0  0  0
   -0.5975    0.8179   -1.3140 H   0  0  0  0  0  0  0  0  0  0  0  0
   -0.8696    0.5998    1.0176 H   0  0  0  0  0  0  0  0  0  0  0  0
    1.2080    0.6088    2.5156 H   0  0  0  0  0  0  0  0  0  0  0  0
    2.2099    0.5055    1.0819 H   0  0  0  0  0  0  0  0  0  0  0  0
    0.2552   -1.6047    2.1288 H   0  0  0  0  0  0  0  0  0  0  0  0
    3.2828   -1.6321    1.7018 H   0  0  0  0  0  0  0  0  0  0  0  0
    2.3121   -2.9798    2.3085 H   0  0  0  0  0  0  0  0  0  0  0  0
    2.4599   -1.4950    3.2658 H   0  0  0  0  0  0  0  0  0  0  0  0
    1.8627   -1.6856   -0.4819 H   0  0  0  0  0  0  0  0  0  0  0  0
    0.9506   -3.0337    0.2176 H   0  0  0  0  0  0  0  0  0  0  0  0
    0.0954   -1.6044   -0.3553 H   0  0  0  0  0  0  0  0  0  0  0  0
    1.5420    2.8620    0.6042 N   0  0  0  0  0  0  0  0  0  0  0  0
    1.9309    4.2511    0.6935 C   0  0  2  0  0  0  0  0  0  0  0  0
    1.1702    4.8788    1.8540 C   0  0  0  0  0  0  0  0  0  0  0  0
    0.1191    4.4181    2.2944 O   0  0  0  0  0  0  0  0  0  0  0  0
    1.6472    4.9897   -0.6053 C   0  0  0  0  0  0  0  0  0  0  0  0
    2.2697    2.1846    0.3962 H   0  0  0  0  0  0  0  0  0  0  0  0
    3.0048    4.2656    0.9095 H   0  0  0  0  0  0  0  0  0  0  0  0
    0.5762    4.9857   -0.8383 H   0  0  0  0  0  0  0  0  0  0  0  0
    1.9686    6.0348   -0.5457 H   0  0  0  0  0  0  0  0  0  0  0  0
    2.1716    4.5189   -1.4439 H   0  0  0  0  0  0  0  0  0  0  0  0
    1.7805    6.0381    2.3119 N   0  0  0  0  0  0  0  0  0  0  0  0
    1.2445    6.8245    3.3982 C   0  0  0  0  0  0  0  0  0  0  0  0
    2.6601    6.3358    1.9003 H   0  0  0  0  0  0  0  0  0  0  0  0
    0.5911    7.6118    2.9941 H   0  0  0  0  0  0  0  0  0  0  0  0
    0.6636    6.1747    4.0693 H   0  0  0  0  0  0  0  0  0  0  0  0
    2.0706    7.2859    3.9591 H   0  0  0  0  0  0  0  0  0  0  0  0
  1  3  1  0  0  0  0
  1  7  1  0  0  0  0
  1  2  2  0  0  0  0
 37 38  1  0  0  0  0
 38 46  1  0  0  0  0
 38 39  2  0  0  0  0
  8  9  1  0  0  0  0
  9 17  1  0  0  0  0
  9 10  2  0  0  0  0
 18 19  1  0  0  0  0
 19 36  1  0  0  0  0
 19 20  2  0  0  0  0
 37 40  1  0  0  0  0
  8 11  1  0  0  0  0
 22 23  1  0  0  0  0
 22 24  1  0  0  0  0
 46 47  1  0  0  0  0
 18 21  1  0  0  0  0
 21 22  1  0  0  0  0
 36 37  1  0  0  0  0
  7  8  1  0  0  0  0
 17 18  1  0  0  0  0
  3  4  1  0  0  0  0
  3  5  1  0  0  0  0
  3  6  1  0  0  0  0
 40 43  1  0  0  0  0
 40 44  1  0  0  0  0
 40 45  1  0  0  0  0
 11 14  1  0  0  0  0
 11 15  1  0  0  0  0
 11 16  1  0  0  0  0
 23 30  1  0  0  0  0
 23 31  1  0  0  0  0
 23 32  1  0  0  0  0
 24 33  1  0  0  0  0
 24 34  1  0  0  0  0
 24 35  1  0  0  0  0
 47 49  1  0  0  0  0
 47 50  1  0  0  0  0
 47 51  1  0  0  0  0
 21 27  1  0  0  0  0
 21 28  1  0  0  0  0
 37 42  1  0  0  0  0
  8 13  1  0  0  0  0
 18 26  1  0  0  0  0
 22 29  1  0  0  0  0
 46 48  1  0  0  0  0
  7 12  1  0  0  0  0
 36 41  1  0  0  0  0
 17 25  1  0  0  0  0
M  END
$$$$

  -OEChem-05262214473D

 51 50  0     1  0  0  0  0  0999 V2000
    3.4018   -1.2440   -3.0186 C   0  0  0  0  0  0  0  0  0  0  0  0
    3.2697   -2.0909   -2.1427 O   0  0  0  0  0  0  0  0  0  0  0  0
    4.6845   -1.1645   -3.7779 C   0  0  0  0  0  0  0  0  0  0  0  0
    5.4123   -0.4862   -3.3041 H   0  0  0  0  0  0  0  0  0  0  0  0
    5.1949   -2.1387   -3.8443 H   0  0  0  0  0  0  0  0  0  0  0  0
    4.5953   -0.8128   -4.8182 H   0  0  0  0  0  0  0  0  0  0  0  0
    2.4540   -0.3103   -3.4040 N   0  0  0  0  0  0  0  0  0  0  0  0
    1.1494   -0.2128   -2.8039 C   0  0  2  0  0  0  0  0  0  0  0  0
    1.3350    0.0367   -1.3130 C   0  0  0  0  0  0  0  0  0  0  0  0
    2.3625   -0.2586   -0.7063 O   0  0  0  0  0  0  0  0  0  0  0  0
    0.3331   -1.4728   -3.0467 C   0  0  0  0  0  0  0  0  0  0  0  0
    2.6924    0.3404   -4.1502 H   0  0  0  0  0  0  0  0  0  0  0  0
    0.6550    0.6514   -3.2607 H   0  0  0  0  0  0  0  0  0  0  0  0
    0.8129   -2.3494   -2.5963 H   0  0  0  0  0  0  0  0  0  0  0  0
   -0.6690   -1.3857   -2.6142 H   0  0  0  0  0  0  0  0  0  0  0  0
    0.2259   -1.6670   -4.1194 H   0  0  0  0  0  0  0  0  0  0  0  0
    0.2019    0.5893   -0.7269 N   0  0  0  0  0  0  0  0  0  0  0  0
    0.1242    0.9059    0.6756 C   0  0  2  0  0  0  0  0  0  0  0  0
    0.2405    2.4218    0.8008 C   0  0  0  0  0  0  0  0  0  0  0  0
   -0.6189    3.1167    1.3391 O   0  0  0  0  0  0  0  0  0  0  0  0
    1.2302    0.2202    1.4878 C   0  0  0  0  0  0  0  0  0  0  0  0
    1.1352   -1.3183    1.5401 C   0  0  0  0  0  0  0  0  0  0  0  0
    2.3682   -1.8878    2.2474 C   0  0  0  0  0  0  0  0  0  0  0  0
    1.0053   -1.9418    0.1497 C   0  0  0  0  0  0  0  0  0  0  0  0
   -0.5975    0.8179   -1.3140 H   0  0  0  0  0  0  0  0  0  0  0  0
   -0.8696    0.5998    1.0176 H   0  0  0  0  0  0  0  0  0  0  0  0
    1.2080    0.6088    2.5156 H   0  0  0  0  0  0  0  0  0  0  0  0
    2.2099    0.5055    1.0819 H   0  0  0  0  0  0  0  0  0  0  0  0
    0.2552   -1.6047    2.1288 H   0  0  0  0  0  0  0  0  0  0  0  0
    3.2828   -1.6321    1.7018 H   0  0  0  0  0  0  0  0  0  0  0  0
    2.3121   -2.9798    2.3085 H   0  0  0  0  0  0  0  0  0  0  0  0
    2.4599   -1.4950    3.2658 H   0  0  0  0  0  0  0  0  0  0  0  0
    1.8627   -1.6856   -0.4819 H   0  0  0  0  0  0  0  0  0  0  0  0
    0.9506   -3.0337    0.2176 H   0  0  0  0  0  0  0  0  0  0  0  0
    0.0954   -1.6044   -0.3553 H   0  0  0  0  0  0  0  0  0  0  0  0
    1.4391    2.8962    0.2863 N   0  0  0  0  0  0  0  0  0  0  0  0
    1.8119    4.2924    0.3039 C   0  0  2  0  0  0  0  0  0  0  0  0
    1.3639    4.8820    1.6348 C   0  0  0  0  0  0  0  0  0  0  0  0
    0.4704    4.3890    2.3200 O   0  0  0  0  0  0  0  0  0  0  0  0
    1.1897    5.0459   -0.8614 C   0  0  0  0  0  0  0  0  0  0  0  0
    2.1012    2.2399   -0.1169 H   0  0  0  0  0  0  0  0  0  0  0  0
    2.9047    4.3289    0.2369 H   0  0  0  0  0  0  0  0  0  0  0  0
    0.0950    5.0204   -0.8113 H   0  0  0  0  0  0  0  0  0  0  0  0
    1.4960    6.0972   -0.8629 H   0  0  0  0  0  0  0  0  0  0  0  0
    1.4892    4.6021   -1.8169 H   0  0  0  0  0  0  0  0  0  0  0  0
    2.0497    6.0476    1.9464 N   0  0  0  0  0  0  0  0  0  0  0  0
    1.7968    6.8025    3.1515 C   0  0  0  0  0  0  0  0  0  0  0  0
    2.7880    6.3732    1.3294 H   0  0  0  0  0  0  0  0  0  0  0  0
    1.0469    7.5807    2.9467 H   0  0  0  0  0  0  0  0  0  0  0  0
    1.4205    6.1278    3.9345 H   0  0  0  0  0  0  0  0  0  0  0  0
    2.7307    7.2739    3.4915 H   0  0  0  0  0  0  0  0  0  0  0  0
  1  3  1  0  0  0  0
  1  7  1  0  0  0  0
  1  2  2  0  0  0  0
 37 38  1  0  0  0  0
 38 46  1  0  0  0  0
 38 39  2  0  0  0  0
  8  9  1  0  0  0  0
  9 17  1  0  0  0  0
  9 10  2  0  0  0  0
 18 19  1  0  0  0  0
 19 36  1  0  0  0  0
 19 20  2  0  0  0  0
 37 40  1  0  0  0  0
  8 11  1  0  0  0  0
 22 23  1  0  0  0  0
 22 24  1  0  0  0  0
 46 47  1  0  0  0  0
 18 21  1  0  0  0  0
 21 22  1  0  0  0  0
 36 37  1  0  0  0  0
  7  8  1  0  0  0  0
 17 18  1  0  0  0  0
  3  4  1  0  0  0  0
  3  5  1  0  0  0  0
  3  6  1  0  0  0  0
 40 43  1  0  0  0  0
 40 44  1  0  0  0  0
 40 45  1  0  0  0  0
 11 14  1  0  0  0  0
 11 15  1  0  0  0  0
 11 16  1  0  0  0  0
 23 30  1  0  0  0  0
 23 31  1  0  0  0  0
 23 32  1  0  0  0  0
 24 33  1  0  0  0  0
 24 34  1  0  0  0  0
 24 35  1  0  0  0  0
 47 49  1  0  0  0  0
 47 50  1  0  0  0  0
 47 51  1  0  0  0  0
 21 27  1  0  0  0  0
 21 28  1  0  0  0  0
 37 42  1  0  0  0  0
  8 13  1  0  0  0  0
 18 26  1  0  0  0  0
 22 29  1  0  0  0  0
 46 48  1  0  0  0  0
  7 12  1  0  0  0  0
 36 41  1  0  0  0  0
 17 25  1  0  0  0  0
M  END
$$$$

  -OEChem-05262214473D

 51 50  0     1  0  0  0  0  0999 V2000
    3.4018   -1.2440   -3.0186 C   0  0  0  0  0  0  0  0  0  0  0  0
    3.2697   -2.0909   -2.1427 O   0  0  0  0  0  0  0  0  0  0  0  0
    4.6845   -1.1645   -3.7779 C   0  0  0  0  0  0  0  0  0  0  0  0
    5.4123   -0.4862   -3.3041 H   0  0  0  0  0  0  0  0  0  0  0  0
    5.1949   -2.1387   -3.8443 H   0  0  0  0  0  0  0  0  0  0  0  0
    4.5953   -0.8128   -4.8182 H   0  0  0  0  0  0  0  0  0  0  0  0
    2.4540   -0.3103   -3.4040 N   0  0  0  0  0  0  0  0  0  0  0  0
    1.1494   -0.2128   -2.8039 C   0  0  2  0  0  0  0  0  0  0  0  0
    1.3350    0.0367   -1.3130 C   0  0  0  0  0  0  0  0  0  0  0  0
    2.3625   -0.2586   -0.7063 O   0  0  0  0  0  0  0  0  0  0  0  0
    0.3331   -1.4728   -3.0467 C   0  0  0  0  0  0  0  0  0  0  0  0
    2.6924    0.3404   -4.1502 H   0  0  0  0  0  0  0  0  0  0  0  0
    0.6550    0.6514   -3.2607 H   0  0  0  0  0  0  0  0  0  0  0  0
    0.8129   -2.3494   -2.5963 H   0  0  0  0  0  0  0  0  0  0  0  0
   -0.6690   -1.3857   -2.6142 H   0  0  0  0  0  0  0  0  0  0  0  0
    0.2259   -1.6670   -4.1194 H   0  0  0  0  0  0  0  0  0  0  0  0
    0.2019    0.5893   -0.7269 N   0  0  0  0  0  0  0  0  0  0  0  0
    0.1242    0.9059    0.6756 C   0  0  2  0  0  0  0  0  0  0  0  0
    0.2405    2.4218    0.8008 C   0  0  0  0  0  0  0  0  0  0  0  0
   -0.4642    3.0868    1.5574 O   0  0  0  0  0  0  0  0  0  0  0  0
    1.2302    0.2202    1.4878 C   0  0  0  0  0  0  0  0  0  0  0  0
    1.1352   -1.3183    1.5401 C   0  0  0  0  0  0  0  0  0  0  0  0
    2.3682   -1.8878    2.2474 C   0  0  0  0  0  0  0  0  0  0  0  0
    1.0053   -1.9418    0.1497 C   0  0  0  0  0  0  0  0  0  0  0  0
   -0.5975    0.8179   -1.3140 H   0  0  0  0  0  0  0  0  0  0  0  0
   -0.8696    0.5998    1.0176 H   0  0  0  0  0  0  0  0  0  0  0  0
    1.2080    0.6088    2.5156 H   0  0  0  0  0  0  0  0  0  0  0  0
    2.2099    0.5055    1.0819 H   0  0  0  0  0  0  0  0  0  0  0  0
    0.2552   -1.6047    2.1288 H   0  0  0  0  0  0  0  0  0  0  0  0
    3.2828   -1.6321    1.7018 H   0  0  0  0  0  0  0  0  0  0  0  0
    2.3121   -2.9798    2.3085 H   0  0  0  0  0  0  0  0  0  0  0  0
    2.4599   -1.4950    3.2658 H   0  0  0  0  0  0  0  0  0  0  0  0
    1.8627   -1.6856   -0.4819 H   0  0  0  0  0  0  0  0  0  0  0  0
    0.9506   -3.0337    0.2176 H   0  0  0  0  0  0  0  0  0  0  0  0
    0.0954   -1.6044   -0.3553 H   0  0  0  0  0  0  0  0  0  0  0  0
    1.2572    2.9333    0.0063 N   0  0  0  0  0  0  0  0  0  0  0  0
    1.5958    4.3375   -0.0410 C   0  0  2  0  0  0  0  0  0  0  0  0
    1.4946    4.8936    1.3732 C   0  0  0  0  0  0  0  0  0  0  0  0
    0.8169    4.3679    2.2538 O   0  0  0  0  0  0  0  0  0  0  0  0
    0.6807    5.0956   -0.9899 C   0  0  0  0  0  0  0  0  0  0  0  0
    1.8054    2.2999   -0.5681 H   0  0  0  0  0  0  0  0  0  0  0  0
    2.6337    4.4011   -0.3857 H   0  0  0  0  0  0  0  0  0  0  0  0
   -0.3635    5.0431   -0.6609 H   0  0  0  0  0  0  0  0  0  0  0  0
    0.9566    6.1538   -1.0464 H   0  0  0  0  0  0  0  0  0  0  0  0
    0.7324    4.6753   -2.0001 H   0  0  0  0  0  0  0  0  0  0  0  0
    2.2156    6.0698    1.5243 N   0  0  0  0  0  0  0  0  0  0  0  0
    2.2674    6.7979    2.7706 C   0  0  0  0  0  0  0  0  0  0  0  0
    2.7640    6.4232    0.7458 H   0  0  0  0  0  0  0  0  0  0  0  0
    1.4756    7.5613    2.7830 H   0  0  0  0  0  0  0  0  0  0  0  0
    2.1179    6.1012    3.6086 H   0  0  0  0  0  0  0  0  0  0  0  0
    3.2484    7.2856    2.8697 H   0  0  0  0  0  0  0  0  0  0  0  0
  1  3  1  0  0  0  0
  1  7  1  0  0  0  0
  1  2  2  0  0  0  0
 37 38  1  0  0  0  0
 38 46  1  0  0  0  0
 38 39  2  0  0  0  0
  8  9  1  0  0  0  0
  9 17  1  0  0  0  0
  9 10  2  0  0  0  0
 18 19  1  0  0  0  0
 19 36  1  0  0  0  0
 19 20  2  0  0  0  0
 37 40  1  0  0  0  0
  8 11  1  0  0  0  0
 22 23  1  0  0  0  0
 22 24  1  0  0  0  0
 46 47  1  0  0  0  0
 18 21  1  0  0  0  0
 21 22  1  0  0  0  0
 36 37  1  0  0  0  0
  7  8  1  0  0  0  0
 17 18  1  0  0  0  0
  3  4  1  0  0  0  0
  3  5  1  0  0  0  0
  3  6  1  0  0  0  0
 40 43  1  0  0  0  0
 40 44  1  0  0  0  0
 40 45  1  0  0  0  0
 11 14  1  0  0  0  0
 11 15  1  0  0  0  0
 11 16  1  0  0  0  0
 23 30  1  0  0  0  0
 23 31  1  0  0  0  0
 23 32  1  0  0  0  0
 24 33  1  0  0  0  0
 24 34  1  0  0  0  0
 24 35  1  0  0  0  0
 47 49  1  0  0  0  0
 47 50  1  0  0  0  0
 47 51  1  0  0  0  0
 21 27  1  0  0  0  0
 21 28  1  0  0  0  0
 37 42  1  0  0  0  0
  8 13  1  0  0  0  0
 18 26  1  0  0  0  0
 22 29  1  0  0  0  0
 46 48  1  0  0  0  0
  7 12  1  0  0  0  0
 36 41  1  0  0  0  0
 17 25  1  0  0  0  0
M  END
$$$$

  -OEChem-05262214473D

 51 50  0     1  0  0  0  0  0999 V2000
    3.4018   -1.2440   -3.0186 C   0  0  0  0  0  0  0  0  0  0  0  0
    3.2697   -2.0909   -2.1427 O   0  0  0  0  0  0  0  0  0  0  0  0
    4.6845   -1.1645   -3.7779 C   0  0  0  0  0  0  0  0  0  0  0  0
    5.4123   -0.4862   -3.3041 H   0  0  0  0  0  0  0  0  0  0  0  0
    5.1949   -2.1387   -3.8443 H   0  0  0  0  0  0  0  0  0  0  0  0
    4.5953   -0.8128   -4.8182 H   0  0  0  0  0  0  0  0  0  0  0  0
    2.4540   -0.3103   -3.4040 N   0  0  0  0  0  0  0  0  0  0  0  0
    1.1494   -0.2128   -2.8039 C   0  0  2  0  0  0  0  0  0  0  0  0
    1.3350    0.0367   -1.3130 C   0  0  0  0  0  0  0  0  0  0  0  0
    2.3625   -0.2586   -0.7063 O   0  0  0  0  0  0  0  0  0  0  0  0
    0.3331   -1.4728   -3.0467 C   0  0  0  0  0  0  0  0  0  0  0  0
    2.6924    0.3404   -4.1502 H   0  0  0  0  0  0  0  0  0  0  0  0
    0.6550    0.6514   -3.2607 H   0  0  0  0  0  0  0  0  0  0  0  0
    0.8129   -2.3494   -2.5963 H   0  0  0  0  0  0  0  0  0  0  0  0
   -0.6690   -1.3857   -2.6142 H   0  0  0  0  0  0  0  0  0  0  0  0
    0.2259   -1.6670   -4.1194 H   0  0  0  0  0  0  0  0  0  0  0  0
    0.2019    0.5893   -0.7269 N   0  0  0  0  0  0  0  0  0  0  0  0
    0.1242    0.9059    0.6756 C   0  0  2  0  0  0  0  0  0  0  0  0
    0.2405    2.4218    0.8008 C   0  0  0  0  0  0  0  0  0  0  0  0
   -0.2580    3.0569    1.7278 O   0  0  0  0  0  0  0  0  0  0  0  0
    1.2302    0.2202    1.4878 C   0  0  0  0  0  0  0  0  0  0  0  0
    1.1352   -1.3183    1.5401 C   0  0  0  0  0  0  0  0  0  0  0  0
    2.3682   -1.8878    2.2474 C   0  0  0  0  0  0  0  0  0  0  0  0
    1.0053   -1.9418    0.1497 C   0  0  0  0  0  0  0  0  0  0  0  0
   -0.5975    0.8179   -1.3140 H   0  0  0  0  0  0  0  0  0  0  0  0
   -0.8696    0.5998    1.0176 H   0  0  0  0  0  0  0  0  0  0  0  0
    1.2080    0.6088    2.5156 H   0  0  0  0  0  0  0  0  0  0  0  0
    2.2099    0.5055    1.0819 H   0  0  0  0  0  0  0  0  0  0  0  0
    0.2552   -1.6047    2.1288 H   0  0  0  0  0  0  0  0  0  0  0  0
    3.2828   -1.6321    1.7018 H   0  0  0  0  0  0  0  0  0  0  0  0
    2.3121   -2.9798    2.3085 H   0  0  0  0  0  0  0  0  0  0  0  0
    2.4599   -1.4950    3.2658 H   0  0  0  0  0  0  0  0  0  0  0  0
    1.8627   -1.6856   -0.4819 H   0  0  0  0  0  0  0  0  0  0  0  0
    0.9506   -3.0337    0.2176 H   0  0  0  0  0  0  0  0  0  0  0  0
    0.0954   -1.6044   -0.3553 H   0  0  0  0  0  0  0  0  0  0  0  0
    1.0087    2.9708   -0.2165 N   0  0  0  0  0  0  0  0  0  0  0  0
    1.2974    4.3832   -0.3176 C   0  0  2  0  0  0  0  0  0  0  0  0
    1.5533    4.9127    1.0872 C   0  0  0  0  0  0  0  0  0  0  0  0
    1.1350    4.3562    2.1003 O   0  0  0  0  0  0  0  0  0  0  0  0
    0.1549    5.1353   -0.9823 C   0  0  0  0  0  0  0  0  0  0  0  0
    1.4023    2.3605   -0.9266 H   0  0  0  0  0  0  0  0  0  0  0  0
    2.2102    4.4774   -0.9159 H   0  0  0  0  0  0  0  0  0  0  0  0
   -0.7683    5.0524   -0.3972 H   0  0  0  0  0  0  0  0  0  0  0  0
    0.3872    6.2006   -1.0839 H   0  0  0  0  0  0  0  0  0  0  0  0
   -0.0473    4.7336   -1.9810 H   0  0  0  0  0  0  0  0  0  0  0  0
    2.2669    6.1030    1.0744 N   0  0  0  0  0  0  0  0  0  0  0  0
    2.6241    6.8109    2.2816 C   0  0  0  0  0  0  0  0  0  0  0  0
    2.5897    6.4826    0.1893 H   0  0  0  0  0  0  0  0  0  0  0  0
    1.8480    7.5550    2.5143 H   0  0  0  0  0  0  0  0  0  0  0  0
    2.7084    6.0967    3.1140 H   0  0  0  0  0  0  0  0  0  0  0  0
    3.5882    7.3201    2.1363 H   0  0  0  0  0  0  0  0  0  0  0  0
  1  3  1  0  0  0  0
  1  7  1  0  0  0  0
  1  2  2  0  0  0  0
 37 38  1  0  0  0  0
 38 46  1  0  0  0  0
 38 39  2  0  0  0  0
  8  9  1  0  0  0  0
  9 17  1  0  0  0  0
  9 10  2  0  0  0  0
 18 19  1  0  0  0  0
 19 36  1  0  0  0  0
 19 20  2  0  0  0  0
 37 40  1  0  0  0  0
  8 11  1  0  0  0  0
 22 23  1  0  0  0  0
 22 24  1  0  0  0  0
 46 47  1  0  0  0  0
 18 21  1  0  0  0  0
 21 22  1  0  0  0  0
 36 37  1  0  0  0  0
  7  8  1  0  0  0  0
 17 18  1  0  0  0  0
  3  4  1  0  0  0  0
  3  5  1  0  0  0  0
  3  6  1  0  0  0  0
 40 43  1  0  0  0  0
 40 44  1  0  0  0  0
 40 45  1  0  0  0  0
 11 14  1  0  0  0  0
 11 15  1  0  0  0  0
 11 16  1  0  0  0  0
 23 30  1  0  0  0  0
 23 31  1  0  0  0  0
 23 32  1  0  0  0  0
 24 33  1  0  0  0  0
 24 34  1  0  0  0  0
 24 35  1  0  0  0  0
 47 49  1  0  0  0  0
 47 50  1  0  0  0  0
 47 51  1  0  0  0  0
 21 27  1  0  0  0  0
 21 28  1  0  0  0  0
 37 42  1  0  0  0  0
  8 13  1  0  0  0  0
 18 26  1  0  0  0  0
 22 29  1  0  0  0  0
 46 48  1  0  0  0  0
  7 12  1  0  0  0  0
 36 41  1  0  0  0  0
 17 25  1  0  0  0  0
M  END
$$$$

  -OEChem-05262214473D

 51 50  0     1  0  0  0  0  0999 V2000
    3.4018   -1.2440   -3.0186 C   0  0  0  0  0  0  0  0  0  0  0  0
    3.2697   -2.0909   -2.1427 O   0  0  0  0  0  0  0  0  0  0  0  0
    4.6845   -1.1645   -3.7779 C   0  0  0  0  0  0  0  0  0  0  0  0
    5.4123   -0.4862   -3.3041 H   0  0  0  0  0  0  0  0  0  0  0  0
    5.1949   -2.1387   -3.8443 H   0  0  0  0  0  0  0  0  0  0  0  0
    4.5953   -0.8128   -4.8182 H   0  0  0  0  0  0  0  0  0  0  0  0
    2.4540   -0.3103   -3.4040 N   0  0  0  0  0  0  0  0  0  0  0  0
    1.1494   -0.2128   -2.8039 C   0  0  2  0  0  0  0  0  0  0  0  0
    1.3350    0.0367   -1.3130 C   0  0  0  0  0  0  0  0  0  0  0  0
    2.3625   -0.2586   -0.7063 O   0  0  0  0  0  0  0  0  0  0  0  0
    0.3331   -1.4728   -3.0467 C   0  0  0  0  0  0  0  0  0  0  0  0
    2.6924    0.3404   -4.1502 H   0  0  0  0  0  0  0  0  0  0  0  0
    0.6550    0.6514   -3.2607 H   0  0  0  0  0  0  0  0  0  0  0  0
    0.8129   -2.3494   -2.5963 H   0  0  0  0  0  0  0  0  0  0  0  0
   -0.6690   -1.3857   -2.6142 H   0  0  0  0  0  0  0  0  0  0  0  0
    0.2259   -1.6670   -4.1194 H   0  0  0  0  0  0  0  0  0  0  0  0
    0.2019    0.5893   -0.7269 N   0  0  0  0  0  0  0  0  0  0  0  0
    0.1242    0.9059    0.6756 C   0  0  2  0  0  0  0  0  0  0  0  0
    0.2405    2.4218    0.8008 C   0  0  0  0  0  0  0  0  0  0  0  0
   -0.0144    3.0290    1.8388 O   0  0  0  0  0  0  0  0  0  0  0  0
    1.2302    0.2202    1.4878 C   0  0  0  0  0  0  0  0  0  0  0  0
    1.1352   -1.3183    1.5401 C   0  0  0  0  0  0  0  0  0  0  0  0
    2.3682   -1.8878    2.2474 C   0  0  0  0  0  0  0  0  0  0  0  0
    1.0053   -1.9418    0.1497 C   0  0  0  0  0  0  0  0  0  0  0  0
   -0.5975    0.8179   -1.3140 H   0  0  0  0  0  0  0  0  0  0  0  0
   -0.8696    0.5998    1.0176 H   0  0  0  0  0  0  0  0  0  0  0  0
    1.2080    0.6088    2.5156 H   0  0  0  0  0  0  0  0  0  0  0  0
    2.2099    0.5055    1.0819 H   0  0  0  0  0  0  0  0  0  0  0  0
    0.2552   -1.6047    2.1288 H   0  0  0  0  0  0  0  0  0  0  0  0
    3.2828   -1.6321    1.7018 H   0  0  0  0  0  0  0  0  0  0  0  0
    2.3121   -2.9798    2.3085 H   0  0  0  0  0  0  0  0  0  0  0  0
    2.4599   -1.4950    3.2658 H   0  0  0  0  0  0  0  0  0  0  0  0
    1.8627   -1.6856   -0.4819 H   0  0  0  0  0  0  0  0  0  0  0  0
    0.9506   -3.0337    0.2176 H   0  0  0  0  0  0  0  0  0  0  0  0
    0.0954   -1.6044   -0.3553 H   0  0  0  0  0  0  0  0  0  0  0  0
    0.7106    3.0061   -0.3671 N   0  0  0  0  0  0  0  0  0  0  0  0
    0.9371    4.4266   -0.5072 C   0  0  2  0  0  0  0  0  0  0  0  0
    1.5361    4.9381    0.7963 C   0  0  0  0  0  0  0  0  0  0  0  0
    1.4031    4.3546    1.8701 O   0  0  0  0  0  0  0  0  0  0  0  0
   -0.3518    5.1624   -0.8388 C   0  0  0  0  0  0  0  0  0  0  0  0
    0.9194    2.4175   -1.1681 H   0  0  0  0  0  0  0  0  0  0  0  0
    1.6633    4.5526   -1.3177 H   0  0  0  0  0  0  0  0  0  0  0  0
   -1.0916    5.0476   -0.0382 H   0  0  0  0  0  0  0  0  0  0  0  0
   -0.1735    6.2344   -0.9727 H   0  0  0  0  0  0  0  0  0  0  0  0
   -0.7968    4.7729   -1.7608 H   0  0  0  0  0  0  0  0  0  0  0  0
    2.1999    6.1451    0.6273 N   0  0  0  0  0  0  0  0  0  0  0  0
    2.8425    6.8407    1.7178 C   0  0  0  0  0  0  0  0  0  0  0  0
    2.2769    6.5472   -0.3022 H   0  0  0  0  0  0  0  0  0  0  0  0
    2.1388    7.5620    2.1588 H   0  0  0  0  0  0  0  0  0  0  0  0
    3.1516    6.1147    2.4843 H   0  0  0  0  0  0  0  0  0  0  0  0
    3.7271    7.3751    1.3411 H   0  0  0  0  0  0  0  0  0  0  0  0
  1  3  1  0  0  0  0
  1  7  1  0  0  0  0
  1  2  2  0  0  0  0
 37 38  1  0  0  0  0
 38 46  1  0  0  0  0
 38 39  2  0  0  0  0
  8  9  1  0  0  0  0
  9 17  1  0  0  0  0
  9 10  2  0  0  0  0
 18 19  1  0  0  0  0
 19 36  1  0  0  0  0
 19 20  2  0  0  0  0
 37 40  1  0  0  0  0
  8 11  1  0  0  0  0
 22 23  1  0  0  0  0
 22 24  1  0  0  0  0
 46 47  1  0  0  0  0
 18 21  1  0  0  0  0
 21 22  1  0  0  0  0
 36 37  1  0  0  0  0
  7  8  1  0  0  0  0
 17 18  1  0  0  0  0
  3  4  1  0  0  0  0
  3  5  1  0  0  0  0
  3  6  1  0  0  0  0
 40 43  1  0  0  0  0
 40 44  1  0  0  0  0
 40 45  1  0  0  0  0
 11 14  1  0  0  0  0
 11 15  1  0  0  0  0
 11 16  1  0  0  0  0
 23 30  1  0  0  0  0
 23 31  1  0  0  0  0
 23 32  1  0  0  0  0
 24 33  1  0  0  0  0
 24 34  1  0  0  0  0
 24 35  1  0  0  0  0
 47 49  1  0  0  0  0
 47 50  1  0  0  0  0
 47 51  1  0  0  0  0
 21 27  1  0  0  0  0
 21 28  1  0  0  0  0
 37 42  1  0  0  0  0
  8 13  1  0  0  0  0
 18 26  1  0  0  0  0
 22 29  1  0  0  0  0
 46 48  1  0  0  0  0
  7 12  1  0  0  0  0
 36 41  1  0  0  0  0
 17 25  1  0  0  0  0
M  END
$$$$

  -OEChem-05262214473D

 51 50  0     1  0  0  0  0  0999 V2000
    3.4018   -1.2440   -3.0186 C   0  0  0  0  0  0  0  0  0  0  0  0
    3.2697   -2.0909   -2.1427 O   0  0  0  0  0  0  0  0  0  0  0  0
    4.6845   -1.1645   -3.7779 C   0  0  0  0  0  0  0  0  0  0  0  0
    5.4123   -0.4862   -3.3041 H   0  0  0  0  0  0  0  0  0  0  0  0
    5.1949   -2.1387   -3.8443 H   0  0  0  0  0  0  0  0  0  0  0  0
    4.5953   -0.8128   -4.8182 H   0  0  0  0  0  0  0  0  0  0  0  0
    2.4540   -0.3103   -3.4040 N   0  0  0  0  0  0  0  0  0  0  0  0
    1.1494   -0.2128   -2.8039 C   0  0  2  0  0  0  0  0  0  0  0  0
    1.3350    0.0367   -1.3130 C   0  0  0  0  0  0  0  0  0  0  0  0
    2.3625   -0.2586   -0.7063 O   0  0  0  0  0  0  0  0  0  0  0  0
    0.3331   -1.4728   -3.0467 C   0  0  0  0  0  0  0  0  0  0  0  0
    2.6924    0.3404   -4.1502 H   0  0  0  0  0  0  0  0  0  0  0  0
    0.6550    0.6514   -3.2607 H   0  0  0  0  0  0  0  0  0  0  0  0
    0.8129   -2.3494   -2.5963 H   0  0  0  0  0  0  0  0  0  0  0  0
   -0.6690   -1.3857   -2.6142 H   0  0  0  0  0  0  0  0  0  0  0  0
    0.2259   -1.6670   -4.1194 H   0  0  0  0  0  0  0  0  0  0  0  0
    0.2019    0.5893   -0.7269 N   0  0  0  0  0  0  0  0  0  0  0  0
    0.1242    0.9059    0.6756 C   0  0  2  0  0  0  0  0  0  0  0  0
    0.2405    2.4218    0.8008 C   0  0  0  0  0  0  0  0  0  0  0  0
    0.2501    3.0051    1.8829 O   0  0  0  0  0  0  0  0  0  0  0  0
    1.2302    0.2202    1.4878 C   0  0  0  0  0  0  0  0  0  0  0  0
    1.1352   -1.3183    1.5401 C   0  0  0  0  0  0  0  0  0  0  0  0
    2.3682   -1.8878    2.2474 C   0  0  0  0  0  0  0  0  0  0  0  0
    1.0053   -1.9418    0.1497 C   0  0  0  0  0  0  0  0  0  0  0  0
   -0.5975    0.8179   -1.3140 H   0  0  0  0  0  0  0  0  0  0  0  0
   -0.8696    0.5998    1.0176 H   0  0  0  0  0  0  0  0  0  0  0  0
    1.2080    0.6088    2.5156 H   0  0  0  0  0  0  0  0  0  0  0  0
    2.2099    0.5055    1.0819 H   0  0  0  0  0  0  0  0  0  0  0  0
    0.2552   -1.6047    2.1288 H   0  0  0  0  0  0  0  0  0  0  0  0
    3.2828   -1.6321    1.7018 H   0  0  0  0  0  0  0  0  0  0  0  0
    2.3121   -2.9798    2.3085 H   0  0  0  0  0  0  0  0  0  0  0  0
    2.4599   -1.4950    3.2658 H   0  0  0  0  0  0  0  0  0  0  0  0
    1.8627   -1.6856   -0.4819 H   0  0  0  0  0  0  0  0  0  0  0  0
    0.9506   -3.0337    0.2176 H   0  0  0  0  0  0  0  0  0  0  0  0
    0.0954   -1.6044   -0.3553 H   0  0  0  0  0  0  0  0  0  0  0  0
    0.3831    3.0368   -0.4353 N   0  0  0  0  0  0  0  0  0  0  0  0
    0.5394    4.4645   -0.5968 C   0  0  2  0  0  0  0  0  0  0  0  0
    1.4440    4.9679    0.5202 C   0  0  0  0  0  0  0  0  0  0  0  0
    1.6029    4.3634    1.5786 O   0  0  0  0  0  0  0  0  0  0  0  0
   -0.8049    5.1749   -0.5694 C   0  0  0  0  0  0  0  0  0  0  0  0
    0.3897    2.4670   -1.2760 H   0  0  0  0  0  0  0  0  0  0  0  0
    1.0300    4.6215   -1.5636 H   0  0  0  0  0  0  0  0  0  0  0  0
   -1.3114    5.0289    0.3917 H   0  0  0  0  0  0  0  0  0  0  0  0
   -0.6871    6.2530   -0.7205 H   0  0  0  0  0  0  0  0  0  0  0  0
   -1.4649    4.7906   -1.3546 H   0  0  0  0  0  0  0  0  0  0  0  0
    2.0194    6.1931    0.2135 N   0  0  0  0  0  0  0  0  0  0  0  0
    2.9079    6.8853    1.1176 C   0  0  0  0  0  0  0  0  0  0  0  0
    1.8470    6.6127   -0.6953 H   0  0  0  0  0  0  0  0  0  0  0  0
    2.3280    7.5820    1.7407 H   0  0  0  0  0  0  0  0  0  0  0  0
    3.4174    6.1540    1.7624 H   0  0  0  0  0  0  0  0  0  0  0  0
    3.6556    7.4470    0.5384 H   0  0  0  0  0  0  0  0  0  0  0  0
  1  3  1  0  0  0  0
  1  7  1  0  0  0  0
  1  2  2  0  0  0  0
 37 38  1  0  0  0  0
 38 46  1  0  0  0  0
 38 39  2  0  0  0  0
  8  9  1  0  0  0  0
  9 17  1  0  0  0  0
  9 10  2  0  0  0  0
 18 19  1  0  0  0  0
 19 36  1  0  0  0  0
 19 20  2  0  0  0  0
 37 40  1  0  0  0  0
  8 11  1  0  0  0  0
 22 23  1  0  0  0  0
 22 24  1  0  0  0  0
 46 47  1  0  0  0  0
 18 21  1  0  0  0  0
 21 22  1  0  0  0  0
 36 37  1  0  0  0  0
  7  8  1  0  0  0  0
 17 18  1  0  0  0  0
  3  4  1  0  0  0  0
  3  5  1  0  0  0  0
  3  6  1  0  0  0  0
 40 43  1  0  0  0  0
 40 44  1  0  0  0  0
 40 45  1  0  0  0  0
 11 14  1  0  0  0  0
 11 15  1  0  0  0  0
 11 16  1  0  0  0  0
 23 30  1  0  0  0  0
 23 31  1  0  0  0  0
 23 32  1  0  0  0  0
 24 33  1  0  0  0  0
 24 34  1  0  0  0  0
 24 35  1  0  0  0  0
 47 49  1  0  0  0  0
 47 50  1  0  0  0  0
 47 51  1  0  0  0  0
 21 27  1  0  0  0  0
 21 28  1  0  0  0  0
 37 42  1  0  0  0  0
  8 13  1  0  0  0  0
 18 26  1  0  0  0  0
 22 29  1  0  0  0  0
 46 48  1  0  0  0  0
  7 12  1  0  0  0  0
 36 41  1  0  0  0  0
 17 25  1  0  0  0  0
M  END
$$$$

  -OEChem-05262214473D

 51 50  0     1  0  0  0  0  0999 V2000
    3.4018   -1.2440   -3.0186 C   0  0  0  0  0  0  0  0  0  0  0  0
    3.2697   -2.0909   -2.1427 O   0  0  0  0  0  0  0  0  0  0  0  0
    4.6845   -1.1645   -3.7779 C   0  0  0  0  0  0  0  0  0  0  0  0
    5.4123   -0.4862   -3.3041 H   0  0  0  0  0  0  0  0  0  0  0  0
    5.1949   -2.1387   -3.8443 H   0  0  0  0  0  0  0  0  0  0  0  0
    4.5953   -0.8128   -4.8182 H   0  0  0  0  0  0  0  0  0  0  0  0
    2.4540   -0.3103   -3.4040 N   0  0  0  0  0  0  0  0  0  0  0  0
    1.1494   -0.2128   -2.8039 C   0  0  2  0  0  0  0  0  0  0  0  0
    1.3350    0.0367   -1.3130 C   0  0  0  0  0  0  0  0  0  0  0  0
    2.3625   -0.2586   -0.7063 O   0  0  0  0  0  0  0  0  0  0  0  0
    0.3331   -1.4728   -3.0467 C   0  0  0  0  0  0  0  0  0  0  0  0
    2.6924    0.3404   -4.1502 H   0  0  0  0  0  0  0  0  0  0  0  0
    0.6550    0.6514   -3.2607 H   0  0  0  0  0  0  0  0  0  0  0  0
    0.8129   -2.3494   -2.5963 H   0  0  0  0  0  0  0  0  0  0  0  0
   -0.6690   -1.3857   -2.6142 H   0  0  0  0  0  0  0  0  0  0  0  0
    0.2259   -1.6670   -4.1194 H   0  0  0  0  0  0  0  0  0  0  0  0
    0.2019    0.5893   -0.7269 N   0  0  0  0  0  0  0  0  0  0  0  0
    0.1242    0.9059    0.6756 C   0  0  2  0  0  0  0  0  0  0  0  0
    0.2405    2.4218    0.8008 C   0  0  0  0  0  0  0  0  0  0  0  0
    0.5174    2.9867    1.8569 O   0  0  0  0  0  0  0  0  0  0  0  0
    1.2302    0.2202    1.4878 C   0  0  0  0  0  0  0  0  0  0  0  0
    1.1352   -1.3183    1.5401 C   0  0  0  0  0  0  0  0  0  0  0  0
    2.3682   -1.8878    2.2474 C   0  0  0  0  0  0  0  0  0  0  0  0
    1.0053   -1.9418    0.1497 C   0  0  0  0  0  0  0  0  0  0  0  0
   -0.5975    0.8179   -1.3140 H   0  0  0  0  0  0  0  0  0  0  0  0
   -0.8696    0.5998    1.0176 H   0  0  0  0  0  0  0  0  0  0  0  0
    1.2080    0.6088    2.5156 H   0  0  0  0  0  0  0  0  0  0  0  0
    2.2099    0.5055    1.0819 H   0  0  0  0  0  0  0  0  0  0  0  0
    0.2552   -1.6047    2.1288 H   0  0  0  0  0  0  0  0  0  0  0  0
    3.2828   -1.6321    1.7018 H   0  0  0  0  0  0  0  0  0  0  0  0
    2.3121   -2.9798    2.3085 H   0  0  0  0  0  0  0  0  0  0  0  0
    2.4599   -1.4950    3.2658 H   0  0  0  0  0  0  0  0  0  0  0  0
    1.8627   -1.6856   -0.4819 H   0  0  0  0  0  0  0  0  0  0  0  0
    0.9506   -3.0337    0.2176 H   0  0  0  0  0  0  0  0  0  0  0  0
    0.0954   -1.6044   -0.3553 H   0  0  0  0  0  0  0  0  0  0  0  0
    0.0486    3.0609   -0.4162 N   0  0  0  0  0  0  0  0  0  0  0  0
    0.1314    4.4944   -0.5803 C   0  0  2  0  0  0  0  0  0  0  0  0
    1.2835    5.0003    0.2777 C   0  0  0  0  0  0  0  0  0  0  0  0
    1.7207    4.3818    1.2459 O   0  0  0  0  0  0  0  0  0  0  0  0
   -1.1736    5.1720   -0.1924 C   0  0  0  0  0  0  0  0  0  0  0  0
   -0.1508    2.5058   -1.2430 H   0  0  0  0  0  0  0  0  0  0  0  0
    0.3535    4.6795   -1.6370 H   0  0  0  0  0  0  0  0  0  0  0  0
   -1.4128    4.9978    0.8630 H   0  0  0  0  0  0  0  0  0  0  0  0
   -1.1188    6.2551   -0.3444 H   0  0  0  0  0  0  0  0  0  0  0  0
   -2.0062    4.7855   -0.7901 H   0  0  0  0  0  0  0  0  0  0  0  0
    1.7375    6.2439   -0.1388 N   0  0  0  0  0  0  0  0  0  0  0  0
    2.8158    6.9416    0.5219 C   0  0  0  0  0  0  0  0  0  0  0  0
    1.3292    6.6745   -0.9631 H   0  0  0  0  0  0  0  0  0  0  0  0
    2.4029    7.6136    1.2887 H   0  0  0  0  0  0  0  0  0  0  0  0
    3.4876    6.2118    0.9975 H   0  0  0  0  0  0  0  0  0  0  0  0
    3.3785    7.5306   -0.2172 H   0  0  0  0  0  0  0  0  0  0  0  0
  1  3  1  0  0  0  0
  1  7  1  0  0  0  0
  1  2  2  0  0  0  0
 37 38  1  0  0  0  0
 38 46  1  0  0  0  0
 38 39  2  0  0  0  0
  8  9  1  0  0  0  0
  9 17  1  0  0  0  0
  9 10  2  0  0  0  0
 18 19  1  0  0  0  0
 19 36  1  0  0  0  0
 19 20  2  0  0  0  0
 37 40  1  0  0  0  0
  8 11  1  0  0  0  0
 22 23  1  0  0  0  0
 22 24  1  0  0  0  0
 46 47  1  0  0  0  0
 18 21  1  0  0  0  0
 21 22  1  0  0  0  0
 36 37  1  0  0  0  0
  7  8  1  0  0  0  0
 17 18  1  0  0  0  0
  3  4  1  0  0  0  0
  3  5  1  0  0  0  0
  3  6  1  0  0  0  0
 40 43  1  0  0  0  0
 40 44  1  0  0  0  0
 40 45  1  0  0  0  0
 11 14  1  0  0  0  0
 11 15  1  0  0  0  0
 11 16  1  0  0  0  0
 23 30  1  0  0  0  0
 23 31  1  0  0  0  0
 23 32  1  0  0  0  0
 24 33  1  0  0  0  0
 24 34  1  0  0  0  0
 24 35  1  0  0  0  0
 47 49  1  0  0  0  0
 47 50  1  0  0  0  0
 47 51  1  0  0  0  0
 21 27  1  0  0  0  0
 21 28  1  0  0  0  0
 37 42  1  0  0  0  0
  8 13  1  0  0  0  0
 18 26  1  0  0  0  0
 22 29  1  0  0  0  0
 46 48  1  0  0  0  0
  7 12  1  0  0  0  0
 36 41  1  0  0  0  0
 17 25  1  0  0  0  0
M  END
$$$$

  -OEChem-05262214473D

 51 50  0     1  0  0  0  0  0999 V2000
    3.4018   -1.2440   -3.0186 C   0  0  0  0  0  0  0  0  0  0  0  0
    3.2697   -2.0909   -2.1427 O   0  0  0  0  0  0  0  0  0  0  0  0
    4.6845   -1.1645   -3.7779 C   0  0  0  0  0  0  0  0  0  0  0  0
    5.4123   -0.4862   -3.3041 H   0  0  0  0  0  0  0  0  0  0  0  0
    5.1949   -2.1387   -3.8443 H   0  0  0  0  0  0  0  0  0  0  0  0
    4.5953   -0.8128   -4.8182 H   0  0  0  0  0  0  0  0  0  0  0  0
    2.4540   -0.3103   -3.4040 N   0  0  0  0  0  0  0  0  0  0  0  0
    1.1494   -0.2128   -2.8039 C   0  0  2  0  0  0  0  0  0  0  0  0
    1.3350    0.0367   -1.3130 C   0  0  0  0  0  0  0  0  0  0  0  0
    2.3625   -0.2586   -0.7063 O   0  0  0  0  0  0  0  0  0  0  0  0
    0.3331   -1.4728   -3.0467 C   0  0  0  0  0  0  0  0  0  0  0  0
    2.6924    0.3404   -4.1502 H   0  0  0  0  0  0  0  0  0  0  0  0
    0.6550    0.6514   -3.2607 H   0  0  0  0  0  0  0  0  0  0  0  0
    0.8129   -2.3494   -2.5963 H   0  0  0  0  0  0  0  0  0  0  0  0
   -0.6690   -1.3857   -2.6142 H   0  0  0  0  0  0  0  0  0  0  0  0
    0.2259   -1.6670   -4.1194 H   0  0  0  0  0  0  0  0  0  0  0  0
    0.2019    0.5893   -0.7269 N   0  0  0  0  0  0  0  0  0  0  0  0
    0.1242    0.9059    0.6756 C   0  0  2  0  0  0  0  0  0  0  0  0
    0.2405    2.4218    0.8008 C   0  0  0  0  0  0  0  0  0  0  0  0
    0.7693    2.9752    1.7627 O   0  0  0  0  0  0  0  0  0  0  0  0
    1.2302    0.2202    1.4878 C   0  0  0  0  0  0  0  0  0  0  0  0
    1.1352   -1.3183    1.5401 C   0  0  0  0  0  0  0  0  0  0  0  0
    2.3682   -1.8878    2.2474 C   0  0  0  0  0  0  0  0  0  0  0  0
    1.0053   -1.9418    0.1497 C   0  0  0  0  0  0  0  0  0  0  0  0
   -0.5975    0.8179   -1.3140 H   0  0  0  0  0  0  0  0  0  0  0  0
   -0.8696    0.5998    1.0176 H   0  0  0  0  0  0  0  0  0  0  0  0
    1.2080    0.6088    2.5156 H   0  0  0  0  0  0  0  0  0  0  0  0
    2.2099    0.5055    1.0819 H   0  0  0  0  0  0  0  0  0  0  0  0
    0.2552   -1.6047    2.1288 H   0  0  0  0  0  0  0  0  0  0  0  0
    3.2828   -1.6321    1.7018 H   0  0  0  0  0  0  0  0  0  0  0  0
    2.3121   -2.9798    2.3085 H   0  0  0  0  0  0  0  0  0  0  0  0
    2.4599   -1.4950    3.2658 H   0  0  0  0  0  0  0  0  0  0  0  0
    1.8627   -1.6856   -0.4819 H   0  0  0  0  0  0  0  0  0  0  0  0
    0.9506   -3.0337    0.2176 H   0  0  0  0  0  0  0  0  0  0  0  0
    0.0954   -1.6044   -0.3553 H   0  0  0  0  0  0  0  0  0  0  0  0
   -0.2701    3.0767   -0.3113 N   0  0  0  0  0  0  0  0  0  0  0  0
   -0.2591    4.5144   -0.4589 C   0  0  2  0  0  0  0  0  0  0  0  0
    1.0654    5.0329    0.0855 C   0  0  0  0  0  0  0  0  0  0  0  0
    1.7485    4.4087    0.8946 O   0  0  0  0  0  0  0  0  0  0  0  0
   -1.4327    5.1540    0.2665 C   0  0  0  0  0  0  0  0  0  0  0  0
   -0.6652    2.5311   -1.0714 H   0  0  0  0  0  0  0  0  0  0  0  0
   -0.3199    4.7225   -1.5327 H   0  0  0  0  0  0  0  0  0  0  0  0
   -1.3889    4.9562    1.3438 H   0  0  0  0  0  0  0  0  0  0  0  0
   -1.4391    6.2404    0.1300 H   0  0  0  0  0  0  0  0  0  0  0  0
   -2.3837    4.7579   -0.1057 H   0  0  0  0  0  0  0  0  0  0  0  0
    1.3736    6.2939   -0.4056 N   0  0  0  0  0  0  0  0  0  0  0  0
    2.5724    7.0058   -0.0286 C   0  0  0  0  0  0  0  0  0  0  0  0
    0.7589    6.7286   -1.0874 H   0  0  0  0  0  0  0  0  0  0  0  0
    2.3583    7.6547    0.8334 H   0  0  0  0  0  0  0  0  0  0  0  0
    3.3574    6.2842    0.2418 H   0  0  0  0  0  0  0  0  0  0  0  0
    2.9148    7.6205   -0.8741 H   0  0  0  0  0  0  0  0  0  0  0  0
  1  3  1  0  0  0  0
  1  7  1  0  0  0  0
  1  2  2  0  0  0  0
 37 38  1  0  0  0  0
 38 46  1  0  0  0  0
 38 39  2  0  0  0  0
  8  9  1  0  0  0  0
  9 17  1  0  0  0  0
  9 10  2  0  0  0  0
 18 19  1  0  0  0  0
 19 36  1  0  0  0  0
 19 20  2  0  0  0  0
 37 40  1  0  0  0  0
  8 11  1  0  0  0  0
 22 23  1  0  0  0  0
 22 24  1  0  0  0  0
 46 47  1  0  0  0  0
 18 21  1  0  0  0  0
 21 22  1  0  0  0  0
 36 37  1  0  0  0  0
  7  8  1  0  0  0  0
 17 18  1  0  0  0  0
  3  4  1  0  0  0  0
  3  5  1  0  0  0  0
  3  6  1  0  0  0  0
 40 43  1  0  0  0  0
 40 44  1  0  0  0  0
 40 45  1  0  0  0  0
 11 14  1  0  0  0  0
 11 15  1  0  0  0  0
 11 16  1  0  0  0  0
 23 30  1  0  0  0  0
 23 31  1  0  0  0  0
 23 32  1  0  0  0  0
 24 33  1  0  0  0  0
 24 34  1  0  0  0  0
 24 35  1  0  0  0  0
 47 49  1  0  0  0  0
 47 50  1  0  0  0  0
 47 51  1  0  0  0  0
 21 27  1  0  0  0  0
 21 28  1  0  0  0  0
 37 42  1  0  0  0  0
  8 13  1  0  0  0  0
 18 26  1  0  0  0  0
 22 29  1  0  0  0  0
 46 48  1  0  0  0  0
  7 12  1  0  0  0  0
 36 41  1  0  0  0  0
 17 25  1  0  0  0  0
M  END
$$$$

  -OEChem-05262214473D

 51 50  0     1  0  0  0  0  0999 V2000
    3.4018   -1.2440   -3.0186 C   0  0  0  0  0  0  0  0  0  0  0  0
    3.2697   -2.0909   -2.1427 O   0  0  0  0  0  0  0  0  0  0  0  0
    4.6845   -1.1645   -3.7779 C   0  0  0  0  0  0  0  0  0  0  0  0
    5.4123   -0.4862   -3.3041 H   0  0  0  0  0  0  0  0  0  0  0  0
    5.1949   -2.1387   -3.8443 H   0  0  0  0  0  0  0  0  0  0  0  0
    4.5953   -0.8128   -4.8182 H   0  0  0  0  0  0  0  0  0  0  0  0
    2.4540   -0.3103   -3.4040 N   0  0  0  0  0  0  0  0  0  0  0  0
    1.1494   -0.2128   -2.8039 C   0  0  2  0  0  0  0  0  0  0  0  0
    1.3350    0.0367   -1.3130 C   0  0  0  0  0  0  0  0  0  0  0  0
    2.3625   -0.2586   -0.7063 O   0  0  0  0  0  0  0  0  0  0  0  0
    0.3331   -1.4728   -3.0467 C   0  0  0  0  0  0  0  0  0  0  0  0
    2.6924    0.3404   -4.1502 H   0  0  0  0  0  0  0  0  0  0  0  0
    0.6550    0.6514   -3.2607 H   0  0  0  0  0  0  0  0  0  0  0  0
    0.8129   -2.3494   -2.5963 H   0  0  0  0  0  0  0  0  0  0  0  0
   -0.6690   -1.3857   -2.6142 H   0  0  0  0  0  0  0  0  0  0  0  0
    0.2259   -1.6670   -4.1194 H   0  0  0  0  0  0  0  0  0  0  0  0
    0.2019    0.5893   -0.7269 N   0  0  0  0  0  0  0  0  0  0  0  0
    0.1242    0.9059    0.6756 C   0  0  2  0  0  0  0  0  0  0  0  0
    0.2405    2.4218    0.8008 C   0  0  0  0  0  0  0  0  0  0  0  0
    0.9887    2.9712    1.6067 O   0  0  0  0  0  0  0  0  0  0  0  0
    1.2302    0.2202    1.4878 C   0  0  0  0  0  0  0  0  0  0  0  0
    1.1352   -1.3183    1.5401 C   0  0  0  0  0  0  0  0  0  0  0  0
    2.3682   -1.8878    2.2474 C   0  0  0  0  0  0  0  0  0  0  0  0
    1.0053   -1.9418    0.1497 C   0  0  0  0  0  0  0  0  0  0  0  0
   -0.5975    0.8179   -1.3140 H   0  0  0  0  0  0  0  0  0  0  0  0
   -0.8696    0.5998    1.0176 H   0  0  0  0  0  0  0  0  0  0  0  0
    1.2080    0.6088    2.5156 H   0  0  0  0  0  0  0  0  0  0  0  0
    2.2099    0.5055    1.0819 H   0  0  0  0  0  0  0  0  0  0  0  0
    0.2552   -1.6047    2.1288 H   0  0  0  0  0  0  0  0  0  0  0  0
    3.2828   -1.6321    1.7018 H   0  0  0  0  0  0  0  0  0  0  0  0
    2.3121   -2.9798    2.3085 H   0  0  0  0  0  0  0  0  0  0  0  0
    2.4599   -1.4950    3.2658 H   0  0  0  0  0  0  0  0  0  0  0  0
    1.8627   -1.6856   -0.4819 H   0  0  0  0  0  0  0  0  0  0  0  0
    0.9506   -3.0337    0.2176 H   0  0  0  0  0  0  0  0  0  0  0  0
    0.0954   -1.6044   -0.3553 H   0  0  0  0  0  0  0  0  0  0  0  0
   -0.5513    3.0831   -0.1277 N   0  0  0  0  0  0  0  0  0  0  0  0
   -0.6055    4.5229   -0.2407 C   0  0  2  0  0  0  0  0  0  0  0  0
    0.8045    5.0636   -0.0435 C   0  0  0  0  0  0  0  0  0  0  0  0
    1.6845    4.4422    0.5487 O   0  0  0  0  0  0  0  0  0  0  0  0
   -1.5646    5.1220    0.7761 C   0  0  0  0  0  0  0  0  0  0  0  0
   -1.1185    2.5412   -0.7729 H   0  0  0  0  0  0  0  0  0  0  0  0
   -0.9445    4.7478   -1.2579 H   0  0  0  0  0  0  0  0  0  0  0  0
   -1.2413    4.9071    1.8012 H   0  0  0  0  0  0  0  0  0  0  0  0
   -1.6262    6.2101    0.6703 H   0  0  0  0  0  0  0  0  0  0  0  0
   -2.5717    4.7097    0.6520 H   0  0  0  0  0  0  0  0  0  0  0  0
    0.9524    6.3397   -0.5688 N   0  0  0  0  0  0  0  0  0  0  0  0
    2.1943    7.0734   -0.4966 C   0  0  0  0  0  0  0  0  0  0  0  0
    0.1749    6.7711   -1.0598 H   0  0  0  0  0  0  0  0  0  0  0  0
    2.1973    7.7024    0.4059 H   0  0  0  0  0  0  0  0  0  0  0  0
    3.0358    6.3663   -0.4533 H   0  0  0  0  0  0  0  0  0  0  0  0
    2.2960    7.7104   -1.3876 H   0  0  0  0  0  0  0  0  0  0  0  0
  1  3  1  0  0  0  0
  1  7  1  0  0  0  0
  1  2  2  0  0  0  0
 37 38  1  0  0  0  0
 38 46  1  0  0  0  0
 38 39  2  0  0  0  0
  8  9  1  0  0  0  0
  9 17  1  0  0  0  0
  9 10  2  0  0  0  0
 18 19  1  0  0  0  0
 19 36  1  0  0  0  0
 19 20  2  0  0  0  0
 37 40  1  0  0  0  0
  8 11  1  0  0  0  0
 22 23  1  0  0  0  0
 22 24  1  0  0  0  0
 46 47  1  0  0  0  0
 18 21  1  0  0  0  0
 21 22  1  0  0  0  0
 36 37  1  0  0  0  0
  7  8  1  0  0  0  0
 17 18  1  0  0  0  0
  3  4  1  0  0  0  0
  3  5  1  0  0  0  0
  3  6  1  0  0  0  0
 40 43  1  0  0  0  0
 40 44  1  0  0  0  0
 40 45  1  0  0  0  0
 11 14  1  0  0  0  0
 11 15  1  0  0  0  0
 11 16  1  0  0  0  0
 23 30  1  0  0  0  0
 23 31  1  0  0  0  0
 23 32  1  0  0  0  0
 24 33  1  0  0  0  0
 24 34  1  0  0  0  0
 24 35  1  0  0  0  0
 47 49  1  0  0  0  0
 47 50  1  0  0  0  0
 47 51  1  0  0  0  0
 21 27  1  0  0  0  0
 21 28  1  0  0  0  0
 37 42  1  0  0  0  0
  8 13  1  0  0  0  0
 18 26  1  0  0  0  0
 22 29  1  0  0  0  0
 46 48  1  0  0  0  0
  7 12  1  0  0  0  0
 36 41  1  0  0  0  0
 17 25  1  0  0  0  0
M  END
$$$$

  -OEChem-05262214473D

 51 50  0     1  0  0  0  0  0999 V2000
    3.4018   -1.2440   -3.0186 C   0  0  0  0  0  0  0  0  0  0  0  0
    3.2697   -2.0909   -2.1427 O   0  0  0  0  0  0  0  0  0  0  0  0
    4.6845   -1.1645   -3.7779 C   0  0  0  0  0  0  0  0  0  0  0  0
    5.4123   -0.4862   -3.3041 H   0  0  0  0  0  0  0  0  0  0  0  0
    5.1949   -2.1387   -3.8443 H   0  0  0  0  0  0  0  0  0  0  0  0
    4.5953   -0.8128   -4.8182 H   0  0  0  0  0  0  0  0  0  0  0  0
    2.4540   -0.3103   -3.4040 N   0  0  0  0  0  0  0  0  0  0  0  0
    1.1494   -0.2128   -2.8039 C   0  0  2  0  0  0  0  0  0  0  0  0
    1.3350    0.0367   -1.3130 C   0  0  0  0  0  0  0  0  0  0  0  0
    2.3625   -0.2586   -0.7063 O   0  0  0  0  0  0  0  0  0  0  0  0
    0.3331   -1.4728   -3.0467 C   0  0  0  0  0  0  0  0  0  0  0  0
    2.6924    0.3404   -4.1502 H   0  0  0  0  0  0  0  0  0  0  0  0
    0.6550    0.6514   -3.2607 H   0  0  0  0  0  0  0  0  0  0  0  0
    0.8129   -2.3494   -2.5963 H   0  0  0  0  0  0  0  0  0  0  0  0
   -0.6690   -1.3857   -2.6142 H   0  0  0  0  0  0  0  0  0  0  0  0
    0.2259   -1.6670   -4.1194 H   0  0  0  0  0  0  0  0  0  0  0  0
    0.2019    0.5893   -0.7269 N   0  0  0  0  0  0  0  0  0  0  0  0
    0.1242    0.9059    0.6756 C   0  0  2  0  0  0  0  0  0  0  0  0
    0.2405    2.4218    0.8008 C   0  0  0  0  0  0  0  0  0  0  0  0
    1.1605    2.9752    1.3996 O   0  0  0  0  0  0  0  0  0  0  0  0
    1.2302    0.2202    1.4878 C   0  0  0  0  0  0  0  0  0  0  0  0
    1.1352   -1.3183    1.5401 C   0  0  0  0  0  0  0  0  0  0  0  0
    2.3682   -1.8878    2.2474 C   0  0  0  0  0  0  0  0  0  0  0  0
    1.0053   -1.9418    0.1497 C   0  0  0  0  0  0  0  0  0  0  0  0
   -0.5975    0.8179   -1.3140 H   0  0  0  0  0  0  0  0  0  0  0  0
   -0.8696    0.5998    1.0176 H   0  0  0  0  0  0  0  0  0  0  0  0
    1.2080    0.6088    2.5156 H   0  0  0  0  0  0  0  0  0  0  0  0
    2.2099    0.5055    1.0819 H   0  0  0  0  0  0  0  0  0  0  0  0
    0.2552   -1.6047    2.1288 H   0  0  0  0  0  0  0  0  0  0  0  0
    3.2828   -1.6321    1.7018 H   0  0  0  0  0  0  0  0  0  0  0  0
    2.3121   -2.9798    2.3085 H   0  0  0  0  0  0  0  0  0  0  0  0
    2.4599   -1.4950    3.2658 H   0  0  0  0  0  0  0  0  0  0  0  0
    1.8627   -1.6856   -0.4819 H   0  0  0  0  0  0  0  0  0  0  0  0
    0.9506   -3.0337    0.2176 H   0  0  0  0  0  0  0  0  0  0  0  0
    0.0954   -1.6044   -0.3553 H   0  0  0  0  0  0  0  0  0  0  0  0
   -0.7758    3.0797    0.1220 N   0  0  0  0  0  0  0  0  0  0  0  0
   -0.8842    4.5195    0.0592 C   0  0  2  0  0  0  0  0  0  0  0  0
    0.5188    5.0902   -0.1004 C   0  0  0  0  0  0  0  0  0  0  0  0
    1.5329    4.4800    0.2316 O   0  0  0  0  0  0  0  0  0  0  0  0
   -1.5602    5.0783    1.3016 C   0  0  0  0  0  0  0  0  0  0  0  0
   -1.4798    2.5354   -0.3677 H   0  0  0  0  0  0  0  0  0  0  0  0
   -1.4777    4.7534   -0.8313 H   0  0  0  0  0  0  0  0  0  0  0  0
   -0.9800    4.8537    2.2041 H   0  0  0  0  0  0  0  0  0  0  0  0
   -1.6672    6.1663    1.2397 H   0  0  0  0  0  0  0  0  0  0  0  0
   -2.5575    4.6443    1.4312 H   0  0  0  0  0  0  0  0  0  0  0  0
    0.5026    6.3782   -0.6172 N   0  0  0  0  0  0  0  0  0  0  0  0
    1.7073    7.1400   -0.8500 C   0  0  0  0  0  0  0  0  0  0  0  0
   -0.3830    6.7992   -0.8820 H   0  0  0  0  0  0  0  0  0  0  0  0
    1.9307    7.7534    0.0353 H   0  0  0  0  0  0  0  0  0  0  0  0
    2.5447    6.4525   -1.0404 H   0  0  0  0  0  0  0  0  0  0  0  0
    1.5644    7.7943   -1.7227 H   0  0  0  0  0  0  0  0  0  0  0  0
  1  3  1  0  0  0  0
  1  7  1  0  0  0  0
  1  2  2  0  0  0  0
 37 38  1  0  0  0  0
 38 46  1  0  0  0  0
 38 39  2  0  0  0  0
  8  9  1  0  0  0  0
  9 17  1  0  0  0  0
  9 10  2  0  0  0  0
 18 19  1  0  0  0  0
 19 36  1  0  0  0  0
 19 20  2  0  0  0  0
 37 40  1  0  0  0  0
  8 11  1  0  0  0  0
 22 23  1  0  0  0  0
 22 24  1  0  0  0  0
 46 47  1  0  0  0  0
 18 21  1  0  0  0  0
 21 22  1  0  0  0  0
 36 37  1  0  0  0  0
  7  8  1  0  0  0  0
 17 18  1  0  0  0  0
  3  4  1  0  0  0  0
  3  5  1  0  0  0  0
  3  6  1  0  0  0  0
 40 43  1  0  0  0  0
 40 44  1  0  0  0  0
 40 45  1  0  0  0  0
 11 14  1  0  0  0  0
 11 15  1  0  0  0  0
 11 16  1  0  0  0  0
 23 30  1  0  0  0  0
 23 31  1  0  0  0  0
 23 32  1  0  0  0  0
 24 33  1  0  0  0  0
 24 34  1  0  0  0  0
 24 35  1  0  0  0  0
 47 49  1  0  0  0  0
 47 50  1  0  0  0  0
 47 51  1  0  0  0  0
 21 27  1  0  0  0  0
 21 28  1  0  0  0  0
 37 42  1  0  0  0  0
  8 13  1  0  0  0  0
 18 26  1  0  0  0  0
 22 29  1  0  0  0  0
 46 48  1  0  0  0  0
  7 12  1  0  0  0  0
 36 41  1  0  0  0  0
 17 25  1  0  0  0  0
M  END
$$$$

  -OEChem-05262214473D

 51 50  0     1  0  0  0  0  0999 V2000
    3.4018   -1.2440   -3.0186 C   0  0  0  0  0  0  0  0  0  0  0  0
    3.2697   -2.0909   -2.1427 O   0  0  0  0  0  0  0  0  0  0  0  0
    4.6845   -1.1645   -3.7779 C   0  0  0  0  0  0  0  0  0  0  0  0
    5.4123   -0.4862   -3.3041 H   0  0  0  0  0  0  0  0  0  0  0  0
    5.1949   -2.1387   -3.8443 H   0  0  0  0  0  0  0  0  0  0  0  0
    4.5953   -0.8128   -4.8182 H   0  0  0  0  0  0  0  0  0  0  0  0
    2.4540   -0.3103   -3.4040 N   0  0  0  0  0  0  0  0  0  0  0  0
    1.1494   -0.2128   -2.8039 C   0  0  2  0  0  0  0  0  0  0  0  0
    1.3350    0.0367   -1.3130 C   0  0  0  0  0  0  0  0  0  0  0  0
    2.3625   -0.2586   -0.7063 O   0  0  0  0  0  0  0  0  0  0  0  0
    0.3331   -1.4728   -3.0467 C   0  0  0  0  0  0  0  0  0  0  0  0
    2.6924    0.3404   -4.1502 H   0  0  0  0  0  0  0  0  0  0  0  0
    0.6550    0.6514   -3.2607 H   0  0  0  0  0  0  0  0  0  0  0  0
    0.8129   -2.3494   -2.5963 H   0  0  0  0  0  0  0  0  0  0  0  0
   -0.6690   -1.3857   -2.6142 H   0  0  0  0  0  0  0  0  0  0  0  0
    0.2259   -1.6670   -4.1194 H   0  0  0  0  0  0  0  0  0  0  0  0
    0.2019    0.5893   -0.7269 N   0  0  0  0  0  0  0  0  0  0  0  0
    0.1242    0.9059    0.6756 C   0  0  2  0  0  0  0  0  0  0  0  0
    0.2405    2.4218    0.8008 C   0  0  0  0  0  0  0  0  0  0  0  0
    1.2732    2.9867    1.1553 O   0  0  0  0  0  0  0  0  0  0  0  0
    1.2302    0.2202    1.4878 C   0  0  0  0  0  0  0  0  0  0  0  0
    1.1352   -1.3183    1.5401 C   0  0  0  0  0  0  0  0  0  0  0  0
    2.3682   -1.8878    2.2474 C   0  0  0  0  0  0  0  0  0  0  0  0
    1.0053   -1.9418    0.1497 C   0  0  0  0  0  0  0  0  0  0  0  0
   -0.5975    0.8179   -1.3140 H   0  0  0  0  0  0  0  0  0  0  0  0
   -0.8696    0.5998    1.0176 H   0  0  0  0  0  0  0  0  0  0  0  0
    1.2080    0.6088    2.5156 H   0  0  0  0  0  0  0  0  0  0  0  0
    2.2099    0.5055    1.0819 H   0  0  0  0  0  0  0  0  0  0  0  0
    0.2552   -1.6047    2.1288 H   0  0  0  0  0  0  0  0  0  0  0  0
    3.2828   -1.6321    1.7018 H   0  0  0  0  0  0  0  0  0  0  0  0
    2.3121   -2.9798    2.3085 H   0  0  0  0  0  0  0  0  0  0  0  0
    2.4599   -1.4950    3.2658 H   0  0  0  0  0  0  0  0  0  0  0  0
    1.8627   -1.6856   -0.4819 H   0  0  0  0  0  0  0  0  0  0  0  0
    0.9506   -3.0337    0.2176 H   0  0  0  0  0  0  0  0  0  0  0  0
    0.0954   -1.6044   -0.3553 H   0  0  0  0  0  0  0  0  0  0  0  0
   -0.9284    3.0667    0.4210 N   0  0  0  0  0  0  0  0  0  0  0  0
   -1.0761    4.5044    0.4206 C   0  0  2  0  0  0  0  0  0  0  0  0
    0.2276    5.1110   -0.0813 C   0  0  0  0  0  0  0  0  0  0  0  0
    1.3042    4.5196   -0.0349 O   0  0  0  0  0  0  0  0  0  0  0  0
   -1.4199    5.0257    1.8072 C   0  0  0  0  0  0  0  0  0  0  0  0
   -1.7244    2.5142    0.1165 H   0  0  0  0  0  0  0  0  0  0  0  0
   -1.8832    4.7392   -0.2820 H   0  0  0  0  0  0  0  0  0  0  0  0
   -0.6228    4.7998    2.5250 H   0  0  0  0  0  0  0  0  0  0  0  0
   -1.5595    6.1117    1.7994 H   0  0  0  0  0  0  0  0  0  0  0  0
   -2.3420    4.5659    2.1789 H   0  0  0  0  0  0  0  0  0  0  0  0
    0.0549    6.4068   -0.5474 N   0  0  0  0  0  0  0  0  0  0  0  0
    1.1446    7.2009   -1.0648 C   0  0  0  0  0  0  0  0  0  0  0  0
   -0.8768    6.8110   -0.5662 H   0  0  0  0  0  0  0  0  0  0  0  0
    1.5769    7.8044   -0.2531 H   0  0  0  0  0  0  0  0  0  0  0  0
    1.9174    6.5370   -1.4794 H   0  0  0  0  0  0  0  0  0  0  0  0
    0.7697    7.8663   -1.8565 H   0  0  0  0  0  0  0  0  0  0  0  0
  1  3  1  0  0  0  0
  1  7  1  0  0  0  0
  1  2  2  0  0  0  0
 37 38  1  0  0  0  0
 38 46  1  0  0  0  0
 38 39  2  0  0  0  0
  8  9  1  0  0  0  0
  9 17  1  0  0  0  0
  9 10  2  0  0  0  0
 18 19  1  0  0  0  0
 19 36  1  0  0  0  0
 19 20  2  0  0  0  0
 37 40  1  0  0  0  0
  8 11  1  0  0  0  0
 22 23  1  0  0  0  0
 22 24  1  0  0  0  0
 46 47  1  0  0  0  0
 18 21  1  0  0  0  0
 21 22  1  0  0  0  0
 36 37  1  0  0  0  0
  7  8  1  0  0  0  0
 17 18  1  0  0  0  0
  3  4  1  0  0  0  0
  3  5  1  0  0  0  0
  3  6  1  0  0  0  0
 40 43  1  0  0  0  0
 40 44  1  0  0  0  0
 40 45  1  0  0  0  0
 11 14  1  0  0  0  0
 11 15  1  0  0  0  0
 11 16  1  0  0  0  0
 23 30  1  0  0  0  0
 23 31  1  0  0  0  0
 23 32  1  0  0  0  0
 24 33  1  0  0  0  0
 24 34  1  0  0  0  0
 24 35  1  0  0  0  0
 47 49  1  0  0  0  0
 47 50  1  0  0  0  0
 47 51  1  0  0  0  0
 21 27  1  0  0  0  0
 21 28  1  0  0  0  0
 37 42  1  0  0  0  0
  8 13  1  0  0  0  0
 18 26  1  0  0  0  0
 22 29  1  0  0  0  0
 46 48  1  0  0  0  0
  7 12  1  0  0  0  0
 36 41  1  0  0  0  0
 17 25  1  0  0  0  0
M  END
$$$$

  -OEChem-05262214473D

 51 50  0     1  0  0  0  0  0999 V2000
    3.4018   -1.2440   -3.0186 C   0  0  0  0  0  0  0  0  0  0  0  0
    3.2697   -2.0909   -2.1427 O   0  0  0  0  0  0  0  0  0  0  0  0
    4.6845   -1.1645   -3.7779 C   0  0  0  0  0  0  0  0  0  0  0  0
    5.4123   -0.4862   -3.3041 H   0  0  0  0  0  0  0  0  0  0  0  0
    5.1949   -2.1387   -3.8443 H   0  0  0  0  0  0  0  0  0  0  0  0
    4.5953   -0.8128   -4.8182 H   0  0  0  0  0  0  0  0  0  0  0  0
    2.4540   -0.3103   -3.4040 N   0  0  0  0  0  0  0  0  0  0  0  0
    1.1494   -0.2128   -2.8039 C   0  0  2  0  0  0  0  0  0  0  0  0
    1.3350    0.0367   -1.3130 C   0  0  0  0  0  0  0  0  0  0  0  0
    2.3625   -0.2586   -0.7063 O   0  0  0  0  0  0  0  0  0  0  0  0
    0.3331   -1.4728   -3.0467 C   0  0  0  0  0  0  0  0  0  0  0  0
    2.6924    0.3404   -4.1502 H   0  0  0  0  0  0  0  0  0  0  0  0
    0.6550    0.6514   -3.2607 H   0  0  0  0  0  0  0  0  0  0  0  0
    0.8129   -2.3494   -2.5963 H   0  0  0  0  0  0  0  0  0  0  0  0
   -0.6690   -1.3857   -2.6142 H   0  0  0  0  0  0  0  0  0  0  0  0
    0.2259   -1.6670   -4.1194 H   0  0  0  0  0  0  0  0  0  0  0  0
    0.2019    0.5893   -0.7269 N   0  0  0  0  0  0  0  0  0  0  0  0
    0.1242    0.9059    0.6756 C   0  0  2  0  0  0  0  0  0  0  0  0
    0.2405    2.4218    0.8008 C   0  0  0  0  0  0  0  0  0  0  0  0
    1.3189    3.0051    0.8907 O   0  0  0  0  0  0  0  0  0  0  0  0
    1.2302    0.2202    1.4878 C   0  0  0  0  0  0  0  0  0  0  0  0
    1.1352   -1.3183    1.5401 C   0  0  0  0  0  0  0  0  0  0  0  0
    2.3682   -1.8878    2.2474 C   0  0  0  0  0  0  0  0  0  0  0  0
    1.0053   -1.9418    0.1497 C   0  0  0  0  0  0  0  0  0  0  0  0
   -0.5975    0.8179   -1.3140 H   0  0  0  0  0  0  0  0  0  0  0  0
   -0.8696    0.5998    1.0176 H   0  0  0  0  0  0  0  0  0  0  0  0
    1.2080    0.6088    2.5156 H   0  0  0  0  0  0  0  0  0  0  0  0
    2.2099    0.5055    1.0819 H   0  0  0  0  0  0  0  0  0  0  0  0
    0.2552   -1.6047    2.1288 H   0  0  0  0  0  0  0  0  0  0  0  0
    3.2828   -1.6321    1.7018 H   0  0  0  0  0  0  0  0  0  0  0  0
    2.3121   -2.9798    2.3085 H   0  0  0  0  0  0  0  0  0  0  0  0
    2.4599   -1.4950    3.2658 H   0  0  0  0  0  0  0  0  0  0  0  0
    1.8627   -1.6856   -0.4819 H   0  0  0  0  0  0  0  0  0  0  0  0
    0.9506   -3.0337    0.2176 H   0  0  0  0  0  0  0  0  0  0  0  0
    0.0954   -1.6044   -0.3553 H   0  0  0  0  0  0  0  0  0  0  0  0
   -0.9986    3.0450    0.7487 N   0  0  0  0  0  0  0  0  0  0  0  0
   -1.1683    4.4786    0.8187 C   0  0  2  0  0  0  0  0  0  0  0  0
   -0.0493    5.1245    0.0124 C   0  0  0  0  0  0  0  0  0  0  0  0
    1.0139    4.5582   -0.2327 O   0  0  0  0  0  0  0  0  0  0  0  0
   -1.1532    4.9680    2.2585 C   0  0  0  0  0  0  0  0  0  0  0  0
   -1.8357    2.4789    0.6467 H   0  0  0  0  0  0  0  0  0  0  0  0
   -2.1332    4.7059    0.3526 H   0  0  0  0  0  0  0  0  0  0  0  0
   -0.1942    4.7490    2.7420 H   0  0  0  0  0  0  0  0  0  0  0  0
   -1.3104    6.0503    2.3113 H   0  0  0  0  0  0  0  0  0  0  0  0
   -1.9398    4.4801    2.8442 H   0  0  0  0  0  0  0  0  0  0  0  0
   -0.3603    6.4235   -0.3644 N   0  0  0  0  0  0  0  0  0  0  0  0
    0.5445    7.2521   -1.1264 C   0  0  0  0  0  0  0  0  0  0  0  0
   -1.2728    6.8057   -0.1340 H   0  0  0  0  0  0  0  0  0  0  0  0
    1.1599    7.8518   -0.4396 H   0  0  0  0  0  0  0  0  0  0  0  0
    1.1969    6.6138   -1.7405 H   0  0  0  0  0  0  0  0  0  0  0  0
   -0.0339    7.9216   -1.7799 H   0  0  0  0  0  0  0  0  0  0  0  0
  1  3  1  0  0  0  0
  1  7  1  0  0  0  0
  1  2  2  0  0  0  0
 37 38  1  0  0  0  0
 38 46  1  0  0  0  0
 38 39  2  0  0  0  0
  8  9  1  0  0  0  0
  9 17  1  0  0  0  0
  9 10  2  0  0  0  0
 18 19  1  0  0  0  0
 19 36  1  0  0  0  0
 19 20  2  0  0  0  0
 37 40  1  0  0  0  0
  8 11  1  0  0  0  0
 22 23  1  0  0  0  0
 22 24  1  0  0  0  0
 46 47  1  0  0  0  0
 18 21  1  0  0  0  0
 21 22  1  0  0  0  0
 36 37  1  0  0  0  0
  7  8  1  0  0  0  0
 17 18  1  0  0  0  0
  3  4  1  0  0  0  0
  3  5  1  0  0  0  0
  3  6  1  0  0  0  0
 40 43  1  0  0  0  0
 40 44  1  0  0  0  0
 40 45  1  0  0  0  0
 11 14  1  0  0  0  0
 11 15  1  0  0  0  0
 11 16  1  0  0  0  0
 23 30  1  0  0  0  0
 23 31  1  0  0  0  0
 23 32  1  0  0  0  0
 24 33  1  0  0  0  0
 24 34  1  0  0  0  0
 24 35  1  0  0  0  0
 47 49  1  0  0  0  0
 47 50  1  0  0  0  0
 47 51  1  0  0  0  0
 21 27  1  0  0  0  0
 21 28  1  0  0  0  0
 37 42  1  0  0  0  0
  8 13  1  0  0  0  0
 18 26  1  0  0  0  0
 22 29  1  0  0  0  0
 46 48  1  0  0  0  0
  7 12  1  0  0  0  0
 36 41  1  0  0  0  0
 17 25  1  0  0  0  0
M  END
$$$$

  -OEChem-05262214473D

 51 50  0     1  0  0  0  0  0999 V2000
    3.4018   -1.2440   -3.0186 C   0  0  0  0  0  0  0  0  0  0  0  0
    3.2697   -2.0909   -2.1427 O   0  0  0  0  0  0  0  0  0  0  0  0
    4.6845   -1.1645   -3.7779 C   0  0  0  0  0  0  0  0  0  0  0  0
    5.4123   -0.4862   -3.3041 H   0  0  0  0  0  0  0  0  0  0  0  0
    5.1949   -2.1387   -3.8443 H   0  0  0  0  0  0  0  0  0  0  0  0
    4.5953   -0.8128   -4.8182 H   0  0  0  0  0  0  0  0  0  0  0  0
    2.4540   -0.3103   -3.4040 N   0  0  0  0  0  0  0  0  0  0  0  0
    1.1494   -0.2128   -2.8039 C   0  0  2  0  0  0  0  0  0  0  0  0
    1.3350    0.0367   -1.3130 C   0  0  0  0  0  0  0  0  0  0  0  0
    2.3625   -0.2586   -0.7063 O   0  0  0  0  0  0  0  0  0  0  0  0
    0.3331   -1.4728   -3.0467 C   0  0  0  0  0  0  0  0  0  0  0  0
    2.6924    0.3404   -4.1502 H   0  0  0  0  0  0  0  0  0  0  0  0
    0.6550    0.6514   -3.2607 H   0  0  0  0  0  0  0  0  0  0  0  0
    0.8129   -2.3494   -2.5963 H   0  0  0  0  0  0  0  0  0  0  0  0
   -0.6690   -1.3857   -2.6142 H   0  0  0  0  0  0  0  0  0  0  0  0
    0.2259   -1.6670   -4.1194 H   0  0  0  0  0  0  0  0  0  0  0  0
    0.2019    0.5893   -0.7269 N   0  0  0  0  0  0  0  0  0  0  0  0
    0.1242    0.9059    0.6756 C   0  0  2  0  0  0  0  0  0  0  0  0
    0.2405    2.4218    0.8008 C   0  0  0  0  0  0  0  0  0  0  0  0
    1.2946    3.0290    0.6237 O   0  0  0  0  0  0  0  0  0  0  0  0
    1.2302    0.2202    1.4878 C   0  0  0  0  0  0  0  0  0  0  0  0
    1.1352   -1.3183    1.5401 C   0  0  0  0  0  0  0  0  0  0  0  0
    2.3682   -1.8878    2.2474 C   0  0  0  0  0  0  0  0  0  0  0  0
    1.0053   -1.9418    0.1497 C   0  0  0  0  0  0  0  0  0  0  0  0
   -0.5975    0.8179   -1.3140 H   0  0  0  0  0  0  0  0  0  0  0  0
   -0.8696    0.5998    1.0176 H   0  0  0  0  0  0  0  0  0  0  0  0
    1.2080    0.6088    2.5156 H   0  0  0  0  0  0  0  0  0  0  0  0
    2.2099    0.5055    1.0819 H   0  0  0  0  0  0  0  0  0  0  0  0
    0.2552   -1.6047    2.1288 H   0  0  0  0  0  0  0  0  0  0  0  0
    3.2828   -1.6321    1.7018 H   0  0  0  0  0  0  0  0  0  0  0  0
    2.3121   -2.9798    2.3085 H   0  0  0  0  0  0  0  0  0  0  0  0
    2.4599   -1.4950    3.2658 H   0  0  0  0  0  0  0  0  0  0  0  0
    1.8627   -1.6856   -0.4819 H   0  0  0  0  0  0  0  0  0  0  0  0
    0.9506   -3.0337    0.2176 H   0  0  0  0  0  0  0  0  0  0  0  0
    0.0954   -1.6044   -0.3553 H   0  0  0  0  0  0  0  0  0  0  0  0
   -0.9817    3.0161    1.0830 N   0  0  0  0  0  0  0  0  0  0  0  0
   -1.1544    4.4438    1.2264 C   0  0  2  0  0  0  0  0  0  0  0  0
   -0.2928    5.1298    0.1744 C   0  0  0  0  0  0  0  0  0  0  0  0
    0.6818    4.5933   -0.3484 O   0  0  0  0  0  0  0  0  0  0  0  0
   -0.7783    4.9089    2.6246 C   0  0  0  0  0  0  0  0  0  0  0  0
   -1.8061    2.4321    1.1867 H   0  0  0  0  0  0  0  0  0  0  0  0
   -2.2108    4.6560    1.0291 H   0  0  0  0  0  0  0  0  0  0  0  0
    0.2768    4.7047    2.8404 H   0  0  0  0  0  0  0  0  0  0  0  0
   -0.9368    5.9862    2.7404 H   0  0  0  0  0  0  0  0  0  0  0  0
   -1.3784    4.3926    3.3817 H   0  0  0  0  0  0  0  0  0  0  0  0
   -0.7146    6.4272   -0.0804 N   0  0  0  0  0  0  0  0  0  0  0  0
   -0.0520    7.2899   -1.0306 C   0  0  0  0  0  0  0  0  0  0  0  0
   -1.5440    6.7836    0.3852 H   0  0  0  0  0  0  0  0  0  0  0  0
    0.7081    7.8925   -0.5116 H   0  0  0  0  0  0  0  0  0  0  0  0
    0.4320    6.6779   -1.8059 H   0  0  0  0  0  0  0  0  0  0  0  0
   -0.7916    7.9565   -1.4982 H   0  0  0  0  0  0  0  0  0  0  0  0
  1  3  1  0  0  0  0
  1  7  1  0  0  0  0
  1  2  2  0  0  0  0
 37 38  1  0  0  0  0
 38 46  1  0  0  0  0
 38 39  2  0  0  0  0
  8  9  1  0  0  0  0
  9 17  1  0  0  0  0
  9 10  2  0  0  0  0
 18 19  1  0  0  0  0
 19 36  1  0  0  0  0
 19 20  2  0  0  0  0
 37 40  1  0  0  0  0
  8 11  1  0  0  0  0
 22 23  1  0  0  0  0
 22 24  1  0  0  0  0
 46 47  1  0  0  0  0
 18 21  1  0  0  0  0
 21 22  1  0  0  0  0
 36 37  1  0  0  0  0
  7  8  1  0  0  0  0
 17 18  1  0  0  0  0
  3  4  1  0  0  0  0
  3  5  1  0  0  0  0
  3  6  1  0  0  0  0
 40 43  1  0  0  0  0
 40 44  1  0  0  0  0
 40 45  1  0  0  0  0
 11 14  1  0  0  0  0
 11 15  1  0  0  0  0
 11 16  1  0  0  0  0
 23 30  1  0  0  0  0
 23 31  1  0  0  0  0
 23 32  1  0  0  0  0
 24 33  1  0  0  0  0
 24 34  1  0  0  0  0
 24 35  1  0  0  0  0
 47 49  1  0  0  0  0
 47 50  1  0  0  0  0
 47 51  1  0  0  0  0
 21 27  1  0  0  0  0
 21 28  1  0  0  0  0
 37 42  1  0  0  0  0
  8 13  1  0  0  0  0
 18 26  1  0  0  0  0
 22 29  1  0  0  0  0
 46 48  1  0  0  0  0
  7 12  1  0  0  0  0
 36 41  1  0  0  0  0
 17 25  1  0  0  0  0
M  END
$$$$

  -OEChem-05262214473D

 51 50  0     1  0  0  0  0  0999 V2000
    3.4018   -1.2440   -3.0186 C   0  0  0  0  0  0  0  0  0  0  0  0
    3.2697   -2.0909   -2.1427 O   0  0  0  0  0  0  0  0  0  0  0  0
    4.6845   -1.1645   -3.7779 C   0  0  0  0  0  0  0  0  0  0  0  0
    5.4123   -0.4862   -3.3041 H   0  0  0  0  0  0  0  0  0  0  0  0
    5.1949   -2.1387   -3.8443 H   0  0  0  0  0  0  0  0  0  0  0  0
    4.5953   -0.8128   -4.8182 H   0  0  0  0  0  0  0  0  0  0  0  0
    2.4540   -0.3103   -3.4040 N   0  0  0  0  0  0  0  0  0  0  0  0
    1.1494   -0.2128   -2.8039 C   0  0  2  0  0  0  0  0  0  0  0  0
    1.3350    0.0367   -1.3130 C   0  0  0  0  0  0  0  0  0  0  0  0
    2.3625   -0.2586   -0.7063 O   0  0  0  0  0  0  0  0  0  0  0  0
    0.3331   -1.4728   -3.0467 C   0  0  0  0  0  0  0  0  0  0  0  0
    2.6924    0.3404   -4.1502 H   0  0  0  0  0  0  0  0  0  0  0  0
    0.6550    0.6514   -3.2607 H   0  0  0  0  0  0  0  0  0  0  0  0
    0.8129   -2.3494   -2.5963 H   0  0  0  0  0  0  0  0  0  0  0  0
   -0.6690   -1.3857   -2.6142 H   0  0  0  0  0  0  0  0  0  0  0  0
    0.2259   -1.6670   -4.1194 H   0  0  0  0  0  0  0  0  0  0  0  0
    0.2019    0.5893   -0.7269 N   0  0  0  0  0  0  0  0  0  0  0  0
    0.1242    0.9059    0.6756 C   0  0  2  0  0  0  0  0  0  0  0  0
    0.2405    2.4218    0.8008 C   0  0  0  0  0  0  0  0  0  0  0  0
    1.2019    3.0569    0.3725 O   0  0  0  0  0  0  0  0  0  0  0  0
    1.2302    0.2202    1.4878 C   0  0  0  0  0  0  0  0  0  0  0  0
    1.1352   -1.3183    1.5401 C   0  0  0  0  0  0  0  0  0  0  0  0
    2.3682   -1.8878    2.2474 C   0  0  0  0  0  0  0  0  0  0  0  0
    1.0053   -1.9418    0.1497 C   0  0  0  0  0  0  0  0  0  0  0  0
   -0.5975    0.8179   -1.3140 H   0  0  0  0  0  0  0  0  0  0  0  0
   -0.8696    0.5998    1.0176 H   0  0  0  0  0  0  0  0  0  0  0  0
    1.2080    0.6088    2.5156 H   0  0  0  0  0  0  0  0  0  0  0  0
    2.2099    0.5055    1.0819 H   0  0  0  0  0  0  0  0  0  0  0  0
    0.2552   -1.6047    2.1288 H   0  0  0  0  0  0  0  0  0  0  0  0
    3.2828   -1.6321    1.7018 H   0  0  0  0  0  0  0  0  0  0  0  0
    2.3121   -2.9798    2.3085 H   0  0  0  0  0  0  0  0  0  0  0  0
    2.4599   -1.4950    3.2658 H   0  0  0  0  0  0  0  0  0  0  0  0
    1.8627   -1.6856   -0.4819 H   0  0  0  0  0  0  0  0  0  0  0  0
    0.9506   -3.0337    0.2176 H   0  0  0  0  0  0  0  0  0  0  0  0
    0.0954   -1.6044   -0.3553 H   0  0  0  0  0  0  0  0  0  0  0  0
   -0.8787    2.9820    1.4009 N   0  0  0  0  0  0  0  0  0  0  0  0
   -1.0353    4.4025    1.6160 C   0  0  2  0  0  0  0  0  0  0  0  0
   -0.4866    5.1266    0.3937 C   0  0  0  0  0  0  0  0  0  0  0  0
    0.3305    4.6224   -0.3740 O   0  0  0  0  0  0  0  0  0  0  0  0
   -0.3208    4.8527    2.8807 C   0  0  0  0  0  0  0  0  0  0  0  0
   -1.6376    2.3767    1.6998 H   0  0  0  0  0  0  0  0  0  0  0  0
   -2.1107    4.5927    1.7017 H   0  0  0  0  0  0  0  0  0  0  0  0
    0.7579    4.6700    2.8135 H   0  0  0  0  0  0  0  0  0  0  0  0
   -0.4642    5.9237    3.0576 H   0  0  0  0  0  0  0  0  0  0  0  0
   -0.6960    4.3094    3.7547 H   0  0  0  0  0  0  0  0  0  0  0  0
   -0.9838    6.4177    0.2850 N   0  0  0  0  0  0  0  0  0  0  0  0
   -0.6044    7.3119   -0.7838 C   0  0  0  0  0  0  0  0  0  0  0  0
   -1.6719    6.7463    0.9561 H   0  0  0  0  0  0  0  0  0  0  0  0
    0.2523    7.9235   -0.4642 H   0  0  0  0  0  0  0  0  0  0  0  0
   -0.3249    6.7249   -1.6710 H   0  0  0  0  0  0  0  0  0  0  0  0
   -1.4517    7.9685   -1.0306 H   0  0  0  0  0  0  0  0  0  0  0  0
  1  3  1  0  0  0  0
  1  7  1  0  0  0  0
  1  2  2  0  0  0  0
 37 38  1  0  0  0  0
 38 46  1  0  0  0  0
 38 39  2  0  0  0  0
  8  9  1  0  0  0  0
  9 17  1  0  0  0  0
  9 10  2  0  0  0  0
 18 19  1  0  0  0  0
 19 36  1  0  0  0  0
 19 20  2  0  0  0  0
 37 40  1  0  0  0  0
  8 11  1  0  0  0  0
 22 23  1  0  0  0  0
 22 24  1  0  0  0  0
 46 47  1  0  0  0  0
 18 21  1  0  0  0  0
 21 22  1  0  0  0  0
 36 37  1  0  0  0  0
  7  8  1  0  0  0  0
 17 18  1  0  0  0  0
  3  4  1  0  0  0  0
  3  5  1  0  0  0  0
  3  6  1  0  0  0  0
 40 43  1  0  0  0  0
 40 44  1  0  0  0  0
 40 45  1  0  0  0  0
 11 14  1  0  0  0  0
 11 15  1  0  0  0  0
 11 16  1  0  0  0  0
 23 30  1  0  0  0  0
 23 31  1  0  0  0  0
 23 32  1  0  0  0  0
 24 33  1  0  0  0  0
 24 34  1  0  0  0  0
 24 35  1  0  0  0  0
 47 49  1  0  0  0  0
 47 50  1  0  0  0  0
 47 51  1  0  0  0  0
 21 27  1  0  0  0  0
 21 28  1  0  0  0  0
 37 42  1  0  0  0  0
  8 13  1  0  0  0  0
 18 26  1  0  0  0  0
 22 29  1  0  0  0  0
 46 48  1  0  0  0  0
  7 12  1  0  0  0  0
 36 41  1  0  0  0  0
 17 25  1  0  0  0  0
M  END
$$$$

  -OEChem-05262214473D

 51 50  0     1  0  0  0  0  0999 V2000
    3.4018   -1.2440   -3.0186 C   0  0  0  0  0  0  0  0  0  0  0  0
    3.2697   -2.0909   -2.1427 O   0  0  0  0  0  0  0  0  0  0  0  0
    4.6845   -1.1645   -3.7779 C   0  0  0  0  0  0  0  0  0  0  0  0
    5.4123   -0.4862   -3.3041 H   0  0  0  0  0  0  0  0  0  0  0  0
    5.1949   -2.1387   -3.8443 H   0  0  0  0  0  0  0  0  0  0  0  0
    4.5953   -0.8128   -4.8182 H   0  0  0  0  0  0  0  0  0  0  0  0
    2.4540   -0.3103   -3.4040 N   0  0  0  0  0  0  0  0  0  0  0  0
    1.1494   -0.2128   -2.8039 C   0  0  2  0  0  0  0  0  0  0  0  0
    1.3350    0.0367   -1.3130 C   0  0  0  0  0  0  0  0  0  0  0  0
    2.3625   -0.2586   -0.7063 O   0  0  0  0  0  0  0  0  0  0  0  0
    0.3331   -1.4728   -3.0467 C   0  0  0  0  0  0  0  0  0  0  0  0
    2.6924    0.3404   -4.1502 H   0  0  0  0  0  0  0  0  0  0  0  0
    0.6550    0.6514   -3.2607 H   0  0  0  0  0  0  0  0  0  0  0  0
    0.8129   -2.3494   -2.5963 H   0  0  0  0  0  0  0  0  0  0  0  0
   -0.6690   -1.3857   -2.6142 H   0  0  0  0  0  0  0  0  0  0  0  0
    0.2259   -1.6670   -4.1194 H   0  0  0  0  0  0  0  0  0  0  0  0
    0.2019    0.5893   -0.7269 N   0  0  0  0  0  0  0  0  0  0  0  0
    0.1242    0.9059    0.6756 C   0  0  2  0  0  0  0  0  0  0  0  0
    0.2405    2.4218    0.8008 C   0  0  0  0  0  0  0  0  0  0  0  0
    1.0472    3.0868    0.1542 O   0  0  0  0  0  0  0  0  0  0  0  0
    1.2302    0.2202    1.4878 C   0  0  0  0  0  0  0  0  0  0  0  0
    1.1352   -1.3183    1.5401 C   0  0  0  0  0  0  0  0  0  0  0  0
    2.3682   -1.8878    2.2474 C   0  0  0  0  0  0  0  0  0  0  0  0
    1.0053   -1.9418    0.1497 C   0  0  0  0  0  0  0  0  0  0  0  0
   -0.5975    0.8179   -1.3140 H   0  0  0  0  0  0  0  0  0  0  0  0
   -0.8696    0.5998    1.0176 H   0  0  0  0  0  0  0  0  0  0  0  0
    1.2080    0.6088    2.5156 H   0  0  0  0  0  0  0  0  0  0  0  0
    2.2099    0.5055    1.0819 H   0  0  0  0  0  0  0  0  0  0  0  0
    0.2552   -1.6047    2.1288 H   0  0  0  0  0  0  0  0  0  0  0  0
    3.2828   -1.6321    1.7018 H   0  0  0  0  0  0  0  0  0  0  0  0
    2.3121   -2.9798    2.3085 H   0  0  0  0  0  0  0  0  0  0  0  0
    2.4599   -1.4950    3.2658 H   0  0  0  0  0  0  0  0  0  0  0  0
    1.8627   -1.6856   -0.4819 H   0  0  0  0  0  0  0  0  0  0  0  0
    0.9506   -3.0337    0.2176 H   0  0  0  0  0  0  0  0  0  0  0  0
    0.0954   -1.6044   -0.3553 H   0  0  0  0  0  0  0  0  0  0  0  0
   -0.6968    2.9449    1.6808 N   0  0  0  0  0  0  0  0  0  0  0  0
   -0.8192    4.3574    1.9609 C   0  0  2  0  0  0  0  0  0  0  0  0
   -0.6172    5.1150    0.6552 C   0  0  0  0  0  0  0  0  0  0  0  0
   -0.0160    4.6435   -0.3078 O   0  0  0  0  0  0  0  0  0  0  0  0
    0.1882    4.8030    3.0093 C   0  0  0  0  0  0  0  0  0  0  0  0
   -1.3418    2.3167    2.1510 H   0  0  0  0  0  0  0  0  0  0  0  0
   -1.8397    4.5205    2.3243 H   0  0  0  0  0  0  0  0  0  0  0  0
    1.2165    4.6472    2.6630 H   0  0  0  0  0  0  0  0  0  0  0  0
    0.0752    5.8672    3.2411 H   0  0  0  0  0  0  0  0  0  0  0  0
    0.0608    4.2362    3.9379 H   0  0  0  0  0  0  0  0  0  0  0  0
   -1.1497    6.3956    0.7071 N   0  0  0  0  0  0  0  0  0  0  0  0
   -1.0749    7.3166   -0.4029 C   0  0  0  0  0  0  0  0  0  0  0  0
   -1.6479    6.6962    1.5396 H   0  0  0  0  0  0  0  0  0  0  0  0
   -0.1765    7.9429   -0.3005 H   0  0  0  0  0  0  0  0  0  0  0  0
   -1.0223    6.7515   -1.3452 H   0  0  0  0  0  0  0  0  0  0  0  0
   -1.9694    7.9569   -0.4089 H   0  0  0  0  0  0  0  0  0  0  0  0
  1  3  1  0  0  0  0
  1  7  1  0  0  0  0
  1  2  2  0  0  0  0
 37 38  1  0  0  0  0
 38 46  1  0  0  0  0
 38 39  2  0  0  0  0
  8  9  1  0  0  0  0
  9 17  1  0  0  0  0
  9 10  2  0  0  0  0
 18 19  1  0  0  0  0
 19 36  1  0  0  0  0
 19 20  2  0  0  0  0
 37 40  1  0  0  0  0
  8 11  1  0  0  0  0
 22 23  1  0  0  0  0
 22 24  1  0  0  0  0
 46 47  1  0  0  0  0
 18 21  1  0  0  0  0
 21 22  1  0  0  0  0
 36 37  1  0  0  0  0
  7  8  1  0  0  0  0
 17 18  1  0  0  0  0
  3  4  1  0  0  0  0
  3  5  1  0  0  0  0
  3  6  1  0  0  0  0
 40 43  1  0  0  0  0
 40 44  1  0  0  0  0
 40 45  1  0  0  0  0
 11 14  1  0  0  0  0
 11 15  1  0  0  0  0
 11 16  1  0  0  0  0
 23 30  1  0  0  0  0
 23 31  1  0  0  0  0
 23 32  1  0  0  0  0
 24 33  1  0  0  0  0
 24 34  1  0  0  0  0
 24 35  1  0  0  0  0
 47 49  1  0  0  0  0
 47 50  1  0  0  0  0
 47 51  1  0  0  0  0
 21 27  1  0  0  0  0
 21 28  1  0  0  0  0
 37 42  1  0  0  0  0
  8 13  1  0  0  0  0
 18 26  1  0  0  0  0
 22 29  1  0  0  0  0
 46 48  1  0  0  0  0
  7 12  1  0  0  0  0
 36 41  1  0  0  0  0
 17 25  1  0  0  0  0
M  END
$$$$

  -OEChem-05262214473D

 51 50  0     1  0  0  0  0  0999 V2000
    3.4018   -1.2440   -3.0186 C   0  0  0  0  0  0  0  0  0  0  0  0
    3.2697   -2.0909   -2.1427 O   0  0  0  0  0  0  0  0  0  0  0  0
    4.6845   -1.1645   -3.7779 C   0  0  0  0  0  0  0  0  0  0  0  0
    5.4123   -0.4862   -3.3041 H   0  0  0  0  0  0  0  0  0  0  0  0
    5.1949   -2.1387   -3.8443 H   0  0  0  0  0  0  0  0  0  0  0  0
    4.5953   -0.8128   -4.8182 H   0  0  0  0  0  0  0  0  0  0  0  0
    2.4540   -0.3103   -3.4040 N   0  0  0  0  0  0  0  0  0  0  0  0
    1.1494   -0.2128   -2.8039 C   0  0  2  0  0  0  0  0  0  0  0  0
    1.3350    0.0367   -1.3130 C   0  0  0  0  0  0  0  0  0  0  0  0
    2.3625   -0.2586   -0.7063 O   0  0  0  0  0  0  0  0  0  0  0  0
    0.3331   -1.4728   -3.0467 C   0  0  0  0  0  0  0  0  0  0  0  0
    2.6924    0.3404   -4.1502 H   0  0  0  0  0  0  0  0  0  0  0  0
    0.6550    0.6514   -3.2607 H   0  0  0  0  0  0  0  0  0  0  0  0
    0.8129   -2.3494   -2.5963 H   0  0  0  0  0  0  0  0  0  0  0  0
   -0.6690   -1.3857   -2.6142 H   0  0  0  0  0  0  0  0  0  0  0  0
    0.2259   -1.6670   -4.1194 H   0  0  0  0  0  0  0  0  0  0  0  0
    0.2019    0.5893   -0.7269 N   0  0  0  0  0  0  0  0  0  0  0  0
    0.1242    0.9059    0.6756 C   0  0  2  0  0  0  0  0  0  0  0  0
    0.2405    2.4218    0.8008 C   0  0  0  0  0  0  0  0  0  0  0  0
    0.8411    3.1167   -0.0163 O   0  0  0  0  0  0  0  0  0  0  0  0
    1.2302    0.2202    1.4878 C   0  0  0  0  0  0  0  0  0  0  0  0
    1.1352   -1.3183    1.5401 C   0  0  0  0  0  0  0  0  0  0  0  0
    2.3682   -1.8878    2.2474 C   0  0  0  0  0  0  0  0  0  0  0  0
    1.0053   -1.9418    0.1497 C   0  0  0  0  0  0  0  0  0  0  0  0
   -0.5975    0.8179   -1.3140 H   0  0  0  0  0  0  0  0  0  0  0  0
   -0.8696    0.5998    1.0176 H   0  0  0  0  0  0  0  0  0  0  0  0
    1.2080    0.6088    2.5156 H   0  0  0  0  0  0  0  0  0  0  0  0
    2.2099    0.5055    1.0819 H   0  0  0  0  0  0  0  0  0  0  0  0
    0.2552   -1.6047    2.1288 H   0  0  0  0  0  0  0  0  0  0  0  0
    3.2828   -1.6321    1.7018 H   0  0  0  0  0  0  0  0  0  0  0  0
    2.3121   -2.9798    2.3085 H   0  0  0  0  0  0  0  0  0  0  0  0
    2.4599   -1.4950    3.2658 H   0  0  0  0  0  0  0  0  0  0  0  0
    1.8627   -1.6856   -0.4819 H   0  0  0  0  0  0  0  0  0  0  0  0
    0.9506   -3.0337    0.2176 H   0  0  0  0  0  0  0  0  0  0  0  0
    0.0954   -1.6044   -0.3553 H   0  0  0  0  0  0  0  0  0  0  0  0
   -0.4483    2.9074    1.9036 N   0  0  0  0  0  0  0  0  0  0  0  0
   -0.5209    4.3116    2.2375 C   0  0  2  0  0  0  0  0  0  0  0  0
   -0.6759    5.0959    0.9412 C   0  0  0  0  0  0  0  0  0  0  0  0
   -0.3342    4.6552   -0.1543 O   0  0  0  0  0  0  0  0  0  0  0  0
    0.7140    4.7633    3.0016 C   0  0  0  0  0  0  0  0  0  0  0  0
   -0.9387    2.2562    2.5095 H   0  0  0  0  0  0  0  0  0  0  0  0
   -1.4163    4.4442    2.8545 H   0  0  0  0  0  0  0  0  0  0  0  0
    1.6212    4.6380    2.3993 H   0  0  0  0  0  0  0  0  0  0  0  0
    0.6446    5.8204    3.2786 H   0  0  0  0  0  0  0  0  0  0  0  0
    0.8405    4.1780    3.9188 H   0  0  0  0  0  0  0  0  0  0  0  0
   -1.2010    6.3623    1.1570 N   0  0  0  0  0  0  0  0  0  0  0  0
   -1.4316    7.3036    0.0861 C   0  0  0  0  0  0  0  0  0  0  0  0
   -1.4736    6.6368    2.0962 H   0  0  0  0  0  0  0  0  0  0  0  0
   -0.5489    7.9493   -0.0317 H   0  0  0  0  0  0  0  0  0  0  0  0
   -1.6128    6.7559   -0.8506 H   0  0  0  0  0  0  0  0  0  0  0  0
   -2.3092    7.9224    0.3246 H   0  0  0  0  0  0  0  0  0  0  0  0
  1  3  1  0  0  0  0
  1  7  1  0  0  0  0
  1  2  2  0  0  0  0
 37 38  1  0  0  0  0
 38 46  1  0  0  0  0
 38 39  2  0  0  0  0
  8  9  1  0  0  0  0
  9 17  1  0  0  0  0
  9 10  2  0  0  0  0
 18 19  1  0  0  0  0
 19 36  1  0  0  0  0
 19 20  2  0  0  0  0
 37 40  1  0  0  0  0
  8 11  1  0  0  0  0
 22 23  1  0  0  0  0
 22 24  1  0  0  0  0
 46 47  1  0  0  0  0
 18 21  1  0  0  0  0
 21 22  1  0  0  0  0
 36 37  1  0  0  0  0
  7  8  1  0  0  0  0
 17 18  1  0  0  0  0
  3  4  1  0  0  0  0
  3  5  1  0  0  0  0
  3  6  1  0  0  0  0
 40 43  1  0  0  0  0
 40 44  1  0  0  0  0
 40 45  1  0  0  0  0
 11 14  1  0  0  0  0
 11 15  1  0  0  0  0
 11 16  1  0  0  0  0
 23 30  1  0  0  0  0
 23 31  1  0  0  0  0
 23 32  1  0  0  0  0
 24 33  1  0  0  0  0
 24 34  1  0  0  0  0
 24 35  1  0  0  0  0
 47 49  1  0  0  0  0
 47 50  1  0  0  0  0
 47 51  1  0  0  0  0
 21 27  1  0  0  0  0
 21 28  1  0  0  0  0
 37 42  1  0  0  0  0
  8 13  1  0  0  0  0
 18 26  1  0  0  0  0
 22 29  1  0  0  0  0
 46 48  1  0  0  0  0
  7 12  1  0  0  0  0
 36 41  1  0  0  0  0
 17 25  1  0  0  0  0
M  END
$$$$

  -OEChem-05262214473D

 51 50  0     1  0  0  0  0  0999 V2000
    3.4018   -1.2440   -3.0186 C   0  0  0  0  0  0  0  0  0  0  0  0
    3.2697   -2.0909   -2.1427 O   0  0  0  0  0  0  0  0  0  0  0  0
    4.6845   -1.1645   -3.7779 C   0  0  0  0  0  0  0  0  0  0  0  0
    5.4123   -0.4862   -3.3041 H   0  0  0  0  0  0  0  0  0  0  0  0
    5.1949   -2.1387   -3.8443 H   0  0  0  0  0  0  0  0  0  0  0  0
    4.5953   -0.8128   -4.8182 H   0  0  0  0  0  0  0  0  0  0  0  0
    2.4540   -0.3103   -3.4040 N   0  0  0  0  0  0  0  0  0  0  0  0
    1.1494   -0.2128   -2.8039 C   0  0  2  0  0  0  0  0  0  0  0  0
    1.3350    0.0367   -1.3130 C   0  0  0  0  0  0  0  0  0  0  0  0
    2.3625   -0.2586   -0.7063 O   0  0  0  0  0  0  0  0  0  0  0  0
    0.3331   -1.4728   -3.0467 C   0  0  0  0  0  0  0  0  0  0  0  0
    2.6924    0.3404   -4.1502 H   0  0  0  0  0  0  0  0  0  0  0  0
    0.6550    0.6514   -3.2607 H   0  0  0  0  0  0  0  0  0  0  0  0
    0.8129   -2.3494   -2.5963 H   0  0  0  0  0  0  0  0  0  0  0  0
   -0.6690   -1.3857   -2.6142 H   0  0  0  0  0  0  0  0  0  0  0  0
    0.2259   -1.6670   -4.1194 H   0  0  0  0  0  0  0  0  0  0  0  0
    0.2019    0.5893   -0.7269 N   0  0  0  0  0  0  0  0  0  0  0  0
    0.1242    0.9059    0.6756 C   0  0  2  0  0  0  0  0  0  0  0  0
    0.2405    2.4218    0.8008 C   0  0  0  0  0  0  0  0  0  0  0  0
    0.5974    3.1445   -0.1273 O   0  0  0  0  0  0  0  0  0  0  0  0
    1.2302    0.2202    1.4878 C   0  0  0  0  0  0  0  0  0  0  0  0
    1.1352   -1.3183    1.5401 C   0  0  0  0  0  0  0  0  0  0  0  0
    2.3682   -1.8878    2.2474 C   0  0  0  0  0  0  0  0  0  0  0  0
    1.0053   -1.9418    0.1497 C   0  0  0  0  0  0  0  0  0  0  0  0
   -0.5975    0.8179   -1.3140 H   0  0  0  0  0  0  0  0  0  0  0  0
   -0.8696    0.5998    1.0176 H   0  0  0  0  0  0  0  0  0  0  0  0
    1.2080    0.6088    2.5156 H   0  0  0  0  0  0  0  0  0  0  0  0
    2.2099    0.5055    1.0819 H   0  0  0  0  0  0  0  0  0  0  0  0
    0.2552   -1.6047    2.1288 H   0  0  0  0  0  0  0  0  0  0  0  0
    3.2828   -1.6321    1.7018 H   0  0  0  0  0  0  0  0  0  0  0  0
    2.3121   -2.9798    2.3085 H   0  0  0  0  0  0  0  0  0  0  0  0
    2.4599   -1.4950    3.2658 H   0  0  0  0  0  0  0  0  0  0  0  0
    1.8627   -1.6856   -0.4819 H   0  0  0  0  0  0  0  0  0  0  0  0
    0.9506   -3.0337    0.2176 H   0  0  0  0  0  0  0  0  0  0  0  0
    0.0954   -1.6044   -0.3553 H   0  0  0  0  0  0  0  0  0  0  0  0
   -0.1502    2.8721    2.0543 N   0  0  0  0  0  0  0  0  0  0  0  0
   -0.1606    4.2683    2.4271 C   0  0  2  0  0  0  0  0  0  0  0  0
   -0.6587    5.0705    1.2321 C   0  0  0  0  0  0  0  0  0  0  0  0
   -0.6023    4.6568    0.0760 O   0  0  0  0  0  0  0  0  0  0  0  0
    1.2207    4.7362    2.8581 C   0  0  0  0  0  0  0  0  0  0  0  0
   -0.4558    2.1992    2.7510 H   0  0  0  0  0  0  0  0  0  0  0  0
   -0.8693    4.3690    3.2563 H   0  0  0  0  0  0  0  0  0  0  0  0
    1.9445    4.6428    2.0403 H   0  0  0  0  0  0  0  0  0  0  0  0
    1.2053    5.7865    3.1674 H   0  0  0  0  0  0  0  0  0  0  0  0
    1.5900    4.1386    3.6986 H   0  0  0  0  0  0  0  0  0  0  0  0
   -1.1340    6.3202    1.6041 N   0  0  0  0  0  0  0  0  0  0  0  0
   -1.6501    7.2737    0.6499 C   0  0  0  0  0  0  0  0  0  0  0  0
   -1.1608    6.5722    2.5877 H   0  0  0  0  0  0  0  0  0  0  0  0
   -0.8397    7.9422    0.3237 H   0  0  0  0  0  0  0  0  0  0  0  0
   -2.0560    6.7379   -0.2208 H   0  0  0  0  0  0  0  0  0  0  0  0
   -2.4481    7.8673    1.1198 H   0  0  0  0  0  0  0  0  0  0  0  0
  1  3  1  0  0  0  0
  1  7  1  0  0  0  0
  1  2  2  0  0  0  0
 37 38  1  0  0  0  0
 38 46  1  0  0  0  0
 38 39  2  0  0  0  0
  8  9  1  0  0  0  0
  9 17  1  0  0  0  0
  9 10  2  0  0  0  0
 18 19  1  0  0  0  0
 19 36  1  0  0  0  0
 19 20  2  0  0  0  0
 37 40  1  0  0  0  0
  8 11  1  0  0  0  0
 22 23  1  0  0  0  0
 22 24  1  0  0  0  0
 46 47  1  0  0  0  0
 18 21  1  0  0  0  0
 21 22  1  0  0  0  0
 36 37  1  0  0  0  0
  7  8  1  0  0  0  0
 17 18  1  0  0  0  0
  3  4  1  0  0  0  0
  3  5  1  0  0  0  0
  3  6  1  0  0  0  0
 40 43  1  0  0  0  0
 40 44  1  0  0  0  0
 40 45  1  0  0  0  0
 11 14  1  0  0  0  0
 11 15  1  0  0  0  0
 11 16  1  0  0  0  0
 23 30  1  0  0  0  0
 23 31  1  0  0  0  0
 23 32  1  0  0  0  0
 24 33  1  0  0  0  0
 24 34  1  0  0  0  0
 24 35  1  0  0  0  0
 47 49  1  0  0  0  0
 47 50  1  0  0  0  0
 47 51  1  0  0  0  0
 21 27  1  0  0  0  0
 21 28  1  0  0  0  0
 37 42  1  0  0  0  0
  8 13  1  0  0  0  0
 18 26  1  0  0  0  0
 22 29  1  0  0  0  0
 46 48  1  0  0  0  0
  7 12  1  0  0  0  0
 36 41  1  0  0  0  0
 17 25  1  0  0  0  0
M  END
$$$$

  -OEChem-05262214473D

 51 50  0     1  0  0  0  0  0999 V2000
    3.4018   -1.2440   -3.0186 C   0  0  0  0  0  0  0  0  0  0  0  0
    3.2697   -2.0909   -2.1427 O   0  0  0  0  0  0  0  0  0  0  0  0
    4.6845   -1.1645   -3.7779 C   0  0  0  0  0  0  0  0  0  0  0  0
    5.4123   -0.4862   -3.3041 H   0  0  0  0  0  0  0  0  0  0  0  0
    5.1949   -2.1387   -3.8443 H   0  0  0  0  0  0  0  0  0  0  0  0
    4.5953   -0.8128   -4.8182 H   0  0  0  0  0  0  0  0  0  0  0  0
    2.4540   -0.3103   -3.4040 N   0  0  0  0  0  0  0  0  0  0  0  0
    1.1494   -0.2128   -2.8039 C   0  0  2  0  0  0  0  0  0  0  0  0
    1.3350    0.0367   -1.3130 C   0  0  0  0  0  0  0  0  0  0  0  0
    2.3625   -0.2586   -0.7063 O   0  0  0  0  0  0  0  0  0  0  0  0
    0.3331   -1.4728   -3.0467 C   0  0  0  0  0  0  0  0  0  0  0  0
    2.6924    0.3404   -4.1502 H   0  0  0  0  0  0  0  0  0  0  0  0
    0.6550    0.6514   -3.2607 H   0  0  0  0  0  0  0  0  0  0  0  0
    0.8129   -2.3494   -2.5963 H   0  0  0  0  0  0  0  0  0  0  0  0
   -0.6690   -1.3857   -2.6142 H   0  0  0  0  0  0  0  0  0  0  0  0
    0.2259   -1.6670   -4.1194 H   0  0  0  0  0  0  0  0  0  0  0  0
    0.2019    0.5893   -0.7269 N   0  0  0  0  0  0  0  0  0  0  0  0
    0.1242    0.9059    0.6756 C   0  0  2  0  0  0  0  0  0  0  0  0
   -0.1393    2.4046    0.7837 C   0  0  0  0  0  0  0  0  0  0  0  0
   -0.2922    3.1296   -0.1972 O   0  0  0  0  0  0  0  0  0  0  0  0
    1.4106    0.5381    1.4260 C   0  0  0  0  0  0  0  0  0  0  0  0
    1.7102   -0.9733    1.4941 C   0  0  0  0  0  0  0  0  0  0  0  0
    3.0840   -1.1990    2.1316 C   0  0  0  0  0  0  0  0  0  0  0  0
    1.6654   -1.6388    0.1179 C   0  0  0  0  0  0  0  0  0  0  0  0
   -0.5975    0.8179   -1.3140 H   0  0  0  0  0  0  0  0  0  0  0  0
   -0.7397    0.3669    1.0774 H   0  0  0  0  0  0  0  0  0  0  0  0
    1.3476    0.9304    2.4508 H   0  0  0  0  0  0  0  0  0  0  0  0
    2.2625    1.0521    0.9614 H   0  0  0  0  0  0  0  0  0  0  0  0
    0.9648   -1.4594    2.1354 H   0  0  0  0  0  0  0  0  0  0  0  0
    3.8729   -0.7330    1.5315 H   0  0  0  0  0  0  0  0  0  0  0  0
    3.3089   -2.2684    2.2031 H   0  0  0  0  0  0  0  0  0  0  0  0
    3.1296   -0.7742    3.1402 H   0  0  0  0  0  0  0  0  0  0  0  0
    2.3942   -1.1886   -0.5647 H   0  0  0  0  0  0  0  0  0  0  0  0
    1.8920   -2.7077    0.1962 H   0  0  0  0  0  0  0  0  0  0  0  0
    0.6735   -1.5522   -0.3351 H   0  0  0  0  0  0  0  0  0  0  0  0
   -0.2335    2.8227    2.1038 N   0  0  0  0  0  0  0  0  0  0  0  0
   -0.5047    4.1902    2.4847 C   0  0  2  0  0  0  0  0  0  0  0  0
   -1.5413    4.7504    1.5198 C   0  0  0  0  0  0  0  0  0  0  0  0
   -1.7324    4.2870    0.3973 O   0  0  0  0  0  0  0  0  0  0  0  0
    0.7627    5.0307    2.4689 C   0  0  0  0  0  0  0  0  0  0  0  0
   -0.1181    2.1431    2.8497 H   0  0  0  0  0  0  0  0  0  0  0  0
   -0.9250    4.1595    3.4958 H   0  0  0  0  0  0  0  0  0  0  0  0
    1.1983    5.0731    1.4640 H   0  0  0  0  0  0  0  0  0  0  0  0
    0.5605    6.0593    2.7852 H   0  0  0  0  0  0  0  0  0  0  0  0
    1.5180    4.6094    3.1411 H   0  0  0  0  0  0  0  0  0  0  0  0
   -2.1979    5.8555    2.0430 N   0  0  0  0  0  0  0  0  0  0  0  0
   -3.2179    6.5733    1.3148 C   0  0  0  0  0  0  0  0  0  0  0  0
   -1.9890    6.1590    2.9896 H   0  0  0  0  0  0  0  0  0  0  0  0
   -2.7577    7.4059    0.7625 H   0  0  0  0  0  0  0  0  0  0  0  0
   -3.7109    5.8915    0.6063 H   0  0  0  0  0  0  0  0  0  0  0  0
   -3.9625    6.9692    2.0211 H   0  0  0  0  0  0  0  0  0  0  0  0
  1  3  1  0  0  0  0
  1  7  1  0  0  0  0
  1  2  2  0  0  0  0
 37 38  1  0  0  0  0
 38 46  1  0  0  0  0
 38 39  2  0  0  0  0
  8  9  1  0  0  0  0
  9 17  1  0  0  0  0
  9 10  2  0  0  0  0
 18 19  1  0  0  0  0
 19 36  1  0  0  0  0
 19 20  2  0  0  0  0
 37 40  1  0  0  0  0
  8 11  1  0  0  0  0
 22 23  1  0  0  0  0
 22 24  1  0  0  0  0
 46 47  1  0  0  0  0
 18 21  1  0  0  0  0
 21 22  1  0  0  0  0
 36 37  1  0  0  0  0
  7  8  1  0  0  0  0
 17 18  1  0  0  0  0
  3  4  1  0  0  0  0
  3  5  1  0  0  0  0
  3  6  1  0  0  0  0
 40 43  1  0  0  0  0
 40 44  1  0  0  0  0
 40 45  1  0  0  0  0
 11 14  1  0  0  0  0
 11 15  1  0  0  0  0
 11 16  1  0  0  0  0
 23 30  1  0  0  0  0
 23 31  1  0  0  0  0
 23 32  1  0  0  0  0
 24 33  1  0  0  0  0
 24 34  1  0  0  0  0
 24 35  1  0  0  0  0
 47 49  1  0  0  0  0
 47 50  1  0  0  0  0
 47 51  1  0  0  0  0
 21 27  1  0  0  0  0
 21 28  1  0  0  0  0
 37 42  1  0  0  0  0
  8 13  1  0  0  0  0
 18 26  1  0  0  0  0
 22 29  1  0  0  0  0
 46 48  1  0  0  0  0
  7 12  1  0  0  0  0
 36 41  1  0  0  0  0
 17 25  1  0  0  0  0
M  END
$$$$

  -OEChem-05262214473D

 51 50  0     1  0  0  0  0  0999 V2000
    3.4018   -1.2440   -3.0186 C   0  0  0  0  0  0  0  0  0  0  0  0
    3.2697   -2.0909   -2.1427 O   0  0  0  0  0  0  0  0  0  0  0  0
    4.6845   -1.1645   -3.7779 C   0  0  0  0  0  0  0  0  0  0  0  0
    5.4123   -0.4862   -3.3041 H   0  0  0  0  0  0  0  0  0  0  0  0
    5.1949   -2.1387   -3.8443 H   0  0  0  0  0  0  0  0  0  0  0  0
    4.5953   -0.8128   -4.8182 H   0  0  0  0  0  0  0  0  0  0  0  0
    2.4540   -0.3103   -3.4040 N   0  0  0  0  0  0  0  0  0  0  0  0
    1.1494   -0.2128   -2.8039 C   0  0  2  0  0  0  0  0  0  0  0  0
    1.3350    0.0367   -1.3130 C   0  0  0  0  0  0  0  0  0  0  0  0
    2.3625   -0.2586   -0.7063 O   0  0  0  0  0  0  0  0  0  0  0  0
    0.3331   -1.4728   -3.0467 C   0  0  0  0  0  0  0  0  0  0  0  0
    2.6924    0.3404   -4.1502 H   0  0  0  0  0  0  0  0  0  0  0  0
    0.6550    0.6514   -3.2607 H   0  0  0  0  0  0  0  0  0  0  0  0
    0.8129   -2.3494   -2.5963 H   0  0  0  0  0  0  0  0  0  0  0  0
   -0.6690   -1.3857   -2.6142 H   0  0  0  0  0  0  0  0  0  0  0  0
    0.2259   -1.6670   -4.1194 H   0  0  0  0  0  0  0  0  0  0  0  0
    0.2019    0.5893   -0.7269 N   0  0  0  0  0  0  0  0  0  0  0  0
    0.1242    0.9059    0.6756 C   0  0  2  0  0  0  0  0  0  0  0  0
   -0.1393    2.4046    0.7837 C   0  0  0  0  0  0  0  0  0  0  0  0
   -0.5536    3.0807   -0.1557 O   0  0  0  0  0  0  0  0  0  0  0  0
    1.4106    0.5381    1.4260 C   0  0  0  0  0  0  0  0  0  0  0  0
    1.7102   -0.9733    1.4941 C   0  0  0  0  0  0  0  0  0  0  0  0
    3.0840   -1.1990    2.1316 C   0  0  0  0  0  0  0  0  0  0  0  0
    1.6654   -1.6388    0.1179 C   0  0  0  0  0  0  0  0  0  0  0  0
   -0.5975    0.8179   -1.3140 H   0  0  0  0  0  0  0  0  0  0  0  0
   -0.7397    0.3669    1.0774 H   0  0  0  0  0  0  0  0  0  0  0  0
    1.3476    0.9304    2.4508 H   0  0  0  0  0  0  0  0  0  0  0  0
    2.2625    1.0521    0.9614 H   0  0  0  0  0  0  0  0  0  0  0  0
    0.9648   -1.4594    2.1354 H   0  0  0  0  0  0  0  0  0  0  0  0
    3.8729   -0.7330    1.5315 H   0  0  0  0  0  0  0  0  0  0  0  0
    3.3089   -2.2684    2.2031 H   0  0  0  0  0  0  0  0  0  0  0  0
    3.1296   -0.7742    3.1402 H   0  0  0  0  0  0  0  0  0  0  0  0
    2.3942   -1.1886   -0.5647 H   0  0  0  0  0  0  0  0  0  0  0  0
    1.8920   -2.7077    0.1962 H   0  0  0  0  0  0  0  0  0  0  0  0
    0.6735   -1.5522   -0.3351 H   0  0  0  0  0  0  0  0  0  0  0  0
    0.0947    2.8832    2.0653 N   0  0  0  0  0  0  0  0  0  0  0  0
   -0.1038    4.2636    2.4444 C   0  0  2  0  0  0  0  0  0  0  0  0
   -1.3647    4.7646    1.7526 C   0  0  0  0  0  0  0  0  0  0  0  0
   -1.8232    4.2466    0.7365 O   0  0  0  0  0  0  0  0  0  0  0  0
    1.0973    5.1182    2.0709 C   0  0  0  0  0  0  0  0  0  0  0  0
    0.4120    2.2409    2.7854 H   0  0  0  0  0  0  0  0  0  0  0  0
   -0.2529    4.2752    3.5297 H   0  0  0  0  0  0  0  0  0  0  0  0
    1.2624    5.1187    0.9873 H   0  0  0  0  0  0  0  0  0  0  0  0
    0.9573    6.1580    2.3844 H   0  0  0  0  0  0  0  0  0  0  0  0
    2.0085    4.7386    2.5457 H   0  0  0  0  0  0  0  0  0  0  0  0
   -1.8934    5.8848    2.3785 N   0  0  0  0  0  0  0  0  0  0  0  0
   -3.0819    6.5547    1.9044 C   0  0  0  0  0  0  0  0  0  0  0  0
   -1.4584    6.2351    3.2269 H   0  0  0  0  0  0  0  0  0  0  0  0
   -2.7972    7.3660    1.2184 H   0  0  0  0  0  0  0  0  0  0  0  0
   -3.7220    5.8341    1.3743 H   0  0  0  0  0  0  0  0  0  0  0  0
   -3.6321    6.9740    2.7597 H   0  0  0  0  0  0  0  0  0  0  0  0
  1  3  1  0  0  0  0
  1  7  1  0  0  0  0
  1  2  2  0  0  0  0
 37 38  1  0  0  0  0
 38 46  1  0  0  0  0
 38 39  2  0  0  0  0
  8  9  1  0  0  0  0
  9 17  1  0  0  0  0
  9 10  2  0  0  0  0
 18 19  1  0  0  0  0
 19 36  1  0  0  0  0
 19 20  2  0  0  0  0
 37 40  1  0  0  0  0
  8 11  1  0  0  0  0
 22 23  1  0  0  0  0
 22 24  1  0  0  0  0
 46 47  1  0  0  0  0
 18 21  1  0  0  0  0
 21 22  1  0  0  0  0
 36 37  1  0  0  0  0
  7  8  1  0  0  0  0
 17 18  1  0  0  0  0
  3  4  1  0  0  0  0
  3  5  1  0  0  0  0
  3  6  1  0  0  0  0
 40 43  1  0  0  0  0
 40 44  1  0  0  0  0
 40 45  1  0  0  0  0
 11 14  1  0  0  0  0
 11 15  1  0  0  0  0
 11 16  1  0  0  0  0
 23 30  1  0  0  0  0
 23 31  1  0  0  0  0
 23 32  1  0  0  0  0
 24 33  1  0  0  0  0
 24 34  1  0  0  0  0
 24 35  1  0  0  0  0
 47 49  1  0  0  0  0
 47 50  1  0  0  0  0
 47 51  1  0  0  0  0
 21 27  1  0  0  0  0
 21 28  1  0  0  0  0
 37 42  1  0  0  0  0
  8 13  1  0  0  0  0
 18 26  1  0  0  0  0
 22 29  1  0  0  0  0
 46 48  1  0  0  0  0
  7 12  1  0  0  0  0
 36 41  1  0  0  0  0
 17 25  1  0  0  0  0
M  END
$$$$

  -OEChem-05262214473D

 51 50  0     1  0  0  0  0  0999 V2000
    3.4018   -1.2440   -3.0186 C   0  0  0  0  0  0  0  0  0  0  0  0
    3.2697   -2.0909   -2.1427 O   0  0  0  0  0  0  0  0  0  0  0  0
    4.6845   -1.1645   -3.7779 C   0  0  0  0  0  0  0  0  0  0  0  0
    5.4123   -0.4862   -3.3041 H   0  0  0  0  0  0  0  0  0  0  0  0
    5.1949   -2.1387   -3.8443 H   0  0  0  0  0  0  0  0  0  0  0  0
    4.5953   -0.8128   -4.8182 H   0  0  0  0  0  0  0  0  0  0  0  0
    2.4540   -0.3103   -3.4040 N   0  0  0  0  0  0  0  0  0  0  0  0
    1.1494   -0.2128   -2.8039 C   0  0  2  0  0  0  0  0  0  0  0  0
    1.3350    0.0367   -1.3130 C   0  0  0  0  0  0  0  0  0  0  0  0
    2.3625   -0.2586   -0.7063 O   0  0  0  0  0  0  0  0  0  0  0  0
    0.3331   -1.4728   -3.0467 C   0  0  0  0  0  0  0  0  0  0  0  0
    2.6924    0.3404   -4.1502 H   0  0  0  0  0  0  0  0  0  0  0  0
    0.6550    0.6514   -3.2607 H   0  0  0  0  0  0  0  0  0  0  0  0
    0.8129   -2.3494   -2.5963 H   0  0  0  0  0  0  0  0  0  0  0  0
   -0.6690   -1.3857   -2.6142 H   0  0  0  0  0  0  0  0  0  0  0  0
    0.2259   -1.6670   -4.1194 H   0  0  0  0  0  0  0  0  0  0  0  0
    0.2019    0.5893   -0.7269 N   0  0  0  0  0  0  0  0  0  0  0  0
    0.1242    0.9059    0.6756 C   0  0  2  0  0  0  0  0  0  0  0  0
   -0.1393    2.4046    0.7837 C   0  0  0  0  0  0  0  0  0  0  0  0
   -0.7947    3.0305   -0.0470 O   0  0  0  0  0  0  0  0  0  0  0  0
    1.4106    0.5381    1.4260 C   0  0  0  0  0  0  0  0  0  0  0  0
    1.7102   -0.9733    1.4941 C   0  0  0  0  0  0  0  0  0  0  0  0
    3.0840   -1.1990    2.1316 C   0  0  0  0  0  0  0  0  0  0  0  0
    1.6654   -1.6388    0.1179 C   0  0  0  0  0  0  0  0  0  0  0  0
   -0.5975    0.8179   -1.3140 H   0  0  0  0  0  0  0  0  0  0  0  0
   -0.7397    0.3669    1.0774 H   0  0  0  0  0  0  0  0  0  0  0  0
    1.3476    0.9304    2.4508 H   0  0  0  0  0  0  0  0  0  0  0  0
    2.2625    1.0521    0.9614 H   0  0  0  0  0  0  0  0  0  0  0  0
    0.9648   -1.4594    2.1354 H   0  0  0  0  0  0  0  0  0  0  0  0
    3.8729   -0.7330    1.5315 H   0  0  0  0  0  0  0  0  0  0  0  0
    3.3089   -2.2684    2.2031 H   0  0  0  0  0  0  0  0  0  0  0  0
    3.1296   -0.7742    3.1402 H   0  0  0  0  0  0  0  0  0  0  0  0
    2.3942   -1.1886   -0.5647 H   0  0  0  0  0  0  0  0  0  0  0  0
    1.8920   -2.7077    0.1962 H   0  0  0  0  0  0  0  0  0  0  0  0
    0.6735   -1.5522   -0.3351 H   0  0  0  0  0  0  0  0  0  0  0  0
    0.4008    2.9459    1.9420 N   0  0  0  0  0  0  0  0  0  0  0  0
    0.2717    4.3400    2.3004 C   0  0  2  0  0  0  0  0  0  0  0  0
   -1.1351    4.7921    1.9319 C   0  0  0  0  0  0  0  0  0  0  0  0
   -1.8240    4.2210    1.0890 O   0  0  0  0  0  0  0  0  0  0  0  0
    1.3178    5.1911    1.5974 C   0  0  0  0  0  0  0  0  0  0  0  0
    0.9059    2.3423    2.5840 H   0  0  0  0  0  0  0  0  0  0  0  0
    0.4028    4.4008    3.3863 H   0  0  0  0  0  0  0  0  0  0  0  0
    1.2023    5.1427    0.5085 H   0  0  0  0  0  0  0  0  0  0  0  0
    1.2369    6.2427    1.8919 H   0  0  0  0  0  0  0  0  0  0  0  0
    2.3285    4.8457    1.8402 H   0  0  0  0  0  0  0  0  0  0  0  0
   -1.5145    5.9338    2.6238 N   0  0  0  0  0  0  0  0  0  0  0  0
   -2.8002    6.5656    2.4402 C   0  0  0  0  0  0  0  0  0  0  0  0
   -0.8870    6.3290    3.3179 H   0  0  0  0  0  0  0  0  0  0  0  0
   -2.7186    7.3472    1.6705 H   0  0  0  0  0  0  0  0  0  0  0  0
   -3.5363    5.8129    2.1216 H   0  0  0  0  0  0  0  0  0  0  0  0
   -3.1252    7.0178    3.3888 H   0  0  0  0  0  0  0  0  0  0  0  0
  1  3  1  0  0  0  0
  1  7  1  0  0  0  0
  1  2  2  0  0  0  0
 37 38  1  0  0  0  0
 38 46  1  0  0  0  0
 38 39  2  0  0  0  0
  8  9  1  0  0  0  0
  9 17  1  0  0  0  0
  9 10  2  0  0  0  0
 18 19  1  0  0  0  0
 19 36  1  0  0  0  0
 19 20  2  0  0  0  0
 37 40  1  0  0  0  0
  8 11  1  0  0  0  0
 22 23  1  0  0  0  0
 22 24  1  0  0  0  0
 46 47  1  0  0  0  0
 18 21  1  0  0  0  0
 21 22  1  0  0  0  0
 36 37  1  0  0  0  0
  7  8  1  0  0  0  0
 17 18  1  0  0  0  0
  3  4  1  0  0  0  0
  3  5  1  0  0  0  0
  3  6  1  0  0  0  0
 40 43  1  0  0  0  0
 40 44  1  0  0  0  0
 40 45  1  0  0  0  0
 11 14  1  0  0  0  0
 11 15  1  0  0  0  0
 11 16  1  0  0  0  0
 23 30  1  0  0  0  0
 23 31  1  0  0  0  0
 23 32  1  0  0  0  0
 24 33  1  0  0  0  0
 24 34  1  0  0  0  0
 24 35  1  0  0  0  0
 47 49  1  0  0  0  0
 47 50  1  0  0  0  0
 47 51  1  0  0  0  0
 21 27  1  0  0  0  0
 21 28  1  0  0  0  0
 37 42  1  0  0  0  0
  8 13  1  0  0  0  0
 18 26  1  0  0  0  0
 22 29  1  0  0  0  0
 46 48  1  0  0  0  0
  7 12  1  0  0  0  0
 36 41  1  0  0  0  0
 17 25  1  0  0  0  0
M  END
$$$$

  -OEChem-05262214473D

 51 50  0     1  0  0  0  0  0999 V2000
    3.4018   -1.2440   -3.0186 C   0  0  0  0  0  0  0  0  0  0  0  0
    3.2697   -2.0909   -2.1427 O   0  0  0  0  0  0  0  0  0  0  0  0
    4.6845   -1.1645   -3.7779 C   0  0  0  0  0  0  0  0  0  0  0  0
    5.4123   -0.4862   -3.3041 H   0  0  0  0  0  0  0  0  0  0  0  0
    5.1949   -2.1387   -3.8443 H   0  0  0  0  0  0  0  0  0  0  0  0
    4.5953   -0.8128   -4.8182 H   0  0  0  0  0  0  0  0  0  0  0  0
    2.4540   -0.3103   -3.4040 N   0  0  0  0  0  0  0  0  0  0  0  0
    1.1494   -0.2128   -2.8039 C   0  0  2  0  0  0  0  0  0  0  0  0
    1.3350    0.0367   -1.3130 C   0  0  0  0  0  0  0  0  0  0  0  0
    2.3625   -0.2586   -0.7063 O   0  0  0  0  0  0  0  0  0  0  0  0
    0.3331   -1.4728   -3.0467 C   0  0  0  0  0  0  0  0  0  0  0  0
    2.6924    0.3404   -4.1502 H   0  0  0  0  0  0  0  0  0  0  0  0
    0.6550    0.6514   -3.2607 H   0  0  0  0  0  0  0  0  0  0  0  0
    0.8129   -2.3494   -2.5963 H   0  0  0  0  0  0  0  0  0  0  0  0
   -0.6690   -1.3857   -2.6142 H   0  0  0  0  0  0  0  0  0  0  0  0
    0.2259   -1.6670   -4.1194 H   0  0  0  0  0  0  0  0  0  0  0  0
    0.2019    0.5893   -0.7269 N   0  0  0  0  0  0  0  0  0  0  0  0
    0.1242    0.9059    0.6756 C   0  0  2  0  0  0  0  0  0  0  0  0
   -0.1393    2.4046    0.7837 C   0  0  0  0  0  0  0  0  0  0  0  0
   -0.9990    2.9824    0.1216 O   0  0  0  0  0  0  0  0  0  0  0  0
    1.4106    0.5381    1.4260 C   0  0  0  0  0  0  0  0  0  0  0  0
    1.7102   -0.9733    1.4941 C   0  0  0  0  0  0  0  0  0  0  0  0
    3.0840   -1.1990    2.1316 C   0  0  0  0  0  0  0  0  0  0  0  0
    1.6654   -1.6388    0.1179 C   0  0  0  0  0  0  0  0  0  0  0  0
   -0.5975    0.8179   -1.3140 H   0  0  0  0  0  0  0  0  0  0  0  0
   -0.7397    0.3669    1.0774 H   0  0  0  0  0  0  0  0  0  0  0  0
    1.3476    0.9304    2.4508 H   0  0  0  0  0  0  0  0  0  0  0  0
    2.2625    1.0521    0.9614 H   0  0  0  0  0  0  0  0  0  0  0  0
    0.9648   -1.4594    2.1354 H   0  0  0  0  0  0  0  0  0  0  0  0
    3.8729   -0.7330    1.5315 H   0  0  0  0  0  0  0  0  0  0  0  0
    3.3089   -2.2684    2.2031 H   0  0  0  0  0  0  0  0  0  0  0  0
    3.1296   -0.7742    3.1402 H   0  0  0  0  0  0  0  0  0  0  0  0
    2.3942   -1.1886   -0.5647 H   0  0  0  0  0  0  0  0  0  0  0  0
    1.8920   -2.7077    0.1962 H   0  0  0  0  0  0  0  0  0  0  0  0
    0.6735   -1.5522   -0.3351 H   0  0  0  0  0  0  0  0  0  0  0  0
    0.6639    3.0065    1.7423 N   0  0  0  0  0  0  0  0  0  0  0  0
    0.5965    4.4143    2.0624 C   0  0  2  0  0  0  0  0  0  0  0  0
   -0.8683    4.8308    2.0455 C   0  0  0  0  0  0  0  0  0  0  0  0
   -1.7346    4.2121    1.4308 O   0  0  0  0  0  0  0  0  0  0  0  0
    1.4090    5.2444    1.0808 C   0  0  0  0  0  0  0  0  0  0  0  0
    1.3298    2.4402    2.2594 H   0  0  0  0  0  0  0  0  0  0  0  0
    0.9974    4.5278    3.0755 H   0  0  0  0  0  0  0  0  0  0  0  0
    1.0221    5.1433    0.0602 H   0  0  0  0  0  0  0  0  0  0  0  0
    1.3802    6.3076    1.3414 H   0  0  0  0  0  0  0  0  0  0  0  0
    2.4562    4.9236    1.0725 H   0  0  0  0  0  0  0  0  0  0  0  0
   -1.0870    5.9989    2.7623 N   0  0  0  0  0  0  0  0  0  0  0  0
   -2.3921    6.6052    2.8856 C   0  0  0  0  0  0  0  0  0  0  0  0
   -0.3136    6.4343    3.2563 H   0  0  0  0  0  0  0  0  0  0  0  0
   -2.5274    7.3507    2.0882 H   0  0  0  0  0  0  0  0  0  0  0  0
   -3.1666    5.8292    2.7971 H   0  0  0  0  0  0  0  0  0  0  0  0
   -2.4765    7.0974    3.8657 H   0  0  0  0  0  0  0  0  0  0  0  0
  1  3  1  0  0  0  0
  1  7  1  0  0  0  0
  1  2  2  0  0  0  0
 37 38  1  0  0  0  0
 38 46  1  0  0  0  0
 38 39  2  0  0  0  0
  8  9  1  0  0  0  0
  9 17  1  0  0  0  0
  9 10  2  0  0  0  0
 18 19  1  0  0  0  0
 19 36  1  0  0  0  0
 19 20  2  0  0  0  0
 37 40  1  0  0  0  0
  8 11  1  0  0  0  0
 22 23  1  0  0  0  0
 22 24  1  0  0  0  0
 46 47  1  0  0  0  0
 18 21  1  0  0  0  0
 21 22  1  0  0  0  0
 36 37  1  0  0  0  0
  7  8  1  0  0  0  0
 17 18  1  0  0  0  0
  3  4  1  0  0  0  0
  3  5  1  0  0  0  0
  3  6  1  0  0  0  0
 40 43  1  0  0  0  0
 40 44  1  0  0  0  0
 40 45  1  0  0  0  0
 11 14  1  0  0  0  0
 11 15  1  0  0  0  0
 11 16  1  0  0  0  0
 23 30  1  0  0  0  0
 23 31  1  0  0  0  0
 23 32  1  0  0  0  0
 24 33  1  0  0  0  0
 24 34  1  0  0  0  0
 24 35  1  0  0  0  0
 47 49  1  0  0  0  0
 47 50  1  0  0  0  0
 47 51  1  0  0  0  0
 21 27  1  0  0  0  0
 21 28  1  0  0  0  0
 37 42  1  0  0  0  0
  8 13  1  0  0  0  0
 18 26  1  0  0  0  0
 22 29  1  0  0  0  0
 46 48  1  0  0  0  0
  7 12  1  0  0  0  0
 36 41  1  0  0  0  0
 17 25  1  0  0  0  0
M  END
$$$$

  -OEChem-05262214473D

 51 50  0     1  0  0  0  0  0999 V2000
    3.4018   -1.2440   -3.0186 C   0  0  0  0  0  0  0  0  0  0  0  0
    3.2697   -2.0909   -2.1427 O   0  0  0  0  0  0  0  0  0  0  0  0
    4.6845   -1.1645   -3.7779 C   0  0  0  0  0  0  0  0  0  0  0  0
    5.4123   -0.4862   -3.3041 H   0  0  0  0  0  0  0  0  0  0  0  0
    5.1949   -2.1387   -3.8443 H   0  0  0  0  0  0  0  0  0  0  0  0
    4.5953   -0.8128   -4.8182 H   0  0  0  0  0  0  0  0  0  0  0  0
    2.4540   -0.3103   -3.4040 N   0  0  0  0  0  0  0  0  0  0  0  0
    1.1494   -0.2128   -2.8039 C   0  0  2  0  0  0  0  0  0  0  0  0
    1.3350    0.0367   -1.3130 C   0  0  0  0  0  0  0  0  0  0  0  0
    2.3625   -0.2586   -0.7063 O   0  0  0  0  0  0  0  0  0  0  0  0
    0.3331   -1.4728   -3.0467 C   0  0  0  0  0  0  0  0  0  0  0  0
    2.6924    0.3404   -4.1502 H   0  0  0  0  0  0  0  0  0  0  0  0
    0.6550    0.6514   -3.2607 H   0  0  0  0  0  0  0  0  0  0  0  0
    0.8129   -2.3494   -2.5963 H   0  0  0  0  0  0  0  0  0  0  0  0
   -0.6690   -1.3857   -2.6142 H   0  0  0  0  0  0  0  0  0  0  0  0
    0.2259   -1.6670   -4.1194 H   0  0  0  0  0  0  0  0  0  0  0  0
    0.2019    0.5893   -0.7269 N   0  0  0  0  0  0  0  0  0  0  0  0
    0.1242    0.9059    0.6756 C   0  0  2  0  0  0  0  0  0  0  0  0
   -0.1393    2.4046    0.7837 C   0  0  0  0  0  0  0  0  0  0  0  0
   -1.1525    2.9397    0.3385 O   0  0  0  0  0  0  0  0  0  0  0  0
    1.4106    0.5381    1.4260 C   0  0  0  0  0  0  0  0  0  0  0  0
    1.7102   -0.9733    1.4941 C   0  0  0  0  0  0  0  0  0  0  0  0
    3.0840   -1.1990    2.1316 C   0  0  0  0  0  0  0  0  0  0  0  0
    1.6654   -1.6388    0.1179 C   0  0  0  0  0  0  0  0  0  0  0  0
   -0.5975    0.8179   -1.3140 H   0  0  0  0  0  0  0  0  0  0  0  0
   -0.7397    0.3669    1.0774 H   0  0  0  0  0  0  0  0  0  0  0  0
    1.3476    0.9304    2.4508 H   0  0  0  0  0  0  0  0  0  0  0  0
    2.2625    1.0521    0.9614 H   0  0  0  0  0  0  0  0  0  0  0  0
    0.9648   -1.4594    2.1354 H   0  0  0  0  0  0  0  0  0  0  0  0
    3.8729   -0.7330    1.5315 H   0  0  0  0  0  0  0  0  0  0  0  0
    3.3089   -2.2684    2.2031 H   0  0  0  0  0  0  0  0  0  0  0  0
    3.1296   -0.7742    3.1402 H   0  0  0  0  0  0  0  0  0  0  0  0
    2.3942   -1.1886   -0.5647 H   0  0  0  0  0  0  0  0  0  0  0  0
    1.8920   -2.7077    0.1962 H   0  0  0  0  0  0  0  0  0  0  0  0
    0.6735   -1.5522   -0.3351 H   0  0  0  0  0  0  0  0  0  0  0  0
    0.8662    3.0610    1.4797 N   0  0  0  0  0  0  0  0  0  0  0  0
    0.8483    4.4813    1.7465 C   0  0  2  0  0  0  0  0  0  0  0  0
   -0.5824    4.8781    2.0857 C   0  0  0  0  0  0  0  0  0  0  0  0
   -1.5612    4.2204    1.7386 O   0  0  0  0  0  0  0  0  0  0  0  0
    1.3647    5.2745    0.5562 C   0  0  0  0  0  0  0  0  0  0  0  0
    1.6550    2.5281    1.8337 H   0  0  0  0  0  0  0  0  0  0  0  0
    1.4904    4.6474    2.6184 H   0  0  0  0  0  0  0  0  0  0  0  0
    0.7340    5.1206   -0.3270 H   0  0  0  0  0  0  0  0  0  0  0  0
    1.3774    6.3483    0.7703 H   0  0  0  0  0  0  0  0  0  0  0  0
    2.3830    4.9668    0.2950 H   0  0  0  0  0  0  0  0  0  0  0  0
   -0.6401    6.0759    2.7844 N   0  0  0  0  0  0  0  0  0  0  0  0
   -1.8853    6.6709    3.2102 C   0  0  0  0  0  0  0  0  0  0  0  0
    0.2227    6.5437    3.0462 H   0  0  0  0  0  0  0  0  0  0  0  0
   -2.2366    7.3763    2.4428 H   0  0  0  0  0  0  0  0  0  0  0  0
   -2.6380    5.8819    3.3549 H   0  0  0  0  0  0  0  0  0  0  0  0
   -1.7300    7.2076    4.1578 H   0  0  0  0  0  0  0  0  0  0  0  0
  1  3  1  0  0  0  0
  1  7  1  0  0  0  0
  1  2  2  0  0  0  0
 37 38  1  0  0  0  0
 38 46  1  0  0  0  0
 38 39  2  0  0  0  0
  8  9  1  0  0  0  0
  9 17  1  0  0  0  0
  9 10  2  0  0  0  0
 18 19  1  0  0  0  0
 19 36  1  0  0  0  0
 19 20  2  0  0  0  0
 37 40  1  0  0  0  0
  8 11  1  0  0  0  0
 22 23  1  0  0  0  0
 22 24  1  0  0  0  0
 46 47  1  0  0  0  0
 18 21  1  0  0  0  0
 21 22  1  0  0  0  0
 36 37  1  0  0  0  0
  7  8  1  0  0  0  0
 17 18  1  0  0  0  0
  3  4  1  0  0  0  0
  3  5  1  0  0  0  0
  3  6  1  0  0  0  0
 40 43  1  0  0  0  0
 40 44  1  0  0  0  0
 40 45  1  0  0  0  0
 11 14  1  0  0  0  0
 11 15  1  0  0  0  0
 11 16  1  0  0  0  0
 23 30  1  0  0  0  0
 23 31  1  0  0  0  0
 23 32  1  0  0  0  0
 24 33  1  0  0  0  0
 24 34  1  0  0  0  0
 24 35  1  0  0  0  0
 47 49  1  0  0  0  0
 47 50  1  0  0  0  0
 47 51  1  0  0  0  0
 21 27  1  0  0  0  0
 21 28  1  0  0  0  0
 37 42  1  0  0  0  0
  8 13  1  0  0  0  0
 18 26  1  0  0  0  0
 22 29  1  0  0  0  0
 46 48  1  0  0  0  0
  7 12  1  0  0  0  0
 36 41  1  0  0  0  0
 17 25  1  0  0  0  0
M  END
$$$$

  -OEChem-05262214473D

 51 50  0     1  0  0  0  0  0999 V2000
    3.4018   -1.2440   -3.0186 C   0  0  0  0  0  0  0  0  0  0  0  0
    3.2697   -2.0909   -2.1427 O   0  0  0  0  0  0  0  0  0  0  0  0
    4.6845   -1.1645   -3.7779 C   0  0  0  0  0  0  0  0  0  0  0  0
    5.4123   -0.4862   -3.3041 H   0  0  0  0  0  0  0  0  0  0  0  0
    5.1949   -2.1387   -3.8443 H   0  0  0  0  0  0  0  0  0  0  0  0
    4.5953   -0.8128   -4.8182 H   0  0  0  0  0  0  0  0  0  0  0  0
    2.4540   -0.3103   -3.4040 N   0  0  0  0  0  0  0  0  0  0  0  0
    1.1494   -0.2128   -2.8039 C   0  0  2  0  0  0  0  0  0  0  0  0
    1.3350    0.0367   -1.3130 C   0  0  0  0  0  0  0  0  0  0  0  0
    2.3625   -0.2586   -0.7063 O   0  0  0  0  0  0  0  0  0  0  0  0
    0.3331   -1.4728   -3.0467 C   0  0  0  0  0  0  0  0  0  0  0  0
    2.6924    0.3404   -4.1502 H   0  0  0  0  0  0  0  0  0  0  0  0
    0.6550    0.6514   -3.2607 H   0  0  0  0  0  0  0  0  0  0  0  0
    0.8129   -2.3494   -2.5963 H   0  0  0  0  0  0  0  0  0  0  0  0
   -0.6690   -1.3857   -2.6142 H   0  0  0  0  0  0  0  0  0  0  0  0
    0.2259   -1.6670   -4.1194 H   0  0  0  0  0  0  0  0  0  0  0  0
    0.2019    0.5893   -0.7269 N   0  0  0  0  0  0  0  0  0  0  0  0
    0.1242    0.9059    0.6756 C   0  0  2  0  0  0  0  0  0  0  0  0
   -0.1393    2.4046    0.7837 C   0  0  0  0  0  0  0  0  0  0  0  0
   -1.2450    2.9054    0.5890 O   0  0  0  0  0  0  0  0  0  0  0  0
    1.4106    0.5381    1.4260 C   0  0  0  0  0  0  0  0  0  0  0  0
    1.7102   -0.9733    1.4941 C   0  0  0  0  0  0  0  0  0  0  0  0
    3.0840   -1.1990    2.1316 C   0  0  0  0  0  0  0  0  0  0  0  0
    1.6654   -1.6388    0.1179 C   0  0  0  0  0  0  0  0  0  0  0  0
   -0.5975    0.8179   -1.3140 H   0  0  0  0  0  0  0  0  0  0  0  0
   -0.7397    0.3669    1.0774 H   0  0  0  0  0  0  0  0  0  0  0  0
    1.3476    0.9304    2.4508 H   0  0  0  0  0  0  0  0  0  0  0  0
    2.2625    1.0521    0.9614 H   0  0  0  0  0  0  0  0  0  0  0  0
    0.9648   -1.4594    2.1354 H   0  0  0  0  0  0  0  0  0  0  0  0
    3.8729   -0.7330    1.5315 H   0  0  0  0  0  0  0  0  0  0  0  0
    3.3089   -2.2684    2.2031 H   0  0  0  0  0  0  0  0  0  0  0  0
    3.1296   -0.7742    3.1402 H   0  0  0  0  0  0  0  0  0  0  0  0
    2.3942   -1.1886   -0.5647 H   0  0  0  0  0  0  0  0  0  0  0  0
    1.8920   -2.7077    0.1962 H   0  0  0  0  0  0  0  0  0  0  0  0
    0.6735   -1.5522   -0.3351 H   0  0  0  0  0  0  0  0  0  0  0  0
    0.9938    3.1056    1.1723 N   0  0  0  0  0  0  0  0  0  0  0  0
    1.0100    4.5366    1.3745 C   0  0  2  0  0  0  0  0  0  0  0  0
   -0.2969    4.9309    2.0497 C   0  0  0  0  0  0  0  0  0  0  0  0
   -1.3155    4.2453    1.9915 O   0  0  0  0  0  0  0  0  0  0  0  0
    1.1880    5.2792    0.0594 C   0  0  0  0  0  0  0  0  0  0  0  0
    1.8593    2.5999    1.3359 H   0  0  0  0  0  0  0  0  0  0  0  0
    1.8482    4.7516    2.0462 H   0  0  0  0  0  0  0  0  0  0  0  0
    0.3577    5.0761   -0.6267 H   0  0  0  0  0  0  0  0  0  0  0  0
    1.2287    6.3620    0.2175 H   0  0  0  0  0  0  0  0  0  0  0  0
    2.1138    4.9724   -0.4393 H   0  0  0  0  0  0  0  0  0  0  0  0
   -0.2042    6.1594    2.6887 N   0  0  0  0  0  0  0  0  0  0  0  0
   -1.3145    6.7581    3.3921 C   0  0  0  0  0  0  0  0  0  0  0  0
    0.6852    6.6498    2.7021 H   0  0  0  0  0  0  0  0  0  0  0  0
   -1.8661    7.4222    2.7102 H   0  0  0  0  0  0  0  0  0  0  0  0
   -1.9866    5.9674    3.7569 H   0  0  0  0  0  0  0  0  0  0  0  0
   -0.9367    7.3408    4.2452 H   0  0  0  0  0  0  0  0  0  0  0  0
  1  3  1  0  0  0  0
  1  7  1  0  0  0  0
  1  2  2  0  0  0  0
 37 38  1  0  0  0  0
 38 46  1  0  0  0  0
 38 39  2  0  0  0  0
  8  9  1  0  0  0  0
  9 17  1  0  0  0  0
  9 10  2  0  0  0  0
 18 19  1  0  0  0  0
 19 36  1  0  0  0  0
 19 20  2  0  0  0  0
 37 40  1  0  0  0  0
  8 11  1  0  0  0  0
 22 23  1  0  0  0  0
 22 24  1  0  0  0  0
 46 47  1  0  0  0  0
 18 21  1  0  0  0  0
 21 22  1  0  0  0  0
 36 37  1  0  0  0  0
  7  8  1  0  0  0  0
 17 18  1  0  0  0  0
  3  4  1  0  0  0  0
  3  5  1  0  0  0  0
  3  6  1  0  0  0  0
 40 43  1  0  0  0  0
 40 44  1  0  0  0  0
 40 45  1  0  0  0  0
 11 14  1  0  0  0  0
 11 15  1  0  0  0  0
 11 16  1  0  0  0  0
 23 30  1  0  0  0  0
 23 31  1  0  0  0  0
 23 32  1  0  0  0  0
 24 33  1  0  0  0  0
 24 34  1  0  0  0  0
 24 35  1  0  0  0  0
 47 49  1  0  0  0  0
 47 50  1  0  0  0  0
 47 51  1  0  0  0  0
 21 27  1  0  0  0  0
 21 28  1  0  0  0  0
 37 42  1  0  0  0  0
  8 13  1  0  0  0  0
 18 26  1  0  0  0  0
 22 29  1  0  0  0  0
 46 48  1  0  0  0  0
  7 12  1  0  0  0  0
 36 41  1  0  0  0  0
 17 25  1  0  0  0  0
M  END
$$$$

  -OEChem-05262214473D

 51 50  0     1  0  0  0  0  0999 V2000
    3.4018   -1.2440   -3.0186 C   0  0  0  0  0  0  0  0  0  0  0  0
    3.2697   -2.0909   -2.1427 O   0  0  0  0  0  0  0  0  0  0  0  0
    4.6845   -1.1645   -3.7779 C   0  0  0  0  0  0  0  0  0  0  0  0
    5.4123   -0.4862   -3.3041 H   0  0  0  0  0  0  0  0  0  0  0  0
    5.1949   -2.1387   -3.8443 H   0  0  0  0  0  0  0  0  0  0  0  0
    4.5953   -0.8128   -4.8182 H   0  0  0  0  0  0  0  0  0  0  0  0
    2.4540   -0.3103   -3.4040 N   0  0  0  0  0  0  0  0  0  0  0  0
    1.1494   -0.2128   -2.8039 C   0  0  2  0  0  0  0  0  0  0  0  0
    1.3350    0.0367   -1.3130 C   0  0  0  0  0  0  0  0  0  0  0  0
    2.3625   -0.2586   -0.7063 O   0  0  0  0  0  0  0  0  0  0  0  0
    0.3331   -1.4728   -3.0467 C   0  0  0  0  0  0  0  0  0  0  0  0
    2.6924    0.3404   -4.1502 H   0  0  0  0  0  0  0  0  0  0  0  0
    0.6550    0.6514   -3.2607 H   0  0  0  0  0  0  0  0  0  0  0  0
    0.8129   -2.3494   -2.5963 H   0  0  0  0  0  0  0  0  0  0  0  0
   -0.6690   -1.3857   -2.6142 H   0  0  0  0  0  0  0  0  0  0  0  0
    0.2259   -1.6670   -4.1194 H   0  0  0  0  0  0  0  0  0  0  0  0
    0.2019    0.5893   -0.7269 N   0  0  0  0  0  0  0  0  0  0  0  0
    0.1242    0.9059    0.6756 C   0  0  2  0  0  0  0  0  0  0  0  0
   -0.1393    2.4046    0.7837 C   0  0  0  0  0  0  0  0  0  0  0  0
   -1.2699    2.8818    0.8560 O   0  0  0  0  0  0  0  0  0  0  0  0
    1.4106    0.5381    1.4260 C   0  0  0  0  0  0  0  0  0  0  0  0
    1.7102   -0.9733    1.4941 C   0  0  0  0  0  0  0  0  0  0  0  0
    3.0840   -1.1990    2.1316 C   0  0  0  0  0  0  0  0  0  0  0  0
    1.6654   -1.6388    0.1179 C   0  0  0  0  0  0  0  0  0  0  0  0
   -0.5975    0.8179   -1.3140 H   0  0  0  0  0  0  0  0  0  0  0  0
   -0.7397    0.3669    1.0774 H   0  0  0  0  0  0  0  0  0  0  0  0
    1.3476    0.9304    2.4508 H   0  0  0  0  0  0  0  0  0  0  0  0
    2.2625    1.0521    0.9614 H   0  0  0  0  0  0  0  0  0  0  0  0
    0.9648   -1.4594    2.1354 H   0  0  0  0  0  0  0  0  0  0  0  0
    3.8729   -0.7330    1.5315 H   0  0  0  0  0  0  0  0  0  0  0  0
    3.3089   -2.2684    2.2031 H   0  0  0  0  0  0  0  0  0  0  0  0
    3.1296   -0.7742    3.1402 H   0  0  0  0  0  0  0  0  0  0  0  0
    2.3942   -1.1886   -0.5647 H   0  0  0  0  0  0  0  0  0  0  0  0
    1.8920   -2.7077    0.1962 H   0  0  0  0  0  0  0  0  0  0  0  0
    0.6735   -1.5522   -0.3351 H   0  0  0  0  0  0  0  0  0  0  0  0
    1.0381    3.1373    0.8408 N   0  0  0  0  0  0  0  0  0  0  0  0
    1.0706    4.5763    0.9715 C   0  0  2  0  0  0  0  0  0  0  0  0
   -0.0312    4.9855    1.9400 C   0  0  0  0  0  0  0  0  0  0  0  0
   -1.0144    4.2852    2.1722 O   0  0  0  0  0  0  0  0  0  0  0  0
    0.8910    5.2584   -0.3758 C   0  0  0  0  0  0  0  0  0  0  0  0
    1.9287    2.6508    0.7999 H   0  0  0  0  0  0  0  0  0  0  0  0
    2.0464    4.8332    1.3978 H   0  0  0  0  0  0  0  0  0  0  0  0
   -0.0812    5.0128   -0.8185 H   0  0  0  0  0  0  0  0  0  0  0  0
    0.9443    6.3478   -0.2792 H   0  0  0  0  0  0  0  0  0  0  0  0
    1.6669    4.9401   -1.0803 H   0  0  0  0  0  0  0  0  0  0  0  0
    0.1910    6.2438    2.4817 N   0  0  0  0  0  0  0  0  0  0  0  0
   -0.7185    6.8610    3.4187 C   0  0  0  0  0  0  0  0  0  0  0  0
    1.0426    6.7455    2.2474 H   0  0  0  0  0  0  0  0  0  0  0  0
   -1.4409    7.4852    2.8723 H   0  0  0  0  0  0  0  0  0  0  0  0
   -1.2567    6.0799    3.9758 H   0  0  0  0  0  0  0  0  0  0  0  0
   -0.1507    7.4878    4.1220 H   0  0  0  0  0  0  0  0  0  0  0  0
  1  3  1  0  0  0  0
  1  7  1  0  0  0  0
  1  2  2  0  0  0  0
 37 38  1  0  0  0  0
 38 46  1  0  0  0  0
 38 39  2  0  0  0  0
  8  9  1  0  0  0  0
  9 17  1  0  0  0  0
  9 10  2  0  0  0  0
 18 19  1  0  0  0  0
 19 36  1  0  0  0  0
 19 20  2  0  0  0  0
 37 40  1  0  0  0  0
  8 11  1  0  0  0  0
 22 23  1  0  0  0  0
 22 24  1  0  0  0  0
 46 47  1  0  0  0  0
 18 21  1  0  0  0  0
 21 22  1  0  0  0  0
 36 37  1  0  0  0  0
  7  8  1  0  0  0  0
 17 18  1  0  0  0  0
  3  4  1  0  0  0  0
  3  5  1  0  0  0  0
  3  6  1  0  0  0  0
 40 43  1  0  0  0  0
 40 44  1  0  0  0  0
 40 45  1  0  0  0  0
 11 14  1  0  0  0  0
 11 15  1  0  0  0  0
 11 16  1  0  0  0  0
 23 30  1  0  0  0  0
 23 31  1  0  0  0  0
 23 32  1  0  0  0  0
 24 33  1  0  0  0  0
 24 34  1  0  0  0  0
 24 35  1  0  0  0  0
 47 49  1  0  0  0  0
 47 50  1  0  0  0  0
 47 51  1  0  0  0  0
 21 27  1  0  0  0  0
 21 28  1  0  0  0  0
 37 42  1  0  0  0  0
  8 13  1  0  0  0  0
 18 26  1  0  0  0  0
 22 29  1  0  0  0  0
 46 48  1  0  0  0  0
  7 12  1  0  0  0  0
 36 41  1  0  0  0  0
 17 25  1  0  0  0  0
M  END
$$$$

  -OEChem-05262214473D

 51 50  0     1  0  0  0  0  0999 V2000
    3.4018   -1.2440   -3.0186 C   0  0  0  0  0  0  0  0  0  0  0  0
    3.2697   -2.0909   -2.1427 O   0  0  0  0  0  0  0  0  0  0  0  0
    4.6845   -1.1645   -3.7779 C   0  0  0  0  0  0  0  0  0  0  0  0
    5.4123   -0.4862   -3.3041 H   0  0  0  0  0  0  0  0  0  0  0  0
    5.1949   -2.1387   -3.8443 H   0  0  0  0  0  0  0  0  0  0  0  0
    4.5953   -0.8128   -4.8182 H   0  0  0  0  0  0  0  0  0  0  0  0
    2.4540   -0.3103   -3.4040 N   0  0  0  0  0  0  0  0  0  0  0  0
    1.1494   -0.2128   -2.8039 C   0  0  2  0  0  0  0  0  0  0  0  0
    1.3350    0.0367   -1.3130 C   0  0  0  0  0  0  0  0  0  0  0  0
    2.3625   -0.2586   -0.7063 O   0  0  0  0  0  0  0  0  0  0  0  0
    0.3331   -1.4728   -3.0467 C   0  0  0  0  0  0  0  0  0  0  0  0
    2.6924    0.3404   -4.1502 H   0  0  0  0  0  0  0  0  0  0  0  0
    0.6550    0.6514   -3.2607 H   0  0  0  0  0  0  0  0  0  0  0  0
    0.8129   -2.3494   -2.5963 H   0  0  0  0  0  0  0  0  0  0  0  0
   -0.6690   -1.3857   -2.6142 H   0  0  0  0  0  0  0  0  0  0  0  0
    0.2259   -1.6670   -4.1194 H   0  0  0  0  0  0  0  0  0  0  0  0
    0.2019    0.5893   -0.7269 N   0  0  0  0  0  0  0  0  0  0  0  0
    0.1242    0.9059    0.6756 C   0  0  2  0  0  0  0  0  0  0  0  0
   -0.1393    2.4046    0.7837 C   0  0  0  0  0  0  0  0  0  0  0  0
   -1.2257    2.8704    1.1213 O   0  0  0  0  0  0  0  0  0  0  0  0
    1.4106    0.5381    1.4260 C   0  0  0  0  0  0  0  0  0  0  0  0
    1.7102   -0.9733    1.4941 C   0  0  0  0  0  0  0  0  0  0  0  0
    3.0840   -1.1990    2.1316 C   0  0  0  0  0  0  0  0  0  0  0  0
    1.6654   -1.6388    0.1179 C   0  0  0  0  0  0  0  0  0  0  0  0
   -0.5975    0.8179   -1.3140 H   0  0  0  0  0  0  0  0  0  0  0  0
   -0.7397    0.3669    1.0774 H   0  0  0  0  0  0  0  0  0  0  0  0
    1.3476    0.9304    2.4508 H   0  0  0  0  0  0  0  0  0  0  0  0
    2.2625    1.0521    0.9614 H   0  0  0  0  0  0  0  0  0  0  0  0
    0.9648   -1.4594    2.1354 H   0  0  0  0  0  0  0  0  0  0  0  0
    3.8729   -0.7330    1.5315 H   0  0  0  0  0  0  0  0  0  0  0  0
    3.3089   -2.2684    2.2031 H   0  0  0  0  0  0  0  0  0  0  0  0
    3.1296   -0.7742    3.1402 H   0  0  0  0  0  0  0  0  0  0  0  0
    2.3942   -1.1886   -0.5647 H   0  0  0  0  0  0  0  0  0  0  0  0
    1.8920   -2.7077    0.1962 H   0  0  0  0  0  0  0  0  0  0  0  0
    0.6735   -1.5522   -0.3351 H   0  0  0  0  0  0  0  0  0  0  0  0
    0.9960    3.1539    0.5080 N   0  0  0  0  0  0  0  0  0  0  0  0
    1.0259    4.5977    0.5650 C   0  0  2  0  0  0  0  0  0  0  0  0
    0.1965    5.0383    1.7640 C   0  0  0  0  0  0  0  0  0  0  0  0
   -0.6784    4.3374    2.2684 O   0  0  0  0  0  0  0  0  0  0  0  0
    0.4937    5.2133   -0.7197 C   0  0  0  0  0  0  0  0  0  0  0  0
    1.8585    2.6772    0.2622 H   0  0  0  0  0  0  0  0  0  0  0  0
    2.0715    4.8867    0.7175 H   0  0  0  0  0  0  0  0  0  0  0  0
   -0.5528    4.9350   -0.8894 H   0  0  0  0  0  0  0  0  0  0  0  0
    0.5436    6.3067   -0.6861 H   0  0  0  0  0  0  0  0  0  0  0  0
    1.0729    4.8720   -1.5845 H   0  0  0  0  0  0  0  0  0  0  0  0
    0.5185    6.3234    2.1775 N   0  0  0  0  0  0  0  0  0  0  0  0
   -0.1380    6.9725    3.2882 C   0  0  0  0  0  0  0  0  0  0  0  0
    1.2704    6.8241    1.7130 H   0  0  0  0  0  0  0  0  0  0  0  0
   -0.9902    7.5611    2.9179 H   0  0  0  0  0  0  0  0  0  0  0  0
   -0.4981    6.2118    3.9965 H   0  0  0  0  0  0  0  0  0  0  0  0
    0.5745    7.6388    3.7965 H   0  0  0  0  0  0  0  0  0  0  0  0
  1  3  1  0  0  0  0
  1  7  1  0  0  0  0
  1  2  2  0  0  0  0
 37 38  1  0  0  0  0
 38 46  1  0  0  0  0
 38 39  2  0  0  0  0
  8  9  1  0  0  0  0
  9 17  1  0  0  0  0
  9 10  2  0  0  0  0
 18 19  1  0  0  0  0
 19 36  1  0  0  0  0
 19 20  2  0  0  0  0
 37 40  1  0  0  0  0
  8 11  1  0  0  0  0
 22 23  1  0  0  0  0
 22 24  1  0  0  0  0
 46 47  1  0  0  0  0
 18 21  1  0  0  0  0
 21 22  1  0  0  0  0
 36 37  1  0  0  0  0
  7  8  1  0  0  0  0
 17 18  1  0  0  0  0
  3  4  1  0  0  0  0
  3  5  1  0  0  0  0
  3  6  1  0  0  0  0
 40 43  1  0  0  0  0
 40 44  1  0  0  0  0
 40 45  1  0  0  0  0
 11 14  1  0  0  0  0
 11 15  1  0  0  0  0
 11 16  1  0  0  0  0
 23 30  1  0  0  0  0
 23 31  1  0  0  0  0
 23 32  1  0  0  0  0
 24 33  1  0  0  0  0
 24 34  1  0  0  0  0
 24 35  1  0  0  0  0
 47 49  1  0  0  0  0
 47 50  1  0  0  0  0
 47 51  1  0  0  0  0
 21 27  1  0  0  0  0
 21 28  1  0  0  0  0
 37 42  1  0  0  0  0
  8 13  1  0  0  0  0
 18 26  1  0  0  0  0
 22 29  1  0  0  0  0
 46 48  1  0  0  0  0
  7 12  1  0  0  0  0
 36 41  1  0  0  0  0
 17 25  1  0  0  0  0
M  END
$$$$

  -OEChem-05262214473D

 51 50  0     1  0  0  0  0  0999 V2000
    3.4018   -1.2440   -3.0186 C   0  0  0  0  0  0  0  0  0  0  0  0
    3.2697   -2.0909   -2.1427 O   0  0  0  0  0  0  0  0  0  0  0  0
    4.6845   -1.1645   -3.7779 C   0  0  0  0  0  0  0  0  0  0  0  0
    5.4123   -0.4862   -3.3041 H   0  0  0  0  0  0  0  0  0  0  0  0
    5.1949   -2.1387   -3.8443 H   0  0  0  0  0  0  0  0  0  0  0  0
    4.5953   -0.8128   -4.8182 H   0  0  0  0  0  0  0  0  0  0  0  0
    2.4540   -0.3103   -3.4040 N   0  0  0  0  0  0  0  0  0  0  0  0
    1.1494   -0.2128   -2.8039 C   0  0  2  0  0  0  0  0  0  0  0  0
    1.3350    0.0367   -1.3130 C   0  0  0  0  0  0  0  0  0  0  0  0
    2.3625   -0.2586   -0.7063 O   0  0  0  0  0  0  0  0  0  0  0  0
    0.3331   -1.4728   -3.0467 C   0  0  0  0  0  0  0  0  0  0  0  0
    2.6924    0.3404   -4.1502 H   0  0  0  0  0  0  0  0  0  0  0  0
    0.6550    0.6514   -3.2607 H   0  0  0  0  0  0  0  0  0  0  0  0
    0.8129   -2.3494   -2.5963 H   0  0  0  0  0  0  0  0  0  0  0  0
   -0.6690   -1.3857   -2.6142 H   0  0  0  0  0  0  0  0  0  0  0  0
    0.2259   -1.6670   -4.1194 H   0  0  0  0  0  0  0  0  0  0  0  0
    0.2019    0.5893   -0.7269 N   0  0  0  0  0  0  0  0  0  0  0  0
    0.1242    0.9059    0.6756 C   0  0  2  0  0  0  0  0  0  0  0  0
   -0.1393    2.4046    0.7837 C   0  0  0  0  0  0  0  0  0  0  0  0
   -1.1153    2.8721    1.3668 O   0  0  0  0  0  0  0  0  0  0  0  0
    1.4106    0.5381    1.4260 C   0  0  0  0  0  0  0  0  0  0  0  0
    1.7102   -0.9733    1.4941 C   0  0  0  0  0  0  0  0  0  0  0  0
    3.0840   -1.1990    2.1316 C   0  0  0  0  0  0  0  0  0  0  0  0
    1.6654   -1.6388    0.1179 C   0  0  0  0  0  0  0  0  0  0  0  0
   -0.5975    0.8179   -1.3140 H   0  0  0  0  0  0  0  0  0  0  0  0
   -0.7397    0.3669    1.0774 H   0  0  0  0  0  0  0  0  0  0  0  0
    1.3476    0.9304    2.4508 H   0  0  0  0  0  0  0  0  0  0  0  0
    2.2625    1.0521    0.9614 H   0  0  0  0  0  0  0  0  0  0  0  0
    0.9648   -1.4594    2.1354 H   0  0  0  0  0  0  0  0  0  0  0  0
    3.8729   -0.7330    1.5315 H   0  0  0  0  0  0  0  0  0  0  0  0
    3.3089   -2.2684    2.2031 H   0  0  0  0  0  0  0  0  0  0  0  0
    3.1296   -0.7742    3.1402 H   0  0  0  0  0  0  0  0  0  0  0  0
    2.3942   -1.1886   -0.5647 H   0  0  0  0  0  0  0  0  0  0  0  0
    1.8920   -2.7077    0.1962 H   0  0  0  0  0  0  0  0  0  0  0  0
    0.6735   -1.5522   -0.3351 H   0  0  0  0  0  0  0  0  0  0  0  0
    0.8704    3.1543    0.1965 N   0  0  0  0  0  0  0  0  0  0  0  0
    0.8789    4.5995    0.1828 C   0  0  2  0  0  0  0  0  0  0  0  0
    0.3707    5.0855    1.5337 C   0  0  0  0  0  0  0  0  0  0  0  0
   -0.3303    4.3982    2.2736 O   0  0  0  0  0  0  0  0  0  0  0  0
    0.0234    5.1472   -0.9489 C   0  0  0  0  0  0  0  0  0  0  0  0
    1.6535    2.6774   -0.2405 H   0  0  0  0  0  0  0  0  0  0  0  0
    1.9217    4.9084    0.0516 H   0  0  0  0  0  0  0  0  0  0  0  0
   -1.0249    4.8480   -0.8345 H   0  0  0  0  0  0  0  0  0  0  0  0
    0.0538    6.2415   -0.9754 H   0  0  0  0  0  0  0  0  0  0  0  0
    0.3721    4.7728   -1.9174 H   0  0  0  0  0  0  0  0  0  0  0  0
    0.7561    6.3926    1.7968 N   0  0  0  0  0  0  0  0  0  0  0  0
    0.3876    7.0850    3.0096 C   0  0  0  0  0  0  0  0  0  0  0  0
    1.3531    6.8803    1.1354 H   0  0  0  0  0  0  0  0  0  0  0  0
   -0.5447    7.6448    2.8440 H   0  0  0  0  0  0  0  0  0  0  0  0
    0.2376    6.3540    3.8178 H   0  0  0  0  0  0  0  0  0  0  0  0
    1.1895    7.7834    3.2910 H   0  0  0  0  0  0  0  0  0  0  0  0
  1  3  1  0  0  0  0
  1  7  1  0  0  0  0
  1  2  2  0  0  0  0
 37 38  1  0  0  0  0
 38 46  1  0  0  0  0
 38 39  2  0  0  0  0
  8  9  1  0  0  0  0
  9 17  1  0  0  0  0
  9 10  2  0  0  0  0
 18 19  1  0  0  0  0
 19 36  1  0  0  0  0
 19 20  2  0  0  0  0
 37 40  1  0  0  0  0
  8 11  1  0  0  0  0
 22 23  1  0  0  0  0
 22 24  1  0  0  0  0
 46 47  1  0  0  0  0
 18 21  1  0  0  0  0
 21 22  1  0  0  0  0
 36 37  1  0  0  0  0
  7  8  1  0  0  0  0
 17 18  1  0  0  0  0
  3  4  1  0  0  0  0
  3  5  1  0  0  0  0
  3  6  1  0  0  0  0
 40 43  1  0  0  0  0
 40 44  1  0  0  0  0
 40 45  1  0  0  0  0
 11 14  1  0  0  0  0
 11 15  1  0  0  0  0
 11 16  1  0  0  0  0
 23 30  1  0  0  0  0
 23 31  1  0  0  0  0
 23 32  1  0  0  0  0
 24 33  1  0  0  0  0
 24 34  1  0  0  0  0
 24 35  1  0  0  0  0
 47 49  1  0  0  0  0
 47 50  1  0  0  0  0
 47 51  1  0  0  0  0
 21 27  1  0  0  0  0
 21 28  1  0  0  0  0
 37 42  1  0  0  0  0
  8 13  1  0  0  0  0
 18 26  1  0  0  0  0
 22 29  1  0  0  0  0
 46 48  1  0  0  0  0
  7 12  1  0  0  0  0
 36 41  1  0  0  0  0
 17 25  1  0  0  0  0
M  END
$$$$

  -OEChem-05262214473D

 51 50  0     1  0  0  0  0  0999 V2000
    3.4018   -1.2440   -3.0186 C   0  0  0  0  0  0  0  0  0  0  0  0
    3.2697   -2.0909   -2.1427 O   0  0  0  0  0  0  0  0  0  0  0  0
    4.6845   -1.1645   -3.7779 C   0  0  0  0  0  0  0  0  0  0  0  0
    5.4123   -0.4862   -3.3041 H   0  0  0  0  0  0  0  0  0  0  0  0
    5.1949   -2.1387   -3.8443 H   0  0  0  0  0  0  0  0  0  0  0  0
    4.5953   -0.8128   -4.8182 H   0  0  0  0  0  0  0  0  0  0  0  0
    2.4540   -0.3103   -3.4040 N   0  0  0  0  0  0  0  0  0  0  0  0
    1.1494   -0.2128   -2.8039 C   0  0  2  0  0  0  0  0  0  0  0  0
    1.3350    0.0367   -1.3130 C   0  0  0  0  0  0  0  0  0  0  0  0
    2.3625   -0.2586   -0.7063 O   0  0  0  0  0  0  0  0  0  0  0  0
    0.3331   -1.4728   -3.0467 C   0  0  0  0  0  0  0  0  0  0  0  0
    2.6924    0.3404   -4.1502 H   0  0  0  0  0  0  0  0  0  0  0  0
    0.6550    0.6514   -3.2607 H   0  0  0  0  0  0  0  0  0  0  0  0
    0.8129   -2.3494   -2.5963 H   0  0  0  0  0  0  0  0  0  0  0  0
   -0.6690   -1.3857   -2.6142 H   0  0  0  0  0  0  0  0  0  0  0  0
    0.2259   -1.6670   -4.1194 H   0  0  0  0  0  0  0  0  0  0  0  0
    0.2019    0.5893   -0.7269 N   0  0  0  0  0  0  0  0  0  0  0  0
    0.1242    0.9059    0.6756 C   0  0  2  0  0  0  0  0  0  0  0  0
   -0.1393    2.4046    0.7837 C   0  0  0  0  0  0  0  0  0  0  0  0
   -0.9463    2.8868    1.5758 O   0  0  0  0  0  0  0  0  0  0  0  0
    1.4106    0.5381    1.4260 C   0  0  0  0  0  0  0  0  0  0  0  0
    1.7102   -0.9733    1.4941 C   0  0  0  0  0  0  0  0  0  0  0  0
    3.0840   -1.1990    2.1316 C   0  0  0  0  0  0  0  0  0  0  0  0
    1.6654   -1.6388    0.1179 C   0  0  0  0  0  0  0  0  0  0  0  0
   -0.5975    0.8179   -1.3140 H   0  0  0  0  0  0  0  0  0  0  0  0
   -0.7397    0.3669    1.0774 H   0  0  0  0  0  0  0  0  0  0  0  0
    1.3476    0.9304    2.4508 H   0  0  0  0  0  0  0  0  0  0  0  0
    2.2625    1.0521    0.9614 H   0  0  0  0  0  0  0  0  0  0  0  0
    0.9648   -1.4594    2.1354 H   0  0  0  0  0  0  0  0  0  0  0  0
    3.8729   -0.7330    1.5315 H   0  0  0  0  0  0  0  0  0  0  0  0
    3.3089   -2.2684    2.2031 H   0  0  0  0  0  0  0  0  0  0  0  0
    3.1296   -0.7742    3.1402 H   0  0  0  0  0  0  0  0  0  0  0  0
    2.3942   -1.1886   -0.5647 H   0  0  0  0  0  0  0  0  0  0  0  0
    1.8920   -2.7077    0.1962 H   0  0  0  0  0  0  0  0  0  0  0  0
    0.6735   -1.5522   -0.3351 H   0  0  0  0  0  0  0  0  0  0  0  0
    0.6699    3.1385   -0.0725 N   0  0  0  0  0  0  0  0  0  0  0  0
    0.6398    4.5814   -0.1490 C   0  0  2  0  0  0  0  0  0  0  0  0
    0.4796    5.1240    1.2649 C   0  0  0  0  0  0  0  0  0  0  0  0
    0.0062    4.4636    2.1873 O   0  0  0  0  0  0  0  0  0  0  0  0
   -0.4879    5.0644   -1.0477 C   0  0  0  0  0  0  0  0  0  0  0  0
    1.3277    2.6514   -0.6739 H   0  0  0  0  0  0  0  0  0  0  0  0
    1.6074    4.8968   -0.5545 H   0  0  0  0  0  0  0  0  0  0  0  0
   -1.4653    4.7578   -0.6576 H   0  0  0  0  0  0  0  0  0  0  0  0
   -0.4917    6.1565   -1.1274 H   0  0  0  0  0  0  0  0  0  0  0  0
   -0.3876    4.6493   -2.0563 H   0  0  0  0  0  0  0  0  0  0  0  0
    0.8875    6.4468    1.3656 N   0  0  0  0  0  0  0  0  0  0  0  0
    0.8223    7.1908    2.6018 C   0  0  0  0  0  0  0  0  0  0  0  0
    1.2851    6.9102    0.5539 H   0  0  0  0  0  0  0  0  0  0  0  0
   -0.1347    7.7305    2.6556 H   0  0  0  0  0  0  0  0  0  0  0  0
    0.9001    6.4969    3.4518 H   0  0  0  0  0  0  0  0  0  0  0  0
    1.6523    7.9117    2.6399 H   0  0  0  0  0  0  0  0  0  0  0  0
  1  3  1  0  0  0  0
  1  7  1  0  0  0  0
  1  2  2  0  0  0  0
 37 38  1  0  0  0  0
 38 46  1  0  0  0  0
 38 39  2  0  0  0  0
  8  9  1  0  0  0  0
  9 17  1  0  0  0  0
  9 10  2  0  0  0  0
 18 19  1  0  0  0  0
 19 36  1  0  0  0  0
 19 20  2  0  0  0  0
 37 40  1  0  0  0  0
  8 11  1  0  0  0  0
 22 23  1  0  0  0  0
 22 24  1  0  0  0  0
 46 47  1  0  0  0  0
 18 21  1  0  0  0  0
 21 22  1  0  0  0  0
 36 37  1  0  0  0  0
  7  8  1  0  0  0  0
 17 18  1  0  0  0  0
  3  4  1  0  0  0  0
  3  5  1  0  0  0  0
  3  6  1  0  0  0  0
 40 43  1  0  0  0  0
 40 44  1  0  0  0  0
 40 45  1  0  0  0  0
 11 14  1  0  0  0  0
 11 15  1  0  0  0  0
 11 16  1  0  0  0  0
 23 30  1  0  0  0  0
 23 31  1  0  0  0  0
 23 32  1  0  0  0  0
 24 33  1  0  0  0  0
 24 34  1  0  0  0  0
 24 35  1  0  0  0  0
 47 49  1  0  0  0  0
 47 50  1  0  0  0  0
 47 51  1  0  0  0  0
 21 27  1  0  0  0  0
 21 28  1  0  0  0  0
 37 42  1  0  0  0  0
  8 13  1  0  0  0  0
 18 26  1  0  0  0  0
 22 29  1  0  0  0  0
 46 48  1  0  0  0  0
  7 12  1  0  0  0  0
 36 41  1  0  0  0  0
 17 25  1  0  0  0  0
M  END
$$$$

  -OEChem-05262214473D

 51 50  0     1  0  0  0  0  0999 V2000
    3.4018   -1.2440   -3.0186 C   0  0  0  0  0  0  0  0  0  0  0  0
    3.2697   -2.0909   -2.1427 O   0  0  0  0  0  0  0  0  0  0  0  0
    4.6845   -1.1645   -3.7779 C   0  0  0  0  0  0  0  0  0  0  0  0
    5.4123   -0.4862   -3.3041 H   0  0  0  0  0  0  0  0  0  0  0  0
    5.1949   -2.1387   -3.8443 H   0  0  0  0  0  0  0  0  0  0  0  0
    4.5953   -0.8128   -4.8182 H   0  0  0  0  0  0  0  0  0  0  0  0
    2.4540   -0.3103   -3.4040 N   0  0  0  0  0  0  0  0  0  0  0  0
    1.1494   -0.2128   -2.8039 C   0  0  2  0  0  0  0  0  0  0  0  0
    1.3350    0.0367   -1.3130 C   0  0  0  0  0  0  0  0  0  0  0  0
    2.3625   -0.2586   -0.7063 O   0  0  0  0  0  0  0  0  0  0  0  0
    0.3331   -1.4728   -3.0467 C   0  0  0  0  0  0  0  0  0  0  0  0
    2.6924    0.3404   -4.1502 H   0  0  0  0  0  0  0  0  0  0  0  0
    0.6550    0.6514   -3.2607 H   0  0  0  0  0  0  0  0  0  0  0  0
    0.8129   -2.3494   -2.5963 H   0  0  0  0  0  0  0  0  0  0  0  0
   -0.6690   -1.3857   -2.6142 H   0  0  0  0  0  0  0  0  0  0  0  0
    0.2259   -1.6670   -4.1194 H   0  0  0  0  0  0  0  0  0  0  0  0
    0.2019    0.5893   -0.7269 N   0  0  0  0  0  0  0  0  0  0  0  0
    0.1242    0.9059    0.6756 C   0  0  2  0  0  0  0  0  0  0  0  0
   -0.1393    2.4046    0.7837 C   0  0  0  0  0  0  0  0  0  0  0  0
   -0.7301    2.9134    1.7340 O   0  0  0  0  0  0  0  0  0  0  0  0
    1.4106    0.5381    1.4260 C   0  0  0  0  0  0  0  0  0  0  0  0
    1.7102   -0.9733    1.4941 C   0  0  0  0  0  0  0  0  0  0  0  0
    3.0840   -1.1990    2.1316 C   0  0  0  0  0  0  0  0  0  0  0  0
    1.6654   -1.6388    0.1179 C   0  0  0  0  0  0  0  0  0  0  0  0
   -0.5975    0.8179   -1.3140 H   0  0  0  0  0  0  0  0  0  0  0  0
   -0.7397    0.3669    1.0774 H   0  0  0  0  0  0  0  0  0  0  0  0
    1.3476    0.9304    2.4508 H   0  0  0  0  0  0  0  0  0  0  0  0
    2.2625    1.0521    0.9614 H   0  0  0  0  0  0  0  0  0  0  0  0
    0.9648   -1.4594    2.1354 H   0  0  0  0  0  0  0  0  0  0  0  0
    3.8729   -0.7330    1.5315 H   0  0  0  0  0  0  0  0  0  0  0  0
    3.3089   -2.2684    2.2031 H   0  0  0  0  0  0  0  0  0  0  0  0
    3.1296   -0.7742    3.1402 H   0  0  0  0  0  0  0  0  0  0  0  0
    2.3942   -1.1886   -0.5647 H   0  0  0  0  0  0  0  0  0  0  0  0
    1.8920   -2.7077    0.1962 H   0  0  0  0  0  0  0  0  0  0  0  0
    0.6735   -1.5522   -0.3351 H   0  0  0  0  0  0  0  0  0  0  0  0
    0.4081    3.1075   -0.2807 N   0  0  0  0  0  0  0  0  0  0  0  0
    0.3248    4.5447   -0.4080 C   0  0  2  0  0  0  0  0  0  0  0  0
    0.5157    5.1512    0.9759 C   0  0  0  0  0  0  0  0  0  0  0  0
    0.3080    4.5290    2.0155 O   0  0  0  0  0  0  0  0  0  0  0  0
   -1.0054    4.9707   -1.0094 C   0  0  0  0  0  0  0  0  0  0  0  0
    0.9032    2.6009   -1.0086 H   0  0  0  0  0  0  0  0  0  0  0  0
    1.1498    4.8528   -1.0594 H   0  0  0  0  0  0  0  0  0  0  0  0
   -1.8441    4.6705   -0.3706 H   0  0  0  0  0  0  0  0  0  0  0  0
   -1.0556    6.0577   -1.1316 H   0  0  0  0  0  0  0  0  0  0  0  0
   -1.1544    4.5098   -1.9918 H   0  0  0  0  0  0  0  0  0  0  0  0
    0.9038    6.4823    0.9133 N   0  0  0  0  0  0  0  0  0  0  0  0
    1.1366    7.2828    2.0926 C   0  0  0  0  0  0  0  0  0  0  0  0
    1.0710    6.9120    0.0082 H   0  0  0  0  0  0  0  0  0  0  0  0
    0.2119    7.8123    2.3655 H   0  0  0  0  0  0  0  0  0  0  0  0
    1.4443    6.6307    2.9234 H   0  0  0  0  0  0  0  0  0  0  0  0
    1.9315    8.0151    1.8875 H   0  0  0  0  0  0  0  0  0  0  0  0
  1  3  1  0  0  0  0
  1  7  1  0  0  0  0
  1  2  2  0  0  0  0
 37 38  1  0  0  0  0
 38 46  1  0  0  0  0
 38 39  2  0  0  0  0
  8  9  1  0  0  0  0
  9 17  1  0  0  0  0
  9 10  2  0  0  0  0
 18 19  1  0  0  0  0
 19 36  1  0  0  0  0
 19 20  2  0  0  0  0
 37 40  1  0  0  0  0
  8 11  1  0  0  0  0
 22 23  1  0  0  0  0
 22 24  1  0  0  0  0
 46 47  1  0  0  0  0
 18 21  1  0  0  0  0
 21 22  1  0  0  0  0
 36 37  1  0  0  0  0
  7  8  1  0  0  0  0
 17 18  1  0  0  0  0
  3  4  1  0  0  0  0
  3  5  1  0  0  0  0
  3  6  1  0  0  0  0
 40 43  1  0  0  0  0
 40 44  1  0  0  0  0
 40 45  1  0  0  0  0
 11 14  1  0  0  0  0
 11 15  1  0  0  0  0
 11 16  1  0  0  0  0
 23 30  1  0  0  0  0
 23 31  1  0  0  0  0
 23 32  1  0  0  0  0
 24 33  1  0  0  0  0
 24 34  1  0  0  0  0
 24 35  1  0  0  0  0
 47 49  1  0  0  0  0
 47 50  1  0  0  0  0
 47 51  1  0  0  0  0
 21 27  1  0  0  0  0
 21 28  1  0  0  0  0
 37 42  1  0  0  0  0
  8 13  1  0  0  0  0
 18 26  1  0  0  0  0
 22 29  1  0  0  0  0
 46 48  1  0  0  0  0
  7 12  1  0  0  0  0
 36 41  1  0  0  0  0
 17 25  1  0  0  0  0
M  END
$$$$

  -OEChem-05262214473D

 51 50  0     1  0  0  0  0  0999 V2000
    3.4018   -1.2440   -3.0186 C   0  0  0  0  0  0  0  0  0  0  0  0
    3.2697   -2.0909   -2.1427 O   0  0  0  0  0  0  0  0  0  0  0  0
    4.6845   -1.1645   -3.7779 C   0  0  0  0  0  0  0  0  0  0  0  0
    5.4123   -0.4862   -3.3041 H   0  0  0  0  0  0  0  0  0  0  0  0
    5.1949   -2.1387   -3.8443 H   0  0  0  0  0  0  0  0  0  0  0  0
    4.5953   -0.8128   -4.8182 H   0  0  0  0  0  0  0  0  0  0  0  0
    2.4540   -0.3103   -3.4040 N   0  0  0  0  0  0  0  0  0  0  0  0
    1.1494   -0.2128   -2.8039 C   0  0  2  0  0  0  0  0  0  0  0  0
    1.3350    0.0367   -1.3130 C   0  0  0  0  0  0  0  0  0  0  0  0
    2.3625   -0.2586   -0.7063 O   0  0  0  0  0  0  0  0  0  0  0  0
    0.3331   -1.4728   -3.0467 C   0  0  0  0  0  0  0  0  0  0  0  0
    2.6924    0.3404   -4.1502 H   0  0  0  0  0  0  0  0  0  0  0  0
    0.6550    0.6514   -3.2607 H   0  0  0  0  0  0  0  0  0  0  0  0
    0.8129   -2.3494   -2.5963 H   0  0  0  0  0  0  0  0  0  0  0  0
   -0.6690   -1.3857   -2.6142 H   0  0  0  0  0  0  0  0  0  0  0  0
    0.2259   -1.6670   -4.1194 H   0  0  0  0  0  0  0  0  0  0  0  0
    0.2019    0.5893   -0.7269 N   0  0  0  0  0  0  0  0  0  0  0  0
    0.1242    0.9059    0.6756 C   0  0  2  0  0  0  0  0  0  0  0  0
   -0.1393    2.4046    0.7837 C   0  0  0  0  0  0  0  0  0  0  0  0
   -0.4816    2.9501    1.8308 O   0  0  0  0  0  0  0  0  0  0  0  0
    1.4106    0.5381    1.4260 C   0  0  0  0  0  0  0  0  0  0  0  0
    1.7102   -0.9733    1.4941 C   0  0  0  0  0  0  0  0  0  0  0  0
    3.0840   -1.1990    2.1316 C   0  0  0  0  0  0  0  0  0  0  0  0
    1.6654   -1.6388    0.1179 C   0  0  0  0  0  0  0  0  0  0  0  0
   -0.5975    0.8179   -1.3140 H   0  0  0  0  0  0  0  0  0  0  0  0
   -0.7397    0.3669    1.0774 H   0  0  0  0  0  0  0  0  0  0  0  0
    1.3476    0.9304    2.4508 H   0  0  0  0  0  0  0  0  0  0  0  0
    2.2625    1.0521    0.9614 H   0  0  0  0  0  0  0  0  0  0  0  0
    0.9648   -1.4594    2.1354 H   0  0  0  0  0  0  0  0  0  0  0  0
    3.8729   -0.7330    1.5315 H   0  0  0  0  0  0  0  0  0  0  0  0
    3.3089   -2.2684    2.2031 H   0  0  0  0  0  0  0  0  0  0  0  0
    3.1296   -0.7742    3.1402 H   0  0  0  0  0  0  0  0  0  0  0  0
    2.3942   -1.1886   -0.5647 H   0  0  0  0  0  0  0  0  0  0  0  0
    1.8920   -2.7077    0.1962 H   0  0  0  0  0  0  0  0  0  0  0  0
    0.6735   -1.5522   -0.3351 H   0  0  0  0  0  0  0  0  0  0  0  0
    0.1029    3.0634   -0.4138 N   0  0  0  0  0  0  0  0  0  0  0  0
   -0.0447    4.4918   -0.5764 C   0  0  2  0  0  0  0  0  0  0  0  0
    0.4766    5.1653    0.6863 C   0  0  0  0  0  0  0  0  0  0  0  0
    0.5547    4.5901    1.7699 O   0  0  0  0  0  0  0  0  0  0  0  0
   -1.4939    4.8723   -0.8366 C   0  0  0  0  0  0  0  0  0  0  0  0
    0.4091    2.5294   -1.2217 H   0  0  0  0  0  0  0  0  0  0  0  0
    0.5803    4.7793   -1.4289 H   0  0  0  0  0  0  0  0  0  0  0  0
   -2.1354    4.5921    0.0068 H   0  0  0  0  0  0  0  0  0  0  0  0
   -1.5997    5.9517   -0.9880 H   0  0  0  0  0  0  0  0  0  0  0  0
   -1.8762    4.3639   -1.7283 H   0  0  0  0  0  0  0  0  0  0  0  0
    0.8038    6.4966    0.4706 N   0  0  0  0  0  0  0  0  0  0  0  0
    1.3091    7.3546    1.5168 C   0  0  0  0  0  0  0  0  0  0  0  0
    0.7254    6.8853   -0.4646 H   0  0  0  0  0  0  0  0  0  0  0  0
    0.4714    7.8848    1.9935 H   0  0  0  0  0  0  0  0  0  0  0  0
    1.8332    6.7463    2.2686 H   0  0  0  0  0  0  0  0  0  0  0  0
    2.0079    8.0864    1.0852 H   0  0  0  0  0  0  0  0  0  0  0  0
  1  3  1  0  0  0  0
  1  7  1  0  0  0  0
  1  2  2  0  0  0  0
 37 38  1  0  0  0  0
 38 46  1  0  0  0  0
 38 39  2  0  0  0  0
  8  9  1  0  0  0  0
  9 17  1  0  0  0  0
  9 10  2  0  0  0  0
 18 19  1  0  0  0  0
 19 36  1  0  0  0  0
 19 20  2  0  0  0  0
 37 40  1  0  0  0  0
  8 11  1  0  0  0  0
 22 23  1  0  0  0  0
 22 24  1  0  0  0  0
 46 47  1  0  0  0  0
 18 21  1  0  0  0  0
 21 22  1  0  0  0  0
 36 37  1  0  0  0  0
  7  8  1  0  0  0  0
 17 18  1  0  0  0  0
  3  4  1  0  0  0  0
  3  5  1  0  0  0  0
  3  6  1  0  0  0  0
 40 43  1  0  0  0  0
 40 44  1  0  0  0  0
 40 45  1  0  0  0  0
 11 14  1  0  0  0  0
 11 15  1  0  0  0  0
 11 16  1  0  0  0  0
 23 30  1  0  0  0  0
 23 31  1  0  0  0  0
 23 32  1  0  0  0  0
 24 33  1  0  0  0  0
 24 34  1  0  0  0  0
 24 35  1  0  0  0  0
 47 49  1  0  0  0  0
 47 50  1  0  0  0  0
 47 51  1  0  0  0  0
 21 27  1  0  0  0  0
 21 28  1  0  0  0  0
 37 42  1  0  0  0  0
  8 13  1  0  0  0  0
 18 26  1  0  0  0  0
 22 29  1  0  0  0  0
 46 48  1  0  0  0  0
  7 12  1  0  0  0  0
 36 41  1  0  0  0  0
 17 25  1  0  0  0  0
M  END
$$$$

  -OEChem-05262214473D

 51 50  0     1  0  0  0  0  0999 V2000
    3.4018   -1.2440   -3.0186 C   0  0  0  0  0  0  0  0  0  0  0  0
    3.2697   -2.0909   -2.1427 O   0  0  0  0  0  0  0  0  0  0  0  0
    4.6845   -1.1645   -3.7779 C   0  0  0  0  0  0  0  0  0  0  0  0
    5.4123   -0.4862   -3.3041 H   0  0  0  0  0  0  0  0  0  0  0  0
    5.1949   -2.1387   -3.8443 H   0  0  0  0  0  0  0  0  0  0  0  0
    4.5953   -0.8128   -4.8182 H   0  0  0  0  0  0  0  0  0  0  0  0
    2.4540   -0.3103   -3.4040 N   0  0  0  0  0  0  0  0  0  0  0  0
    1.1494   -0.2128   -2.8039 C   0  0  2  0  0  0  0  0  0  0  0  0
    1.3350    0.0367   -1.3130 C   0  0  0  0  0  0  0  0  0  0  0  0
    2.3625   -0.2586   -0.7063 O   0  0  0  0  0  0  0  0  0  0  0  0
    0.3331   -1.4728   -3.0467 C   0  0  0  0  0  0  0  0  0  0  0  0
    2.6924    0.3404   -4.1502 H   0  0  0  0  0  0  0  0  0  0  0  0
    0.6550    0.6514   -3.2607 H   0  0  0  0  0  0  0  0  0  0  0  0
    0.8129   -2.3494   -2.5963 H   0  0  0  0  0  0  0  0  0  0  0  0
   -0.6690   -1.3857   -2.6142 H   0  0  0  0  0  0  0  0  0  0  0  0
    0.2259   -1.6670   -4.1194 H   0  0  0  0  0  0  0  0  0  0  0  0
    0.2019    0.5893   -0.7269 N   0  0  0  0  0  0  0  0  0  0  0  0
    0.1242    0.9059    0.6756 C   0  0  2  0  0  0  0  0  0  0  0  0
   -0.1393    2.4046    0.7837 C   0  0  0  0  0  0  0  0  0  0  0  0
   -0.2177    2.9944    1.8594 O   0  0  0  0  0  0  0  0  0  0  0  0
    1.4106    0.5381    1.4260 C   0  0  0  0  0  0  0  0  0  0  0  0
    1.7102   -0.9733    1.4941 C   0  0  0  0  0  0  0  0  0  0  0  0
    3.0840   -1.1990    2.1316 C   0  0  0  0  0  0  0  0  0  0  0  0
    1.6654   -1.6388    0.1179 C   0  0  0  0  0  0  0  0  0  0  0  0
   -0.5975    0.8179   -1.3140 H   0  0  0  0  0  0  0  0  0  0  0  0
   -0.7397    0.3669    1.0774 H   0  0  0  0  0  0  0  0  0  0  0  0
    1.3476    0.9304    2.4508 H   0  0  0  0  0  0  0  0  0  0  0  0
    2.2625    1.0521    0.9614 H   0  0  0  0  0  0  0  0  0  0  0  0
    0.9648   -1.4594    2.1354 H   0  0  0  0  0  0  0  0  0  0  0  0
    3.8729   -0.7330    1.5315 H   0  0  0  0  0  0  0  0  0  0  0  0
    3.3089   -2.2684    2.2031 H   0  0  0  0  0  0  0  0  0  0  0  0
    3.1296   -0.7742    3.1402 H   0  0  0  0  0  0  0  0  0  0  0  0
    2.3942   -1.1886   -0.5647 H   0  0  0  0  0  0  0  0  0  0  0  0
    1.8920   -2.7077    0.1962 H   0  0  0  0  0  0  0  0  0  0  0  0
    0.6735   -1.5522   -0.3351 H   0  0  0  0  0  0  0  0  0  0  0  0
   -0.2250    3.0093   -0.4627 N   0  0  0  0  0  0  0  0  0  0  0  0
   -0.4434    4.4265   -0.6427 C   0  0  2  0  0  0  0  0  0  0  0  0
    0.3649    5.1651    0.4158 C   0  0  0  0  0  0  0  0  0  0  0  0
    0.7294    4.6427    1.4672 O   0  0  0  0  0  0  0  0  0  0  0  0
   -1.9199    4.7761   -0.5412 C   0  0  0  0  0  0  0  0  0  0  0  0
   -0.1211    2.4417   -1.2986 H   0  0  0  0  0  0  0  0  0  0  0  0
   -0.0624    4.6814   -1.6377 H   0  0  0  0  0  0  0  0  0  0  0  0
   -2.3194    4.5279    0.4489 H   0  0  0  0  0  0  0  0  0  0  0  0
   -2.0867    5.8457   -0.7061 H   0  0  0  0  0  0  0  0  0  0  0  0
   -2.5037    4.2215   -1.2837 H   0  0  0  0  0  0  0  0  0  0  0  0
    0.5945    6.4889    0.0678 N   0  0  0  0  0  0  0  0  0  0  0  0
    1.3279    7.4015    0.9135 C   0  0  0  0  0  0  0  0  0  0  0  0
    0.2719    6.8321   -0.8322 H   0  0  0  0  0  0  0  0  0  0  0  0
    0.6261    7.9429    1.5649 H   0  0  0  0  0  0  0  0  0  0  0  0
    2.0402    6.8358    1.5321 H   0  0  0  0  0  0  0  0  0  0  0  0
    1.8764    8.1208    0.2876 H   0  0  0  0  0  0  0  0  0  0  0  0
  1  3  1  0  0  0  0
  1  7  1  0  0  0  0
  1  2  2  0  0  0  0
 37 38  1  0  0  0  0
 38 46  1  0  0  0  0
 38 39  2  0  0  0  0
  8  9  1  0  0  0  0
  9 17  1  0  0  0  0
  9 10  2  0  0  0  0
 18 19  1  0  0  0  0
 19 36  1  0  0  0  0
 19 20  2  0  0  0  0
 37 40  1  0  0  0  0
  8 11  1  0  0  0  0
 22 23  1  0  0  0  0
 22 24  1  0  0  0  0
 46 47  1  0  0  0  0
 18 21  1  0  0  0  0
 21 22  1  0  0  0  0
 36 37  1  0  0  0  0
  7  8  1  0  0  0  0
 17 18  1  0  0  0  0
  3  4  1  0  0  0  0
  3  5  1  0  0  0  0
  3  6  1  0  0  0  0
 40 43  1  0  0  0  0
 40 44  1  0  0  0  0
 40 45  1  0  0  0  0
 11 14  1  0  0  0  0
 11 15  1  0  0  0  0
 11 16  1  0  0  0  0
 23 30  1  0  0  0  0
 23 31  1  0  0  0  0
 23 32  1  0  0  0  0
 24 33  1  0  0  0  0
 24 34  1  0  0  0  0
 24 35  1  0  0  0  0
 47 49  1  0  0  0  0
 47 50  1  0  0  0  0
 47 51  1  0  0  0  0
 21 27  1  0  0  0  0
 21 28  1  0  0  0  0
 37 42  1  0  0  0  0
  8 13  1  0  0  0  0
 18 26  1  0  0  0  0
 22 29  1  0  0  0  0
 46 48  1  0  0  0  0
  7 12  1  0  0  0  0
 36 41  1  0  0  0  0
 17 25  1  0  0  0  0
M  END
$$$$

  -OEChem-05262214473D

 51 50  0     1  0  0  0  0  0999 V2000
    3.4018   -1.2440   -3.0186 C   0  0  0  0  0  0  0  0  0  0  0  0
    3.2697   -2.0909   -2.1427 O   0  0  0  0  0  0  0  0  0  0  0  0
    4.6845   -1.1645   -3.7779 C   0  0  0  0  0  0  0  0  0  0  0  0
    5.4123   -0.4862   -3.3041 H   0  0  0  0  0  0  0  0  0  0  0  0
    5.1949   -2.1387   -3.8443 H   0  0  0  0  0  0  0  0  0  0  0  0
    4.5953   -0.8128   -4.8182 H   0  0  0  0  0  0  0  0  0  0  0  0
    2.4540   -0.3103   -3.4040 N   0  0  0  0  0  0  0  0  0  0  0  0
    1.1494   -0.2128   -2.8039 C   0  0  2  0  0  0  0  0  0  0  0  0
    1.3350    0.0367   -1.3130 C   0  0  0  0  0  0  0  0  0  0  0  0
    2.3625   -0.2586   -0.7063 O   0  0  0  0  0  0  0  0  0  0  0  0
    0.3331   -1.4728   -3.0467 C   0  0  0  0  0  0  0  0  0  0  0  0
    2.6924    0.3404   -4.1502 H   0  0  0  0  0  0  0  0  0  0  0  0
    0.6550    0.6514   -3.2607 H   0  0  0  0  0  0  0  0  0  0  0  0
    0.8129   -2.3494   -2.5963 H   0  0  0  0  0  0  0  0  0  0  0  0
   -0.6690   -1.3857   -2.6142 H   0  0  0  0  0  0  0  0  0  0  0  0
    0.2259   -1.6670   -4.1194 H   0  0  0  0  0  0  0  0  0  0  0  0
    0.2019    0.5893   -0.7269 N   0  0  0  0  0  0  0  0  0  0  0  0
    0.1242    0.9059    0.6756 C   0  0  2  0  0  0  0  0  0  0  0  0
   -0.1393    2.4046    0.7837 C   0  0  0  0  0  0  0  0  0  0  0  0
    0.0438    3.0434    1.8179 O   0  0  0  0  0  0  0  0  0  0  0  0
    1.4106    0.5381    1.4260 C   0  0  0  0  0  0  0  0  0  0  0  0
    1.7102   -0.9733    1.4941 C   0  0  0  0  0  0  0  0  0  0  0  0
    3.0840   -1.1990    2.1316 C   0  0  0  0  0  0  0  0  0  0  0  0
    1.6654   -1.6388    0.1179 C   0  0  0  0  0  0  0  0  0  0  0  0
   -0.5975    0.8179   -1.3140 H   0  0  0  0  0  0  0  0  0  0  0  0
   -0.7397    0.3669    1.0774 H   0  0  0  0  0  0  0  0  0  0  0  0
    1.3476    0.9304    2.4508 H   0  0  0  0  0  0  0  0  0  0  0  0
    2.2625    1.0521    0.9614 H   0  0  0  0  0  0  0  0  0  0  0  0
    0.9648   -1.4594    2.1354 H   0  0  0  0  0  0  0  0  0  0  0  0
    3.8729   -0.7330    1.5315 H   0  0  0  0  0  0  0  0  0  0  0  0
    3.3089   -2.2684    2.2031 H   0  0  0  0  0  0  0  0  0  0  0  0
    3.1296   -0.7742    3.1402 H   0  0  0  0  0  0  0  0  0  0  0  0
    2.3942   -1.1886   -0.5647 H   0  0  0  0  0  0  0  0  0  0  0  0
    1.8920   -2.7077    0.1962 H   0  0  0  0  0  0  0  0  0  0  0  0
    0.6735   -1.5522   -0.3351 H   0  0  0  0  0  0  0  0  0  0  0  0
   -0.5531    2.9488   -0.4243 N   0  0  0  0  0  0  0  0  0  0  0  0
   -0.8442    4.3532   -0.6025 C   0  0  2  0  0  0  0  0  0  0  0  0
    0.1883    5.1509    0.1830 C   0  0  0  0  0  0  0  0  0  0  0  0
    0.8202    4.6831    1.1280 O   0  0  0  0  0  0  0  0  0  0  0  0
   -2.2546    4.6886   -0.1432 C   0  0  0  0  0  0  0  0  0  0  0  0
   -0.6512    2.3439   -1.2342 H   0  0  0  0  0  0  0  0  0  0  0  0
   -0.7346    4.5657   -1.6716 H   0  0  0  0  0  0  0  0  0  0  0  0
   -2.3835    4.4822    0.9256 H   0  0  0  0  0  0  0  0  0  0  0  0
   -2.4835    5.7471   -0.3053 H   0  0  0  0  0  0  0  0  0  0  0  0
   -2.9942    4.0923   -0.6884 H   0  0  0  0  0  0  0  0  0  0  0  0
    0.2900    6.4595   -0.2677 N   0  0  0  0  0  0  0  0  0  0  0  0
    1.1919    7.4201    0.3239 C   0  0  0  0  0  0  0  0  0  0  0  0
   -0.2587    6.7559   -1.0695 H   0  0  0  0  0  0  0  0  0  0  0  0
    0.6656    7.9827    1.1091 H   0  0  0  0  0  0  0  0  0  0  0  0
    2.0513    6.8931    0.7640 H   0  0  0  0  0  0  0  0  0  0  0  0
    1.5460    8.1159   -0.4509 H   0  0  0  0  0  0  0  0  0  0  0  0
  1  3  1  0  0  0  0
  1  7  1  0  0  0  0
  1  2  2  0  0  0  0
 37 38  1  0  0  0  0
 38 46  1  0  0  0  0
 38 39  2  0  0  0  0
  8  9  1  0  0  0  0
  9 17  1  0  0  0  0
  9 10  2  0  0  0  0
 18 19  1  0  0  0  0
 19 36  1  0  0  0  0
 19 20  2  0  0  0  0
 37 40  1  0  0  0  0
  8 11  1  0  0  0  0
 22 23  1  0  0  0  0
 22 24  1  0  0  0  0
 46 47  1  0  0  0  0
 18 21  1  0  0  0  0
 21 22  1  0  0  0  0
 36 37  1  0  0  0  0
  7  8  1  0  0  0  0
 17 18  1  0  0  0  0
  3  4  1  0  0  0  0
  3  5  1  0  0  0  0
  3  6  1  0  0  0  0
 40 43  1  0  0  0  0
 40 44  1  0  0  0  0
 40 45  1  0  0  0  0
 11 14  1  0  0  0  0
 11 15  1  0  0  0  0
 11 16  1  0  0  0  0
 23 30  1  0  0  0  0
 23 31  1  0  0  0  0
 23 32  1  0  0  0  0
 24 33  1  0  0  0  0
 24 34  1  0  0  0  0
 24 35  1  0  0  0  0
 47 49  1  0  0  0  0
 47 50  1  0  0  0  0
 47 51  1  0  0  0  0
 21 27  1  0  0  0  0
 21 28  1  0  0  0  0
 37 42  1  0  0  0  0
  8 13  1  0  0  0  0
 18 26  1  0  0  0  0
 22 29  1  0  0  0  0
 46 48  1  0  0  0  0
  7 12  1  0  0  0  0
 36 41  1  0  0  0  0
 17 25  1  0  0  0  0
M  END
$$$$

  -OEChem-05262214473D

 51 50  0     1  0  0  0  0  0999 V2000
    3.4018   -1.2440   -3.0186 C   0  0  0  0  0  0  0  0  0  0  0  0
    3.2697   -2.0909   -2.1427 O   0  0  0  0  0  0  0  0  0  0  0  0
    4.6845   -1.1645   -3.7779 C   0  0  0  0  0  0  0  0  0  0  0  0
    5.4123   -0.4862   -3.3041 H   0  0  0  0  0  0  0  0  0  0  0  0
    5.1949   -2.1387   -3.8443 H   0  0  0  0  0  0  0  0  0  0  0  0
    4.5953   -0.8128   -4.8182 H   0  0  0  0  0  0  0  0  0  0  0  0
    2.4540   -0.3103   -3.4040 N   0  0  0  0  0  0  0  0  0  0  0  0
    1.1494   -0.2128   -2.8039 C   0  0  2  0  0  0  0  0  0  0  0  0
    1.3350    0.0367   -1.3130 C   0  0  0  0  0  0  0  0  0  0  0  0
    2.3625   -0.2586   -0.7063 O   0  0  0  0  0  0  0  0  0  0  0  0
    0.3331   -1.4728   -3.0467 C   0  0  0  0  0  0  0  0  0  0  0  0
    2.6924    0.3404   -4.1502 H   0  0  0  0  0  0  0  0  0  0  0  0
    0.6550    0.6514   -3.2607 H   0  0  0  0  0  0  0  0  0  0  0  0
    0.8129   -2.3494   -2.5963 H   0  0  0  0  0  0  0  0  0  0  0  0
   -0.6690   -1.3857   -2.6142 H   0  0  0  0  0  0  0  0  0  0  0  0
    0.2259   -1.6670   -4.1194 H   0  0  0  0  0  0  0  0  0  0  0  0
    0.2019    0.5893   -0.7269 N   0  0  0  0  0  0  0  0  0  0  0  0
    0.1242    0.9059    0.6756 C   0  0  2  0  0  0  0  0  0  0  0  0
   -0.1393    2.4046    0.7837 C   0  0  0  0  0  0  0  0  0  0  0  0
    0.2849    3.0936    1.7091 O   0  0  0  0  0  0  0  0  0  0  0  0
    1.4106    0.5381    1.4260 C   0  0  0  0  0  0  0  0  0  0  0  0
    1.7102   -0.9733    1.4941 C   0  0  0  0  0  0  0  0  0  0  0  0
    3.0840   -1.1990    2.1316 C   0  0  0  0  0  0  0  0  0  0  0  0
    1.6654   -1.6388    0.1179 C   0  0  0  0  0  0  0  0  0  0  0  0
   -0.5975    0.8179   -1.3140 H   0  0  0  0  0  0  0  0  0  0  0  0
   -0.7397    0.3669    1.0774 H   0  0  0  0  0  0  0  0  0  0  0  0
    1.3476    0.9304    2.4508 H   0  0  0  0  0  0  0  0  0  0  0  0
    2.2625    1.0521    0.9614 H   0  0  0  0  0  0  0  0  0  0  0  0
    0.9648   -1.4594    2.1354 H   0  0  0  0  0  0  0  0  0  0  0  0
    3.8729   -0.7330    1.5315 H   0  0  0  0  0  0  0  0  0  0  0  0
    3.3089   -2.2684    2.2031 H   0  0  0  0  0  0  0  0  0  0  0  0
    3.1296   -0.7742    3.1402 H   0  0  0  0  0  0  0  0  0  0  0  0
    2.3942   -1.1886   -0.5647 H   0  0  0  0  0  0  0  0  0  0  0  0
    1.8920   -2.7077    0.1962 H   0  0  0  0  0  0  0  0  0  0  0  0
    0.6735   -1.5522   -0.3351 H   0  0  0  0  0  0  0  0  0  0  0  0
   -0.8592    2.8861   -0.3010 N   0  0  0  0  0  0  0  0  0  0  0  0
   -1.2198    4.2767   -0.4585 C   0  0  2  0  0  0  0  0  0  0  0  0
   -0.0412    5.1234    0.0037 C   0  0  0  0  0  0  0  0  0  0  0  0
    0.8209    4.7086    0.7755 O   0  0  0  0  0  0  0  0  0  0  0  0
   -2.4750    4.6157    0.3303 C   0  0  0  0  0  0  0  0  0  0  0  0
   -1.1451    2.2425   -1.0329 H   0  0  0  0  0  0  0  0  0  0  0  0
   -1.3903    4.4400   -1.5282 H   0  0  0  0  0  0  0  0  0  0  0  0
   -2.3234    4.4582    1.4044 H   0  0  0  0  0  0  0  0  0  0  0  0
   -2.7630    5.6624    0.1871 H   0  0  0  0  0  0  0  0  0  0  0  0
   -3.3142    3.9852    0.0172 H   0  0  0  0  0  0  0  0  0  0  0  0
   -0.0889    6.4106   -0.5131 N   0  0  0  0  0  0  0  0  0  0  0  0
    0.9102    7.4092   -0.2119 C   0  0  0  0  0  0  0  0  0  0  0  0
   -0.8301    6.6620   -1.1605 H   0  0  0  0  0  0  0  0  0  0  0  0
    0.5870    8.0015    0.6569 H   0  0  0  0  0  0  0  0  0  0  0  0
    1.8656    6.9144    0.0168 H   0  0  0  0  0  0  0  0  0  0  0  0
    1.0391    8.0722   -1.0801 H   0  0  0  0  0  0  0  0  0  0  0  0
  1  3  1  0  0  0  0
  1  7  1  0  0  0  0
  1  2  2  0  0  0  0
 37 38  1  0  0  0  0
 38 46  1  0  0  0  0
 38 39  2  0  0  0  0
  8  9  1  0  0  0  0
  9 17  1  0  0  0  0
  9 10  2  0  0  0  0
 18 19  1  0  0  0  0
 19 36  1  0  0  0  0
 19 20  2  0  0  0  0
 37 40  1  0  0  0  0
  8 11  1  0  0  0  0
 22 23  1  0  0  0  0
 22 24  1  0  0  0  0
 46 47  1  0  0  0  0
 18 21  1  0  0  0  0
 21 22  1  0  0  0  0
 36 37  1  0  0  0  0
  7  8  1  0  0  0  0
 17 18  1  0  0  0  0
  3  4  1  0  0  0  0
  3  5  1  0  0  0  0
  3  6  1  0  0  0  0
 40 43  1  0  0  0  0
 40 44  1  0  0  0  0
 40 45  1  0  0  0  0
 11 14  1  0  0  0  0
 11 15  1  0  0  0  0
 11 16  1  0  0  0  0
 23 30  1  0  0  0  0
 23 31  1  0  0  0  0
 23 32  1  0  0  0  0
 24 33  1  0  0  0  0
 24 34  1  0  0  0  0
 24 35  1  0  0  0  0
 47 49  1  0  0  0  0
 47 50  1  0  0  0  0
 47 51  1  0  0  0  0
 21 27  1  0  0  0  0
 21 28  1  0  0  0  0
 37 42  1  0  0  0  0
  8 13  1  0  0  0  0
 18 26  1  0  0  0  0
 22 29  1  0  0  0  0
 46 48  1  0  0  0  0
  7 12  1  0  0  0  0
 36 41  1  0  0  0  0
 17 25  1  0  0  0  0
M  END
$$$$

  -OEChem-05262214473D

 51 50  0     1  0  0  0  0  0999 V2000
    3.4018   -1.2440   -3.0186 C   0  0  0  0  0  0  0  0  0  0  0  0
    3.2697   -2.0909   -2.1427 O   0  0  0  0  0  0  0  0  0  0  0  0
    4.6845   -1.1645   -3.7779 C   0  0  0  0  0  0  0  0  0  0  0  0
    5.4123   -0.4862   -3.3041 H   0  0  0  0  0  0  0  0  0  0  0  0
    5.1949   -2.1387   -3.8443 H   0  0  0  0  0  0  0  0  0  0  0  0
    4.5953   -0.8128   -4.8182 H   0  0  0  0  0  0  0  0  0  0  0  0
    2.4540   -0.3103   -3.4040 N   0  0  0  0  0  0  0  0  0  0  0  0
    1.1494   -0.2128   -2.8039 C   0  0  2  0  0  0  0  0  0  0  0  0
    1.3350    0.0367   -1.3130 C   0  0  0  0  0  0  0  0  0  0  0  0
    2.3625   -0.2586   -0.7063 O   0  0  0  0  0  0  0  0  0  0  0  0
    0.3331   -1.4728   -3.0467 C   0  0  0  0  0  0  0  0  0  0  0  0
    2.6924    0.3404   -4.1502 H   0  0  0  0  0  0  0  0  0  0  0  0
    0.6550    0.6514   -3.2607 H   0  0  0  0  0  0  0  0  0  0  0  0
    0.8129   -2.3494   -2.5963 H   0  0  0  0  0  0  0  0  0  0  0  0
   -0.6690   -1.3857   -2.6142 H   0  0  0  0  0  0  0  0  0  0  0  0
    0.2259   -1.6670   -4.1194 H   0  0  0  0  0  0  0  0  0  0  0  0
    0.2019    0.5893   -0.7269 N   0  0  0  0  0  0  0  0  0  0  0  0
    0.1242    0.9059    0.6756 C   0  0  2  0  0  0  0  0  0  0  0  0
   -0.1393    2.4046    0.7837 C   0  0  0  0  0  0  0  0  0  0  0  0
    0.4891    3.1417    1.5406 O   0  0  0  0  0  0  0  0  0  0  0  0
    1.4106    0.5381    1.4260 C   0  0  0  0  0  0  0  0  0  0  0  0
    1.7102   -0.9733    1.4941 C   0  0  0  0  0  0  0  0  0  0  0  0
    3.0840   -1.1990    2.1316 C   0  0  0  0  0  0  0  0  0  0  0  0
    1.6654   -1.6388    0.1179 C   0  0  0  0  0  0  0  0  0  0  0  0
   -0.5975    0.8179   -1.3140 H   0  0  0  0  0  0  0  0  0  0  0  0
   -0.7397    0.3669    1.0774 H   0  0  0  0  0  0  0  0  0  0  0  0
    1.3476    0.9304    2.4508 H   0  0  0  0  0  0  0  0  0  0  0  0
    2.2625    1.0521    0.9614 H   0  0  0  0  0  0  0  0  0  0  0  0
    0.9648   -1.4594    2.1354 H   0  0  0  0  0  0  0  0  0  0  0  0
    3.8729   -0.7330    1.5315 H   0  0  0  0  0  0  0  0  0  0  0  0
    3.3089   -2.2684    2.2031 H   0  0  0  0  0  0  0  0  0  0  0  0
    3.1296   -0.7742    3.1402 H   0  0  0  0  0  0  0  0  0  0  0  0
    2.3942   -1.1886   -0.5647 H   0  0  0  0  0  0  0  0  0  0  0  0
    1.8920   -2.7077    0.1962 H   0  0  0  0  0  0  0  0  0  0  0  0
    0.6735   -1.5522   -0.3351 H   0  0  0  0  0  0  0  0  0  0  0  0
   -1.1224    2.8255   -0.1012 N   0  0  0  0  0  0  0  0  0  0  0  0
   -1.5445    4.2025   -0.2205 C   0  0  2  0  0  0  0  0  0  0  0  0
   -0.3080    5.0847   -0.1099 C   0  0  0  0  0  0  0  0  0  0  0  0
    0.7315    4.7176    0.4337 O   0  0  0  0  0  0  0  0  0  0  0  0
   -2.5662    4.5624    0.8469 C   0  0  0  0  0  0  0  0  0  0  0  0
   -1.5690    2.1446   -0.7083 H   0  0  0  0  0  0  0  0  0  0  0  0
   -1.9849    4.3131   -1.2174 H   0  0  0  0  0  0  0  0  0  0  0  0
   -2.1431    4.4576    1.8527 H   0  0  0  0  0  0  0  0  0  0  0  0
   -2.9063    5.5975    0.7377 H   0  0  0  0  0  0  0  0  0  0  0  0
   -3.4419    3.9074    0.7849 H   0  0  0  0  0  0  0  0  0  0  0  0
   -0.5164    6.3455   -0.6515 N   0  0  0  0  0  0  0  0  0  0  0  0
    0.5020    7.3695   -0.6572 C   0  0  0  0  0  0  0  0  0  0  0  0
   -1.4035    6.5568   -1.0989 H   0  0  0  0  0  0  0  0  0  0  0  0
    0.3958    7.9980    0.2393 H   0  0  0  0  0  0  0  0  0  0  0  0
    1.4959    6.8981   -0.6587 H   0  0  0  0  0  0  0  0  0  0  0  0
    0.3904    7.9925   -1.5569 H   0  0  0  0  0  0  0  0  0  0  0  0
  1  3  1  0  0  0  0
  1  7  1  0  0  0  0
  1  2  2  0  0  0  0
 37 38  1  0  0  0  0
 38 46  1  0  0  0  0
 38 39  2  0  0  0  0
  8  9  1  0  0  0  0
  9 17  1  0  0  0  0
  9 10  2  0  0  0  0
 18 19  1  0  0  0  0
 19 36  1  0  0  0  0
 19 20  2  0  0  0  0
 37 40  1  0  0  0  0
  8 11  1  0  0  0  0
 22 23  1  0  0  0  0
 22 24  1  0  0  0  0
 46 47  1  0  0  0  0
 18 21  1  0  0  0  0
 21 22  1  0  0  0  0
 36 37  1  0  0  0  0
  7  8  1  0  0  0  0
 17 18  1  0  0  0  0
  3  4  1  0  0  0  0
  3  5  1  0  0  0  0
  3  6  1  0  0  0  0
 40 43  1  0  0  0  0
 40 44  1  0  0  0  0
 40 45  1  0  0  0  0
 11 14  1  0  0  0  0
 11 15  1  0  0  0  0
 11 16  1  0  0  0  0
 23 30  1  0  0  0  0
 23 31  1  0  0  0  0
 23 32  1  0  0  0  0
 24 33  1  0  0  0  0
 24 34  1  0  0  0  0
 24 35  1  0  0  0  0
 47 49  1  0  0  0  0
 47 50  1  0  0  0  0
 47 51  1  0  0  0  0
 21 27  1  0  0  0  0
 21 28  1  0  0  0  0
 37 42  1  0  0  0  0
  8 13  1  0  0  0  0
 18 26  1  0  0  0  0
 22 29  1  0  0  0  0
 46 48  1  0  0  0  0
  7 12  1  0  0  0  0
 36 41  1  0  0  0  0
 17 25  1  0  0  0  0
M  END
$$$$

  -OEChem-05262214473D

 51 50  0     1  0  0  0  0  0999 V2000
    3.4018   -1.2440   -3.0186 C   0  0  0  0  0  0  0  0  0  0  0  0
    3.2697   -2.0909   -2.1427 O   0  0  0  0  0  0  0  0  0  0  0  0
    4.6845   -1.1645   -3.7779 C   0  0  0  0  0  0  0  0  0  0  0  0
    5.4123   -0.4862   -3.3041 H   0  0  0  0  0  0  0  0  0  0  0  0
    5.1949   -2.1387   -3.8443 H   0  0  0  0  0  0  0  0  0  0  0  0
    4.5953   -0.8128   -4.8182 H   0  0  0  0  0  0  0  0  0  0  0  0
    2.4540   -0.3103   -3.4040 N   0  0  0  0  0  0  0  0  0  0  0  0
    1.1494   -0.2128   -2.8039 C   0  0  2  0  0  0  0  0  0  0  0  0
    1.3350    0.0367   -1.3130 C   0  0  0  0  0  0  0  0  0  0  0  0
    2.3625   -0.2586   -0.7063 O   0  0  0  0  0  0  0  0  0  0  0  0
    0.3331   -1.4728   -3.0467 C   0  0  0  0  0  0  0  0  0  0  0  0
    2.6924    0.3404   -4.1502 H   0  0  0  0  0  0  0  0  0  0  0  0
    0.6550    0.6514   -3.2607 H   0  0  0  0  0  0  0  0  0  0  0  0
    0.8129   -2.3494   -2.5963 H   0  0  0  0  0  0  0  0  0  0  0  0
   -0.6690   -1.3857   -2.6142 H   0  0  0  0  0  0  0  0  0  0  0  0
    0.2259   -1.6670   -4.1194 H   0  0  0  0  0  0  0  0  0  0  0  0
    0.2019    0.5893   -0.7269 N   0  0  0  0  0  0  0  0  0  0  0  0
    0.1242    0.9059    0.6756 C   0  0  2  0  0  0  0  0  0  0  0  0
   -0.1393    2.4046    0.7837 C   0  0  0  0  0  0  0  0  0  0  0  0
    0.6427    3.1843    1.3236 O   0  0  0  0  0  0  0  0  0  0  0  0
    1.4106    0.5381    1.4260 C   0  0  0  0  0  0  0  0  0  0  0  0
    1.7102   -0.9733    1.4941 C   0  0  0  0  0  0  0  0  0  0  0  0
    3.0840   -1.1990    2.1316 C   0  0  0  0  0  0  0  0  0  0  0  0
    1.6654   -1.6388    0.1179 C   0  0  0  0  0  0  0  0  0  0  0  0
   -0.5975    0.8179   -1.3140 H   0  0  0  0  0  0  0  0  0  0  0  0
   -0.7397    0.3669    1.0774 H   0  0  0  0  0  0  0  0  0  0  0  0
    1.3476    0.9304    2.4508 H   0  0  0  0  0  0  0  0  0  0  0  0
    2.2625    1.0521    0.9614 H   0  0  0  0  0  0  0  0  0  0  0  0
    0.9648   -1.4594    2.1354 H   0  0  0  0  0  0  0  0  0  0  0  0
    3.8729   -0.7330    1.5315 H   0  0  0  0  0  0  0  0  0  0  0  0
    3.3089   -2.2684    2.2031 H   0  0  0  0  0  0  0  0  0  0  0  0
    3.1296   -0.7742    3.1402 H   0  0  0  0  0  0  0  0  0  0  0  0
    2.3942   -1.1886   -0.5647 H   0  0  0  0  0  0  0  0  0  0  0  0
    1.8920   -2.7077    0.1962 H   0  0  0  0  0  0  0  0  0  0  0  0
    0.6735   -1.5522   -0.3351 H   0  0  0  0  0  0  0  0  0  0  0  0
   -1.3246    2.7710    0.1613 N   0  0  0  0  0  0  0  0  0  0  0  0
   -1.7963    4.1354    0.0954 C   0  0  2  0  0  0  0  0  0  0  0  0
   -0.5940    5.0374   -0.1501 C   0  0  0  0  0  0  0  0  0  0  0  0
    0.5581    4.7093    0.1258 O   0  0  0  0  0  0  0  0  0  0  0  0
   -2.5220    4.5323    1.3715 C   0  0  0  0  0  0  0  0  0  0  0  0
   -1.8942    2.0567   -0.2826 H   0  0  0  0  0  0  0  0  0  0  0  0
   -2.4779    4.1934   -0.7603 H   0  0  0  0  0  0  0  0  0  0  0  0
   -1.8550    4.4803    2.2399 H   0  0  0  0  0  0  0  0  0  0  0  0
   -2.9035    5.5568    1.3088 H   0  0  0  0  0  0  0  0  0  0  0  0
   -3.3687    3.8642    1.5623 H   0  0  0  0  0  0  0  0  0  0  0  0
   -0.9633    6.2685   -0.6737 N   0  0  0  0  0  0  0  0  0  0  0  0
   -0.0047    7.3039   -0.9819 C   0  0  0  0  0  0  0  0  0  0  0  0
   -1.9397    6.4473   -0.8888 H   0  0  0  0  0  0  0  0  0  0  0  0
    0.1050    7.9725   -0.1153 H   0  0  0  0  0  0  0  0  0  0  0  0
    0.9673    6.8454   -1.2165 H   0  0  0  0  0  0  0  0  0  0  0  0
   -0.3561    7.8824   -1.8490 H   0  0  0  0  0  0  0  0  0  0  0  0
  1  3  1  0  0  0  0
  1  7  1  0  0  0  0
  1  2  2  0  0  0  0
 37 38  1  0  0  0  0
 38 46  1  0  0  0  0
 38 39  2  0  0  0  0
  8  9  1  0  0  0  0
  9 17  1  0  0  0  0
  9 10  2  0  0  0  0
 18 19  1  0  0  0  0
 19 36  1  0  0  0  0
 19 20  2  0  0  0  0
 37 40  1  0  0  0  0
  8 11  1  0  0  0  0
 22 23  1  0  0  0  0
 22 24  1  0  0  0  0
 46 47  1  0  0  0  0
 18 21  1  0  0  0  0
 21 22  1  0  0  0  0
 36 37  1  0  0  0  0
  7  8  1  0  0  0  0
 17 18  1  0  0  0  0
  3  4  1  0  0  0  0
  3  5  1  0  0  0  0
  3  6  1  0  0  0  0
 40 43  1  0  0  0  0
 40 44  1  0  0  0  0
 40 45  1  0  0  0  0
 11 14  1  0  0  0  0
 11 15  1  0  0  0  0
 11 16  1  0  0  0  0
 23 30  1  0  0  0  0
 23 31  1  0  0  0  0
 23 32  1  0  0  0  0
 24 33  1  0  0  0  0
 24 34  1  0  0  0  0
 24 35  1  0  0  0  0
 47 49  1  0  0  0  0
 47 50  1  0  0  0  0
 47 51  1  0  0  0  0
 21 27  1  0  0  0  0
 21 28  1  0  0  0  0
 37 42  1  0  0  0  0
  8 13  1  0  0  0  0
 18 26  1  0  0  0  0
 22 29  1  0  0  0  0
 46 48  1  0  0  0  0
  7 12  1  0  0  0  0
 36 41  1  0  0  0  0
 17 25  1  0  0  0  0
M  END
$$$$

  -OEChem-05262214473D

 51 50  0     1  0  0  0  0  0999 V2000
    3.4018   -1.2440   -3.0186 C   0  0  0  0  0  0  0  0  0  0  0  0
    3.2697   -2.0909   -2.1427 O   0  0  0  0  0  0  0  0  0  0  0  0
    4.6845   -1.1645   -3.7779 C   0  0  0  0  0  0  0  0  0  0  0  0
    5.4123   -0.4862   -3.3041 H   0  0  0  0  0  0  0  0  0  0  0  0
    5.1949   -2.1387   -3.8443 H   0  0  0  0  0  0  0  0  0  0  0  0
    4.5953   -0.8128   -4.8182 H   0  0  0  0  0  0  0  0  0  0  0  0
    2.4540   -0.3103   -3.4040 N   0  0  0  0  0  0  0  0  0  0  0  0
    1.1494   -0.2128   -2.8039 C   0  0  2  0  0  0  0  0  0  0  0  0
    1.3350    0.0367   -1.3130 C   0  0  0  0  0  0  0  0  0  0  0  0
    2.3625   -0.2586   -0.7063 O   0  0  0  0  0  0  0  0  0  0  0  0
    0.3331   -1.4728   -3.0467 C   0  0  0  0  0  0  0  0  0  0  0  0
    2.6924    0.3404   -4.1502 H   0  0  0  0  0  0  0  0  0  0  0  0
    0.6550    0.6514   -3.2607 H   0  0  0  0  0  0  0  0  0  0  0  0
    0.8129   -2.3494   -2.5963 H   0  0  0  0  0  0  0  0  0  0  0  0
   -0.6690   -1.3857   -2.6142 H   0  0  0  0  0  0  0  0  0  0  0  0
    0.2259   -1.6670   -4.1194 H   0  0  0  0  0  0  0  0  0  0  0  0
    0.2019    0.5893   -0.7269 N   0  0  0  0  0  0  0  0  0  0  0  0
    0.1242    0.9059    0.6756 C   0  0  2  0  0  0  0  0  0  0  0  0
   -0.1393    2.4046    0.7837 C   0  0  0  0  0  0  0  0  0  0  0  0
    0.7352    3.2186    1.0731 O   0  0  0  0  0  0  0  0  0  0  0  0
    1.4106    0.5381    1.4260 C   0  0  0  0  0  0  0  0  0  0  0  0
    1.7102   -0.9733    1.4941 C   0  0  0  0  0  0  0  0  0  0  0  0
    3.0840   -1.1990    2.1316 C   0  0  0  0  0  0  0  0  0  0  0  0
    1.6654   -1.6388    0.1179 C   0  0  0  0  0  0  0  0  0  0  0  0
   -0.5975    0.8179   -1.3140 H   0  0  0  0  0  0  0  0  0  0  0  0
   -0.7397    0.3669    1.0774 H   0  0  0  0  0  0  0  0  0  0  0  0
    1.3476    0.9304    2.4508 H   0  0  0  0  0  0  0  0  0  0  0  0
    2.2625    1.0521    0.9614 H   0  0  0  0  0  0  0  0  0  0  0  0
    0.9648   -1.4594    2.1354 H   0  0  0  0  0  0  0  0  0  0  0  0
    3.8729   -0.7330    1.5315 H   0  0  0  0  0  0  0  0  0  0  0  0
    3.3089   -2.2684    2.2031 H   0  0  0  0  0  0  0  0  0  0  0  0
    3.1296   -0.7742    3.1402 H   0  0  0  0  0  0  0  0  0  0  0  0
    2.3942   -1.1886   -0.5647 H   0  0  0  0  0  0  0  0  0  0  0  0
    1.8920   -2.7077    0.1962 H   0  0  0  0  0  0  0  0  0  0  0  0
    0.6735   -1.5522   -0.3351 H   0  0  0  0  0  0  0  0  0  0  0  0
   -1.4523    2.7263    0.4688 N   0  0  0  0  0  0  0  0  0  0  0  0
   -1.9580    4.0802    0.4675 C   0  0  2  0  0  0  0  0  0  0  0  0
   -0.8795    4.9846   -0.1141 C   0  0  0  0  0  0  0  0  0  0  0  0
    0.3125    4.6843   -0.1270 O   0  0  0  0  0  0  0  0  0  0  0  0
   -2.3453    4.5276    1.8684 C   0  0  0  0  0  0  0  0  0  0  0  0
   -2.0985    1.9849    0.2153 H   0  0  0  0  0  0  0  0  0  0  0  0
   -2.8357    4.0893   -0.1881 H   0  0  0  0  0  0  0  0  0  0  0  0
   -1.4787    4.5249    2.5396 H   0  0  0  0  0  0  0  0  0  0  0  0
   -2.7549    5.5431    1.8616 H   0  0  0  0  0  0  0  0  0  0  0  0
   -3.0995    3.8585    2.2966 H   0  0  0  0  0  0  0  0  0  0  0  0
   -1.3992    6.1849   -0.5780 N   0  0  0  0  0  0  0  0  0  0  0  0
   -0.5755    7.2166   -1.1637 C   0  0  0  0  0  0  0  0  0  0  0  0
   -2.4023    6.3412   -0.5447 H   0  0  0  0  0  0  0  0  0  0  0  0
   -0.2655    7.9266   -0.3828 H   0  0  0  0  0  0  0  0  0  0  0  0
    0.3159    6.7599   -1.6185 H   0  0  0  0  0  0  0  0  0  0  0  0
   -1.1493    7.7492   -1.9364 H   0  0  0  0  0  0  0  0  0  0  0  0
  1  3  1  0  0  0  0
  1  7  1  0  0  0  0
  1  2  2  0  0  0  0
 37 38  1  0  0  0  0
 38 46  1  0  0  0  0
 38 39  2  0  0  0  0
  8  9  1  0  0  0  0
  9 17  1  0  0  0  0
  9 10  2  0  0  0  0
 18 19  1  0  0  0  0
 19 36  1  0  0  0  0
 19 20  2  0  0  0  0
 37 40  1  0  0  0  0
  8 11  1  0  0  0  0
 22 23  1  0  0  0  0
 22 24  1  0  0  0  0
 46 47  1  0  0  0  0
 18 21  1  0  0  0  0
 21 22  1  0  0  0  0
 36 37  1  0  0  0  0
  7  8  1  0  0  0  0
 17 18  1  0  0  0  0
  3  4  1  0  0  0  0
  3  5  1  0  0  0  0
  3  6  1  0  0  0  0
 40 43  1  0  0  0  0
 40 44  1  0  0  0  0
 40 45  1  0  0  0  0
 11 14  1  0  0  0  0
 11 15  1  0  0  0  0
 11 16  1  0  0  0  0
 23 30  1  0  0  0  0
 23 31  1  0  0  0  0
 23 32  1  0  0  0  0
 24 33  1  0  0  0  0
 24 34  1  0  0  0  0
 24 35  1  0  0  0  0
 47 49  1  0  0  0  0
 47 50  1  0  0  0  0
 47 51  1  0  0  0  0
 21 27  1  0  0  0  0
 21 28  1  0  0  0  0
 37 42  1  0  0  0  0
  8 13  1  0  0  0  0
 18 26  1  0  0  0  0
 22 29  1  0  0  0  0
 46 48  1  0  0  0  0
  7 12  1  0  0  0  0
 36 41  1  0  0  0  0
 17 25  1  0  0  0  0
M  END
$$$$

  -OEChem-05262214473D

 51 50  0     1  0  0  0  0  0999 V2000
    3.4018   -1.2440   -3.0186 C   0  0  0  0  0  0  0  0  0  0  0  0
    3.2697   -2.0909   -2.1427 O   0  0  0  0  0  0  0  0  0  0  0  0
    4.6845   -1.1645   -3.7779 C   0  0  0  0  0  0  0  0  0  0  0  0
    5.4123   -0.4862   -3.3041 H   0  0  0  0  0  0  0  0  0  0  0  0
    5.1949   -2.1387   -3.8443 H   0  0  0  0  0  0  0  0  0  0  0  0
    4.5953   -0.8128   -4.8182 H   0  0  0  0  0  0  0  0  0  0  0  0
    2.4540   -0.3103   -3.4040 N   0  0  0  0  0  0  0  0  0  0  0  0
    1.1494   -0.2128   -2.8039 C   0  0  2  0  0  0  0  0  0  0  0  0
    1.3350    0.0367   -1.3130 C   0  0  0  0  0  0  0  0  0  0  0  0
    2.3625   -0.2586   -0.7063 O   0  0  0  0  0  0  0  0  0  0  0  0
    0.3331   -1.4728   -3.0467 C   0  0  0  0  0  0  0  0  0  0  0  0
    2.6924    0.3404   -4.1502 H   0  0  0  0  0  0  0  0  0  0  0  0
    0.6550    0.6514   -3.2607 H   0  0  0  0  0  0  0  0  0  0  0  0
    0.8129   -2.3494   -2.5963 H   0  0  0  0  0  0  0  0  0  0  0  0
   -0.6690   -1.3857   -2.6142 H   0  0  0  0  0  0  0  0  0  0  0  0
    0.2259   -1.6670   -4.1194 H   0  0  0  0  0  0  0  0  0  0  0  0
    0.2019    0.5893   -0.7269 N   0  0  0  0  0  0  0  0  0  0  0  0
    0.1242    0.9059    0.6756 C   0  0  2  0  0  0  0  0  0  0  0  0
   -0.1393    2.4046    0.7837 C   0  0  0  0  0  0  0  0  0  0  0  0
    0.7601    3.2423    0.8062 O   0  0  0  0  0  0  0  0  0  0  0  0
    1.4106    0.5381    1.4260 C   0  0  0  0  0  0  0  0  0  0  0  0
    1.7102   -0.9733    1.4941 C   0  0  0  0  0  0  0  0  0  0  0  0
    3.0840   -1.1990    2.1316 C   0  0  0  0  0  0  0  0  0  0  0  0
    1.6654   -1.6388    0.1179 C   0  0  0  0  0  0  0  0  0  0  0  0
   -0.5975    0.8179   -1.3140 H   0  0  0  0  0  0  0  0  0  0  0  0
   -0.7397    0.3669    1.0774 H   0  0  0  0  0  0  0  0  0  0  0  0
    1.3476    0.9304    2.4508 H   0  0  0  0  0  0  0  0  0  0  0  0
    2.2625    1.0521    0.9614 H   0  0  0  0  0  0  0  0  0  0  0  0
    0.9648   -1.4594    2.1354 H   0  0  0  0  0  0  0  0  0  0  0  0
    3.8729   -0.7330    1.5315 H   0  0  0  0  0  0  0  0  0  0  0  0
    3.3089   -2.2684    2.2031 H   0  0  0  0  0  0  0  0  0  0  0  0
    3.1296   -0.7742    3.1402 H   0  0  0  0  0  0  0  0  0  0  0  0
    2.3942   -1.1886   -0.5647 H   0  0  0  0  0  0  0  0  0  0  0  0
    1.8920   -2.7077    0.1962 H   0  0  0  0  0  0  0  0  0  0  0  0
    0.6735   -1.5522   -0.3351 H   0  0  0  0  0  0  0  0  0  0  0  0
   -1.4966    2.6946    0.8003 N   0  0  0  0  0  0  0  0  0  0  0  0
   -2.0186    4.0405    0.8705 C   0  0  2  0  0  0  0  0  0  0  0  0
   -1.1451    4.9299   -0.0044 C   0  0  0  0  0  0  0  0  0  0  0  0
    0.0114    4.6444   -0.3077 O   0  0  0  0  0  0  0  0  0  0  0  0
   -2.0482    4.5484    2.3036 C   0  0  0  0  0  0  0  0  0  0  0  0
   -2.1679    1.9340    0.7513 H   0  0  0  0  0  0  0  0  0  0  0  0
   -3.0338    4.0077    0.4603 H   0  0  0  0  0  0  0  0  0  0  0  0
   -1.0398    4.5882    2.7314 H   0  0  0  0  0  0  0  0  0  0  0  0
   -2.4705    5.5572    2.3583 H   0  0  0  0  0  0  0  0  0  0  0  0
   -2.6526    3.8909    2.9377 H   0  0  0  0  0  0  0  0  0  0  0  0
   -1.7944    6.1005   -0.3710 N   0  0  0  0  0  0  0  0  0  0  0  0
   -1.1715    7.1138   -1.1903 C   0  0  0  0  0  0  0  0  0  0  0  0
   -2.7597    6.2456   -0.0900 H   0  0  0  0  0  0  0  0  0  0  0  0
   -0.6907    7.8636   -0.5448 H   0  0  0  0  0  0  0  0  0  0  0  0
   -0.4140    6.6473   -1.8374 H   0  0  0  0  0  0  0  0  0  0  0  0
   -1.9354    7.6021   -1.8132 H   0  0  0  0  0  0  0  0  0  0  0  0
  1  3  1  0  0  0  0
  1  7  1  0  0  0  0
  1  2  2  0  0  0  0
 37 38  1  0  0  0  0
 38 46  1  0  0  0  0
 38 39  2  0  0  0  0
  8  9  1  0  0  0  0
  9 17  1  0  0  0  0
  9 10  2  0  0  0  0
 18 19  1  0  0  0  0
 19 36  1  0  0  0  0
 19 20  2  0  0  0  0
 37 40  1  0  0  0  0
  8 11  1  0  0  0  0
 22 23  1  0  0  0  0
 22 24  1  0  0  0  0
 46 47  1  0  0  0  0
 18 21  1  0  0  0  0
 21 22  1  0  0  0  0
 36 37  1  0  0  0  0
  7  8  1  0  0  0  0
 17 18  1  0  0  0  0
  3  4  1  0  0  0  0
  3  5  1  0  0  0  0
  3  6  1  0  0  0  0
 40 43  1  0  0  0  0
 40 44  1  0  0  0  0
 40 45  1  0  0  0  0
 11 14  1  0  0  0  0
 11 15  1  0  0  0  0
 11 16  1  0  0  0  0
 23 30  1  0  0  0  0
 23 31  1  0  0  0  0
 23 32  1  0  0  0  0
 24 33  1  0  0  0  0
 24 34  1  0  0  0  0
 24 35  1  0  0  0  0
 47 49  1  0  0  0  0
 47 50  1  0  0  0  0
 47 51  1  0  0  0  0
 21 27  1  0  0  0  0
 21 28  1  0  0  0  0
 37 42  1  0  0  0  0
  8 13  1  0  0  0  0
 18 26  1  0  0  0  0
 22 29  1  0  0  0  0
 46 48  1  0  0  0  0
  7 12  1  0  0  0  0
 36 41  1  0  0  0  0
 17 25  1  0  0  0  0
M  END
$$$$

  -OEChem-05262214473D

 51 50  0     1  0  0  0  0  0999 V2000
    3.4018   -1.2440   -3.0186 C   0  0  0  0  0  0  0  0  0  0  0  0
    3.2697   -2.0909   -2.1427 O   0  0  0  0  0  0  0  0  0  0  0  0
    4.6845   -1.1645   -3.7779 C   0  0  0  0  0  0  0  0  0  0  0  0
    5.4123   -0.4862   -3.3041 H   0  0  0  0  0  0  0  0  0  0  0  0
    5.1949   -2.1387   -3.8443 H   0  0  0  0  0  0  0  0  0  0  0  0
    4.5953   -0.8128   -4.8182 H   0  0  0  0  0  0  0  0  0  0  0  0
    2.4540   -0.3103   -3.4040 N   0  0  0  0  0  0  0  0  0  0  0  0
    1.1494   -0.2128   -2.8039 C   0  0  2  0  0  0  0  0  0  0  0  0
    1.3350    0.0367   -1.3130 C   0  0  0  0  0  0  0  0  0  0  0  0
    2.3625   -0.2586   -0.7063 O   0  0  0  0  0  0  0  0  0  0  0  0
    0.3331   -1.4728   -3.0467 C   0  0  0  0  0  0  0  0  0  0  0  0
    2.6924    0.3404   -4.1502 H   0  0  0  0  0  0  0  0  0  0  0  0
    0.6550    0.6514   -3.2607 H   0  0  0  0  0  0  0  0  0  0  0  0
    0.8129   -2.3494   -2.5963 H   0  0  0  0  0  0  0  0  0  0  0  0
   -0.6690   -1.3857   -2.6142 H   0  0  0  0  0  0  0  0  0  0  0  0
    0.2259   -1.6670   -4.1194 H   0  0  0  0  0  0  0  0  0  0  0  0
    0.2019    0.5893   -0.7269 N   0  0  0  0  0  0  0  0  0  0  0  0
    0.1242    0.9059    0.6756 C   0  0  2  0  0  0  0  0  0  0  0  0
   -0.1393    2.4046    0.7837 C   0  0  0  0  0  0  0  0  0  0  0  0
    0.7159    3.2536    0.5409 O   0  0  0  0  0  0  0  0  0  0  0  0
    1.4106    0.5381    1.4260 C   0  0  0  0  0  0  0  0  0  0  0  0
    1.7102   -0.9733    1.4941 C   0  0  0  0  0  0  0  0  0  0  0  0
    3.0840   -1.1990    2.1316 C   0  0  0  0  0  0  0  0  0  0  0  0
    1.6654   -1.6388    0.1179 C   0  0  0  0  0  0  0  0  0  0  0  0
   -0.5975    0.8179   -1.3140 H   0  0  0  0  0  0  0  0  0  0  0  0
   -0.7397    0.3669    1.0774 H   0  0  0  0  0  0  0  0  0  0  0  0
    1.3476    0.9304    2.4508 H   0  0  0  0  0  0  0  0  0  0  0  0
    2.2625    1.0521    0.9614 H   0  0  0  0  0  0  0  0  0  0  0  0
    0.9648   -1.4594    2.1354 H   0  0  0  0  0  0  0  0  0  0  0  0
    3.8729   -0.7330    1.5315 H   0  0  0  0  0  0  0  0  0  0  0  0
    3.3089   -2.2684    2.2031 H   0  0  0  0  0  0  0  0  0  0  0  0
    3.1296   -0.7742    3.1402 H   0  0  0  0  0  0  0  0  0  0  0  0
    2.3942   -1.1886   -0.5647 H   0  0  0  0  0  0  0  0  0  0  0  0
    1.8920   -2.7077    0.1962 H   0  0  0  0  0  0  0  0  0  0  0  0
    0.6735   -1.5522   -0.3351 H   0  0  0  0  0  0  0  0  0  0  0  0
   -1.4545    2.6780    1.1331 N   0  0  0  0  0  0  0  0  0  0  0  0
   -1.9739    4.0190    1.2769 C   0  0  2  0  0  0  0  0  0  0  0  0
   -1.3728    4.8772    0.1716 C   0  0  0  0  0  0  0  0  0  0  0  0
   -0.3247    4.5923   -0.4039 O   0  0  0  0  0  0  0  0  0  0  0  0
   -1.6510    4.5934    2.6475 C   0  0  0  0  0  0  0  0  0  0  0  0
   -2.0977    1.9076    1.2889 H   0  0  0  0  0  0  0  0  0  0  0  0
   -3.0589    3.9542    1.1406 H   0  0  0  0  0  0  0  0  0  0  0  0
   -0.5683    4.6660    2.8023 H   0  0  0  0  0  0  0  0  0  0  0  0
   -2.0697    5.5983    2.7652 H   0  0  0  0  0  0  0  0  0  0  0  0
   -2.0586    3.9589    3.4419 H   0  0  0  0  0  0  0  0  0  0  0  0
   -2.1219    6.0210   -0.0667 N   0  0  0  0  0  0  0  0  0  0  0  0
   -1.7520    7.0023   -1.0599 C   0  0  0  0  0  0  0  0  0  0  0  0
   -2.9874    6.1670    0.4444 H   0  0  0  0  0  0  0  0  0  0  0  0
   -1.1413    7.7876   -0.5905 H   0  0  0  0  0  0  0  0  0  0  0  0
   -1.1726    6.5155   -1.8582 H   0  0  0  0  0  0  0  0  0  0  0  0
   -2.6606    7.4512   -1.4878 H   0  0  0  0  0  0  0  0  0  0  0  0
  1  3  1  0  0  0  0
  1  7  1  0  0  0  0
  1  2  2  0  0  0  0
 37 38  1  0  0  0  0
 38 46  1  0  0  0  0
 38 39  2  0  0  0  0
  8  9  1  0  0  0  0
  9 17  1  0  0  0  0
  9 10  2  0  0  0  0
 18 19  1  0  0  0  0
 19 36  1  0  0  0  0
 19 20  2  0  0  0  0
 37 40  1  0  0  0  0
  8 11  1  0  0  0  0
 22 23  1  0  0  0  0
 22 24  1  0  0  0  0
 46 47  1  0  0  0  0
 18 21  1  0  0  0  0
 21 22  1  0  0  0  0
 36 37  1  0  0  0  0
  7  8  1  0  0  0  0
 17 18  1  0  0  0  0
  3  4  1  0  0  0  0
  3  5  1  0  0  0  0
  3  6  1  0  0  0  0
 40 43  1  0  0  0  0
 40 44  1  0  0  0  0
 40 45  1  0  0  0  0
 11 14  1  0  0  0  0
 11 15  1  0  0  0  0
 11 16  1  0  0  0  0
 23 30  1  0  0  0  0
 23 31  1  0  0  0  0
 23 32  1  0  0  0  0
 24 33  1  0  0  0  0
 24 34  1  0  0  0  0
 24 35  1  0  0  0  0
 47 49  1  0  0  0  0
 47 50  1  0  0  0  0
 47 51  1  0  0  0  0
 21 27  1  0  0  0  0
 21 28  1  0  0  0  0
 37 42  1  0  0  0  0
  8 13  1  0  0  0  0
 18 26  1  0  0  0  0
 22 29  1  0  0  0  0
 46 48  1  0  0  0  0
  7 12  1  0  0  0  0
 36 41  1  0  0  0  0
 17 25  1  0  0  0  0
M  END
$$$$

  -OEChem-05262214473D

 51 50  0     1  0  0  0  0  0999 V2000
    3.4018   -1.2440   -3.0186 C   0  0  0  0  0  0  0  0  0  0  0  0
    3.2697   -2.0909   -2.1427 O   0  0  0  0  0  0  0  0  0  0  0  0
    4.6845   -1.1645   -3.7779 C   0  0  0  0  0  0  0  0  0  0  0  0
    5.4123   -0.4862   -3.3041 H   0  0  0  0  0  0  0  0  0  0  0  0
    5.1949   -2.1387   -3.8443 H   0  0  0  0  0  0  0  0  0  0  0  0
    4.5953   -0.8128   -4.8182 H   0  0  0  0  0  0  0  0  0  0  0  0
    2.4540   -0.3103   -3.4040 N   0  0  0  0  0  0  0  0  0  0  0  0
    1.1494   -0.2128   -2.8039 C   0  0  2  0  0  0  0  0  0  0  0  0
    1.3350    0.0367   -1.3130 C   0  0  0  0  0  0  0  0  0  0  0  0
    2.3625   -0.2586   -0.7063 O   0  0  0  0  0  0  0  0  0  0  0  0
    0.3331   -1.4728   -3.0467 C   0  0  0  0  0  0  0  0  0  0  0  0
    2.6924    0.3404   -4.1502 H   0  0  0  0  0  0  0  0  0  0  0  0
    0.6550    0.6514   -3.2607 H   0  0  0  0  0  0  0  0  0  0  0  0
    0.8129   -2.3494   -2.5963 H   0  0  0  0  0  0  0  0  0  0  0  0
   -0.6690   -1.3857   -2.6142 H   0  0  0  0  0  0  0  0  0  0  0  0
    0.2259   -1.6670   -4.1194 H   0  0  0  0  0  0  0  0  0  0  0  0
    0.2019    0.5893   -0.7269 N   0  0  0  0  0  0  0  0  0  0  0  0
    0.1242    0.9059    0.6756 C   0  0  2  0  0  0  0  0  0  0  0  0
   -0.1393    2.4046    0.7837 C   0  0  0  0  0  0  0  0  0  0  0  0
    0.6055    3.2519    0.2953 O   0  0  0  0  0  0  0  0  0  0  0  0
    1.4106    0.5381    1.4260 C   0  0  0  0  0  0  0  0  0  0  0  0
    1.7102   -0.9733    1.4941 C   0  0  0  0  0  0  0  0  0  0  0  0
    3.0840   -1.1990    2.1316 C   0  0  0  0  0  0  0  0  0  0  0  0
    1.6654   -1.6388    0.1179 C   0  0  0  0  0  0  0  0  0  0  0  0
   -0.5975    0.8179   -1.3140 H   0  0  0  0  0  0  0  0  0  0  0  0
   -0.7397    0.3669    1.0774 H   0  0  0  0  0  0  0  0  0  0  0  0
    1.3476    0.9304    2.4508 H   0  0  0  0  0  0  0  0  0  0  0  0
    2.2625    1.0521    0.9614 H   0  0  0  0  0  0  0  0  0  0  0  0
    0.9648   -1.4594    2.1354 H   0  0  0  0  0  0  0  0  0  0  0  0
    3.8729   -0.7330    1.5315 H   0  0  0  0  0  0  0  0  0  0  0  0
    3.3089   -2.2684    2.2031 H   0  0  0  0  0  0  0  0  0  0  0  0
    3.1296   -0.7742    3.1402 H   0  0  0  0  0  0  0  0  0  0  0  0
    2.3942   -1.1886   -0.5647 H   0  0  0  0  0  0  0  0  0  0  0  0
    1.8920   -2.7077    0.1962 H   0  0  0  0  0  0  0  0  0  0  0  0
    0.6735   -1.5522   -0.3351 H   0  0  0  0  0  0  0  0  0  0  0  0
   -1.3289    2.6777    1.4446 N   0  0  0  0  0  0  0  0  0  0  0  0
   -1.8270    4.0173    1.6591 C   0  0  2  0  0  0  0  0  0  0  0  0
   -1.5471    4.8300    0.4018 C   0  0  0  0  0  0  0  0  0  0  0  0
   -0.6728    4.5315   -0.4091 O   0  0  0  0  0  0  0  0  0  0  0  0
   -1.1807    4.6596    2.8766 C   0  0  0  0  0  0  0  0  0  0  0  0
   -1.8927    1.9074    1.7916 H   0  0  0  0  0  0  0  0  0  0  0  0
   -2.9092    3.9325    1.8064 H   0  0  0  0  0  0  0  0  0  0  0  0
   -0.0962    4.7529    2.7474 H   0  0  0  0  0  0  0  0  0  0  0  0
   -1.5799    5.6636    3.0545 H   0  0  0  0  0  0  0  0  0  0  0  0
   -1.3578    4.0581    3.7747 H   0  0  0  0  0  0  0  0  0  0  0  0
   -2.3595    5.9518    0.3139 N   0  0  0  0  0  0  0  0  0  0  0  0
   -2.2776    6.8898   -0.7812 C   0  0  0  0  0  0  0  0  0  0  0  0
   -3.0702    6.1108    1.0220 H   0  0  0  0  0  0  0  0  0  0  0  0
   -1.5869    7.7040   -0.5166 H   0  0  0  0  0  0  0  0  0  0  0  0
   -1.9083    6.3732   -1.6794 H   0  0  0  0  0  0  0  0  0  0  0  0
   -3.2756    7.3066   -0.9823 H   0  0  0  0  0  0  0  0  0  0  0  0
  1  3  1  0  0  0  0
  1  7  1  0  0  0  0
  1  2  2  0  0  0  0
 37 38  1  0  0  0  0
 38 46  1  0  0  0  0
 38 39  2  0  0  0  0
  8  9  1  0  0  0  0
  9 17  1  0  0  0  0
  9 10  2  0  0  0  0
 18 19  1  0  0  0  0
 19 36  1  0  0  0  0
 19 20  2  0  0  0  0
 37 40  1  0  0  0  0
  8 11  1  0  0  0  0
 22 23  1  0  0  0  0
 22 24  1  0  0  0  0
 46 47  1  0  0  0  0
 18 21  1  0  0  0  0
 21 22  1  0  0  0  0
 36 37  1  0  0  0  0
  7  8  1  0  0  0  0
 17 18  1  0  0  0  0
  3  4  1  0  0  0  0
  3  5  1  0  0  0  0
  3  6  1  0  0  0  0
 40 43  1  0  0  0  0
 40 44  1  0  0  0  0
 40 45  1  0  0  0  0
 11 14  1  0  0  0  0
 11 15  1  0  0  0  0
 11 16  1  0  0  0  0
 23 30  1  0  0  0  0
 23 31  1  0  0  0  0
 23 32  1  0  0  0  0
 24 33  1  0  0  0  0
 24 34  1  0  0  0  0
 24 35  1  0  0  0  0
 47 49  1  0  0  0  0
 47 50  1  0  0  0  0
 47 51  1  0  0  0  0
 21 27  1  0  0  0  0
 21 28  1  0  0  0  0
 37 42  1  0  0  0  0
  8 13  1  0  0  0  0
 18 26  1  0  0  0  0
 22 29  1  0  0  0  0
 46 48  1  0  0  0  0
  7 12  1  0  0  0  0
 36 41  1  0  0  0  0
 17 25  1  0  0  0  0
M  END
$$$$

  -OEChem-05262214473D

 51 50  0     1  0  0  0  0  0999 V2000
    3.4018   -1.2440   -3.0186 C   0  0  0  0  0  0  0  0  0  0  0  0
    3.2697   -2.0909   -2.1427 O   0  0  0  0  0  0  0  0  0  0  0  0
    4.6845   -1.1645   -3.7779 C   0  0  0  0  0  0  0  0  0  0  0  0
    5.4123   -0.4862   -3.3041 H   0  0  0  0  0  0  0  0  0  0  0  0
    5.1949   -2.1387   -3.8443 H   0  0  0  0  0  0  0  0  0  0  0  0
    4.5953   -0.8128   -4.8182 H   0  0  0  0  0  0  0  0  0  0  0  0
    2.4540   -0.3103   -3.4040 N   0  0  0  0  0  0  0  0  0  0  0  0
    1.1494   -0.2128   -2.8039 C   0  0  2  0  0  0  0  0  0  0  0  0
    1.3350    0.0367   -1.3130 C   0  0  0  0  0  0  0  0  0  0  0  0
    2.3625   -0.2586   -0.7063 O   0  0  0  0  0  0  0  0  0  0  0  0
    0.3331   -1.4728   -3.0467 C   0  0  0  0  0  0  0  0  0  0  0  0
    2.6924    0.3404   -4.1502 H   0  0  0  0  0  0  0  0  0  0  0  0
    0.6550    0.6514   -3.2607 H   0  0  0  0  0  0  0  0  0  0  0  0
    0.8129   -2.3494   -2.5963 H   0  0  0  0  0  0  0  0  0  0  0  0
   -0.6690   -1.3857   -2.6142 H   0  0  0  0  0  0  0  0  0  0  0  0
    0.2259   -1.6670   -4.1194 H   0  0  0  0  0  0  0  0  0  0  0  0
    0.2019    0.5893   -0.7269 N   0  0  0  0  0  0  0  0  0  0  0  0
    0.1242    0.9059    0.6756 C   0  0  2  0  0  0  0  0  0  0  0  0
   -0.1393    2.4046    0.7837 C   0  0  0  0  0  0  0  0  0  0  0  0
    0.4365    3.2373    0.0863 O   0  0  0  0  0  0  0  0  0  0  0  0
    1.4106    0.5381    1.4260 C   0  0  0  0  0  0  0  0  0  0  0  0
    1.7102   -0.9733    1.4941 C   0  0  0  0  0  0  0  0  0  0  0  0
    3.0840   -1.1990    2.1316 C   0  0  0  0  0  0  0  0  0  0  0  0
    1.6654   -1.6388    0.1179 C   0  0  0  0  0  0  0  0  0  0  0  0
   -0.5975    0.8179   -1.3140 H   0  0  0  0  0  0  0  0  0  0  0  0
   -0.7397    0.3669    1.0774 H   0  0  0  0  0  0  0  0  0  0  0  0
    1.3476    0.9304    2.4508 H   0  0  0  0  0  0  0  0  0  0  0  0
    2.2625    1.0521    0.9614 H   0  0  0  0  0  0  0  0  0  0  0  0
    0.9648   -1.4594    2.1354 H   0  0  0  0  0  0  0  0  0  0  0  0
    3.8729   -0.7330    1.5315 H   0  0  0  0  0  0  0  0  0  0  0  0
    3.3089   -2.2684    2.2031 H   0  0  0  0  0  0  0  0  0  0  0  0
    3.1296   -0.7742    3.1402 H   0  0  0  0  0  0  0  0  0  0  0  0
    2.3942   -1.1886   -0.5647 H   0  0  0  0  0  0  0  0  0  0  0  0
    1.8920   -2.7077    0.1962 H   0  0  0  0  0  0  0  0  0  0  0  0
    0.6735   -1.5522   -0.3351 H   0  0  0  0  0  0  0  0  0  0  0  0
   -1.1284    2.6935    1.7136 N   0  0  0  0  0  0  0  0  0  0  0  0
   -1.5879    4.0354    1.9909 C   0  0  2  0  0  0  0  0  0  0  0  0
   -1.6560    4.7915    0.6706 C   0  0  0  0  0  0  0  0  0  0  0  0
   -1.0092    4.4661   -0.3228 O   0  0  0  0  0  0  0  0  0  0  0  0
   -0.6693    4.7424    2.9754 C   0  0  0  0  0  0  0  0  0  0  0  0
   -1.5669    1.9334    2.2251 H   0  0  0  0  0  0  0  0  0  0  0  0
   -2.5948    3.9441    2.4125 H   0  0  0  0  0  0  0  0  0  0  0  0
    0.3442    4.8431    2.5704 H   0  0  0  0  0  0  0  0  0  0  0  0
   -1.0345    5.7485    3.2064 H   0  0  0  0  0  0  0  0  0  0  0  0
   -0.5981    4.1817    3.9137 H   0  0  0  0  0  0  0  0  0  0  0  0
   -2.4909    5.8976    0.7451 N   0  0  0  0  0  0  0  0  0  0  0  0
   -2.7124    6.7840   -0.3735 C   0  0  0  0  0  0  0  0  0  0  0  0
   -3.0022    6.0808    1.6035 H   0  0  0  0  0  0  0  0  0  0  0  0
   -1.9969    7.6183   -0.3281 H   0  0  0  0  0  0  0  0  0  0  0  0
   -2.5708    6.2304   -1.3134 H   0  0  0  0  0  0  0  0  0  0  0  0
   -3.7384    7.1783   -0.3311 H   0  0  0  0  0  0  0  0  0  0  0  0
  1  3  1  0  0  0  0
  1  7  1  0  0  0  0
  1  2  2  0  0  0  0
 37 38  1  0  0  0  0
 38 46  1  0  0  0  0
 38 39  2  0  0  0  0
  8  9  1  0  0  0  0
  9 17  1  0  0  0  0
  9 10  2  0  0  0  0
 18 19  1  0  0  0  0
 19 36  1  0  0  0  0
 19 20  2  0  0  0  0
 37 40  1  0  0  0  0
  8 11  1  0  0  0  0
 22 23  1  0  0  0  0
 22 24  1  0  0  0  0
 46 47  1  0  0  0  0
 18 21  1  0  0  0  0
 21 22  1  0  0  0  0
 36 37  1  0  0  0  0
  7  8  1  0  0  0  0
 17 18  1  0  0  0  0
  3  4  1  0  0  0  0
  3  5  1  0  0  0  0
  3  6  1  0  0  0  0
 40 43  1  0  0  0  0
 40 44  1  0  0  0  0
 40 45  1  0  0  0  0
 11 14  1  0  0  0  0
 11 15  1  0  0  0  0
 11 16  1  0  0  0  0
 23 30  1  0  0  0  0
 23 31  1  0  0  0  0
 23 32  1  0  0  0  0
 24 33  1  0  0  0  0
 24 34  1  0  0  0  0
 24 35  1  0  0  0  0
 47 49  1  0  0  0  0
 47 50  1  0  0  0  0
 47 51  1  0  0  0  0
 21 27  1  0  0  0  0
 21 28  1  0  0  0  0
 37 42  1  0  0  0  0
  8 13  1  0  0  0  0
 18 26  1  0  0  0  0
 22 29  1  0  0  0  0
 46 48  1  0  0  0  0
  7 12  1  0  0  0  0
 36 41  1  0  0  0  0
 17 25  1  0  0  0  0
M  END
$$$$

  -OEChem-05262214473D

 51 50  0     1  0  0  0  0  0999 V2000
    3.4018   -1.2440   -3.0186 C   0  0  0  0  0  0  0  0  0  0  0  0
    3.2697   -2.0909   -2.1427 O   0  0  0  0  0  0  0  0  0  0  0  0
    4.6845   -1.1645   -3.7779 C   0  0  0  0  0  0  0  0  0  0  0  0
    5.4123   -0.4862   -3.3041 H   0  0  0  0  0  0  0  0  0  0  0  0
    5.1949   -2.1387   -3.8443 H   0  0  0  0  0  0  0  0  0  0  0  0
    4.5953   -0.8128   -4.8182 H   0  0  0  0  0  0  0  0  0  0  0  0
    2.4540   -0.3103   -3.4040 N   0  0  0  0  0  0  0  0  0  0  0  0
    1.1494   -0.2128   -2.8039 C   0  0  2  0  0  0  0  0  0  0  0  0
    1.3350    0.0367   -1.3130 C   0  0  0  0  0  0  0  0  0  0  0  0
    2.3625   -0.2586   -0.7063 O   0  0  0  0  0  0  0  0  0  0  0  0
    0.3331   -1.4728   -3.0467 C   0  0  0  0  0  0  0  0  0  0  0  0
    2.6924    0.3404   -4.1502 H   0  0  0  0  0  0  0  0  0  0  0  0
    0.6550    0.6514   -3.2607 H   0  0  0  0  0  0  0  0  0  0  0  0
    0.8129   -2.3494   -2.5963 H   0  0  0  0  0  0  0  0  0  0  0  0
   -0.6690   -1.3857   -2.6142 H   0  0  0  0  0  0  0  0  0  0  0  0
    0.2259   -1.6670   -4.1194 H   0  0  0  0  0  0  0  0  0  0  0  0
    0.2019    0.5893   -0.7269 N   0  0  0  0  0  0  0  0  0  0  0  0
    0.1242    0.9059    0.6756 C   0  0  2  0  0  0  0  0  0  0  0  0
   -0.1393    2.4046    0.7837 C   0  0  0  0  0  0  0  0  0  0  0  0
    0.2203    3.2107   -0.0719 O   0  0  0  0  0  0  0  0  0  0  0  0
    1.4106    0.5381    1.4260 C   0  0  0  0  0  0  0  0  0  0  0  0
    1.7102   -0.9733    1.4941 C   0  0  0  0  0  0  0  0  0  0  0  0
    3.0840   -1.1990    2.1316 C   0  0  0  0  0  0  0  0  0  0  0  0
    1.6654   -1.6388    0.1179 C   0  0  0  0  0  0  0  0  0  0  0  0
   -0.5975    0.8179   -1.3140 H   0  0  0  0  0  0  0  0  0  0  0  0
   -0.7397    0.3669    1.0774 H   0  0  0  0  0  0  0  0  0  0  0  0
    1.3476    0.9304    2.4508 H   0  0  0  0  0  0  0  0  0  0  0  0
    2.2625    1.0521    0.9614 H   0  0  0  0  0  0  0  0  0  0  0  0
    0.9648   -1.4594    2.1354 H   0  0  0  0  0  0  0  0  0  0  0  0
    3.8729   -0.7330    1.5315 H   0  0  0  0  0  0  0  0  0  0  0  0
    3.3089   -2.2684    2.2031 H   0  0  0  0  0  0  0  0  0  0  0  0
    3.1296   -0.7742    3.1402 H   0  0  0  0  0  0  0  0  0  0  0  0
    2.3942   -1.1886   -0.5647 H   0  0  0  0  0  0  0  0  0  0  0  0
    1.8920   -2.7077    0.1962 H   0  0  0  0  0  0  0  0  0  0  0  0
    0.6735   -1.5522   -0.3351 H   0  0  0  0  0  0  0  0  0  0  0  0
   -0.8666    2.7245    1.9217 N   0  0  0  0  0  0  0  0  0  0  0  0
   -1.2728    4.0721    2.2499 C   0  0  2  0  0  0  0  0  0  0  0  0
   -1.6921    4.7643    0.9597 C   0  0  0  0  0  0  0  0  0  0  0  0
   -1.3111    4.4006   -0.1510 O   0  0  0  0  0  0  0  0  0  0  0  0
   -0.1518    4.8361    2.9371 C   0  0  0  0  0  0  0  0  0  0  0  0
   -1.1424    1.9839    2.5597 H   0  0  0  0  0  0  0  0  0  0  0  0
   -2.1373    3.9881    2.9175 H   0  0  0  0  0  0  0  0  0  0  0  0
    0.7230    4.9304    2.2835 H   0  0  0  0  0  0  0  0  0  0  0  0
   -0.4705    5.8474    3.2107 H   0  0  0  0  0  0  0  0  0  0  0  0
    0.1687    4.3211    3.8492 H   0  0  0  0  0  0  0  0  0  0  0  0
   -2.5072    5.8621    1.1975 N   0  0  0  0  0  0  0  0  0  0  0  0
   -3.0267    6.6920    0.1357 C   0  0  0  0  0  0  0  0  0  0  0  0
   -2.7881    6.0791    2.1492 H   0  0  0  0  0  0  0  0  0  0  0  0
   -2.3435    7.5364   -0.0380 H   0  0  0  0  0  0  0  0  0  0  0  0
   -3.1150    6.0966   -0.7850 H   0  0  0  0  0  0  0  0  0  0  0  0
   -4.0175    7.0749    0.4212 H   0  0  0  0  0  0  0  0  0  0  0  0
  1  3  1  0  0  0  0
  1  7  1  0  0  0  0
  1  2  2  0  0  0  0
 37 38  1  0  0  0  0
 38 46  1  0  0  0  0
 38 39  2  0  0  0  0
  8  9  1  0  0  0  0
  9 17  1  0  0  0  0
  9 10  2  0  0  0  0
 18 19  1  0  0  0  0
 19 36  1  0  0  0  0
 19 20  2  0  0  0  0
 37 40  1  0  0  0  0
  8 11  1  0  0  0  0
 22 23  1  0  0  0  0
 22 24  1  0  0  0  0
 46 47  1  0  0  0  0
 18 21  1  0  0  0  0
 21 22  1  0  0  0  0
 36 37  1  0  0  0  0
  7  8  1  0  0  0  0
 17 18  1  0  0  0  0
  3  4  1  0  0  0  0
  3  5  1  0  0  0  0
  3  6  1  0  0  0  0
 40 43  1  0  0  0  0
 40 44  1  0  0  0  0
 40 45  1  0  0  0  0
 11 14  1  0  0  0  0
 11 15  1  0  0  0  0
 11 16  1  0  0  0  0
 23 30  1  0  0  0  0
 23 31  1  0  0  0  0
 23 32  1  0  0  0  0
 24 33  1  0  0  0  0
 24 34  1  0  0  0  0
 24 35  1  0  0  0  0
 47 49  1  0  0  0  0
 47 50  1  0  0  0  0
 47 51  1  0  0  0  0
 21 27  1  0  0  0  0
 21 28  1  0  0  0  0
 37 42  1  0  0  0  0
  8 13  1  0  0  0  0
 18 26  1  0  0  0  0
 22 29  1  0  0  0  0
 46 48  1  0  0  0  0
  7 12  1  0  0  0  0
 36 41  1  0  0  0  0
 17 25  1  0  0  0  0
M  END
$$$$

  -OEChem-05262214473D

 51 50  0     1  0  0  0  0  0999 V2000
    3.4018   -1.2440   -3.0186 C   0  0  0  0  0  0  0  0  0  0  0  0
    3.2697   -2.0909   -2.1427 O   0  0  0  0  0  0  0  0  0  0  0  0
    4.6845   -1.1645   -3.7779 C   0  0  0  0  0  0  0  0  0  0  0  0
    5.4123   -0.4862   -3.3041 H   0  0  0  0  0  0  0  0  0  0  0  0
    5.1949   -2.1387   -3.8443 H   0  0  0  0  0  0  0  0  0  0  0  0
    4.5953   -0.8128   -4.8182 H   0  0  0  0  0  0  0  0  0  0  0  0
    2.4540   -0.3103   -3.4040 N   0  0  0  0  0  0  0  0  0  0  0  0
    1.1494   -0.2128   -2.8039 C   0  0  2  0  0  0  0  0  0  0  0  0
    1.3350    0.0367   -1.3130 C   0  0  0  0  0  0  0  0  0  0  0  0
    2.3625   -0.2586   -0.7063 O   0  0  0  0  0  0  0  0  0  0  0  0
    0.3331   -1.4728   -3.0467 C   0  0  0  0  0  0  0  0  0  0  0  0
    2.6924    0.3404   -4.1502 H   0  0  0  0  0  0  0  0  0  0  0  0
    0.6550    0.6514   -3.2607 H   0  0  0  0  0  0  0  0  0  0  0  0
    0.8129   -2.3494   -2.5963 H   0  0  0  0  0  0  0  0  0  0  0  0
   -0.6690   -1.3857   -2.6142 H   0  0  0  0  0  0  0  0  0  0  0  0
    0.2259   -1.6670   -4.1194 H   0  0  0  0  0  0  0  0  0  0  0  0
    0.2019    0.5893   -0.7269 N   0  0  0  0  0  0  0  0  0  0  0  0
    0.1242    0.9059    0.6756 C   0  0  2  0  0  0  0  0  0  0  0  0
   -0.1393    2.4046    0.7837 C   0  0  0  0  0  0  0  0  0  0  0  0
   -0.0282    3.1740   -0.1686 O   0  0  0  0  0  0  0  0  0  0  0  0
    1.4106    0.5381    1.4260 C   0  0  0  0  0  0  0  0  0  0  0  0
    1.7102   -0.9733    1.4941 C   0  0  0  0  0  0  0  0  0  0  0  0
    3.0840   -1.1990    2.1316 C   0  0  0  0  0  0  0  0  0  0  0  0
    1.6654   -1.6388    0.1179 C   0  0  0  0  0  0  0  0  0  0  0  0
   -0.5975    0.8179   -1.3140 H   0  0  0  0  0  0  0  0  0  0  0  0
   -0.7397    0.3669    1.0774 H   0  0  0  0  0  0  0  0  0  0  0  0
    1.3476    0.9304    2.4508 H   0  0  0  0  0  0  0  0  0  0  0  0
    2.2625    1.0521    0.9614 H   0  0  0  0  0  0  0  0  0  0  0  0
    0.9648   -1.4594    2.1354 H   0  0  0  0  0  0  0  0  0  0  0  0
    3.8729   -0.7330    1.5315 H   0  0  0  0  0  0  0  0  0  0  0  0
    3.3089   -2.2684    2.2031 H   0  0  0  0  0  0  0  0  0  0  0  0
    3.1296   -0.7742    3.1402 H   0  0  0  0  0  0  0  0  0  0  0  0
    2.3942   -1.1886   -0.5647 H   0  0  0  0  0  0  0  0  0  0  0  0
    1.8920   -2.7077    0.1962 H   0  0  0  0  0  0  0  0  0  0  0  0
    0.6735   -1.5522   -0.3351 H   0  0  0  0  0  0  0  0  0  0  0  0
   -0.5613    2.7686    2.0548 N   0  0  0  0  0  0  0  0  0  0  0  0
   -0.9034    4.1249    2.4183 C   0  0  2  0  0  0  0  0  0  0  0  0
   -1.6530    4.7502    1.2493 C   0  0  0  0  0  0  0  0  0  0  0  0
   -1.5577    4.3395    0.0946 O   0  0  0  0  0  0  0  0  0  0  0  0
    0.3366    4.9344    2.7644 C   0  0  0  0  0  0  0  0  0  0  0  0
   -0.6483    2.0554    2.7728 H   0  0  0  0  0  0  0  0  0  0  0  0
   -1.5677    4.0616    3.2870 H   0  0  0  0  0  0  0  0  0  0  0  0
    1.0143    5.0089    1.9061 H   0  0  0  0  0  0  0  0  0  0  0  0
    0.0735    5.9534    3.0670 H   0  0  0  0  0  0  0  0  0  0  0  0
    0.8905    4.4670    3.5857 H   0  0  0  0  0  0  0  0  0  0  0  0
   -2.4072    5.8478    1.6402 N   0  0  0  0  0  0  0  0  0  0  0  0
   -3.1991    6.6201    0.7115 C   0  0  0  0  0  0  0  0  0  0  0  0
   -2.4425    6.1057    2.6220 H   0  0  0  0  0  0  0  0  0  0  0  0
   -2.6030    7.4640    0.3340 H   0  0  0  0  0  0  0  0  0  0  0  0
   -3.5039    5.9810   -0.1302 H   0  0  0  0  0  0  0  0  0  0  0  0
   -4.0940    7.0036    1.2235 H   0  0  0  0  0  0  0  0  0  0  0  0
  1  3  1  0  0  0  0
  1  7  1  0  0  0  0
  1  2  2  0  0  0  0
 37 38  1  0  0  0  0
 38 46  1  0  0  0  0
 38 39  2  0  0  0  0
  8  9  1  0  0  0  0
  9 17  1  0  0  0  0
  9 10  2  0  0  0  0
 18 19  1  0  0  0  0
 19 36  1  0  0  0  0
 19 20  2  0  0  0  0
 37 40  1  0  0  0  0
  8 11  1  0  0  0  0
 22 23  1  0  0  0  0
 22 24  1  0  0  0  0
 46 47  1  0  0  0  0
 18 21  1  0  0  0  0
 21 22  1  0  0  0  0
 36 37  1  0  0  0  0
  7  8  1  0  0  0  0
 17 18  1  0  0  0  0
  3  4  1  0  0  0  0
  3  5  1  0  0  0  0
  3  6  1  0  0  0  0
 40 43  1  0  0  0  0
 40 44  1  0  0  0  0
 40 45  1  0  0  0  0
 11 14  1  0  0  0  0
 11 15  1  0  0  0  0
 11 16  1  0  0  0  0
 23 30  1  0  0  0  0
 23 31  1  0  0  0  0
 23 32  1  0  0  0  0
 24 33  1  0  0  0  0
 24 34  1  0  0  0  0
 24 35  1  0  0  0  0
 47 49  1  0  0  0  0
 47 50  1  0  0  0  0
 47 51  1  0  0  0  0
 21 27  1  0  0  0  0
 21 28  1  0  0  0  0
 37 42  1  0  0  0  0
  8 13  1  0  0  0  0
 18 26  1  0  0  0  0
 22 29  1  0  0  0  0
 46 48  1  0  0  0  0
  7 12  1  0  0  0  0
 36 41  1  0  0  0  0
 17 25  1  0  0  0  0
M  END
$$$$

  -OEChem-05262214473D

 51 50  0     1  0  0  0  0  0999 V2000
    3.4018   -1.2440   -3.0186 C   0  0  0  0  0  0  0  0  0  0  0  0
    3.2697   -2.0909   -2.1427 O   0  0  0  0  0  0  0  0  0  0  0  0
    4.6845   -1.1645   -3.7779 C   0  0  0  0  0  0  0  0  0  0  0  0
    5.4123   -0.4862   -3.3041 H   0  0  0  0  0  0  0  0  0  0  0  0
    5.1949   -2.1387   -3.8443 H   0  0  0  0  0  0  0  0  0  0  0  0
    4.5953   -0.8128   -4.8182 H   0  0  0  0  0  0  0  0  0  0  0  0
    2.4540   -0.3103   -3.4040 N   0  0  0  0  0  0  0  0  0  0  0  0
    1.1494   -0.2128   -2.8039 C   0  0  2  0  0  0  0  0  0  0  0  0
    1.3350    0.0367   -1.3130 C   0  0  0  0  0  0  0  0  0  0  0  0
    2.3625   -0.2586   -0.7063 O   0  0  0  0  0  0  0  0  0  0  0  0
    0.3331   -1.4728   -3.0467 C   0  0  0  0  0  0  0  0  0  0  0  0
    2.6924    0.3404   -4.1502 H   0  0  0  0  0  0  0  0  0  0  0  0
    0.6550    0.6514   -3.2607 H   0  0  0  0  0  0  0  0  0  0  0  0
    0.8129   -2.3494   -2.5963 H   0  0  0  0  0  0  0  0  0  0  0  0
   -0.6690   -1.3857   -2.6142 H   0  0  0  0  0  0  0  0  0  0  0  0
    0.2259   -1.6670   -4.1194 H   0  0  0  0  0  0  0  0  0  0  0  0
    0.2019    0.5893   -0.7269 N   0  0  0  0  0  0  0  0  0  0  0  0
    0.1242    0.9059    0.6756 C   0  0  2  0  0  0  0  0  0  0  0  0
   -0.5028    2.2920    0.7889 C   0  0  0  0  0  0  0  0  0  0  0  0
   -0.8876    2.9342   -0.1861 O   0  0  0  0  0  0  0  0  0  0  0  0
    1.5011    0.8897    1.3516 C   0  0  0  0  0  0  0  0  0  0  0  0
    2.1759   -0.4958    1.4121 C   0  0  0  0  0  0  0  0  0  0  0  0
    3.5952   -0.3548    1.9693 C   0  0  0  0  0  0  0  0  0  0  0  0
    2.2249   -1.1802    0.0454 C   0  0  0  0  0  0  0  0  0  0  0  0
   -0.5975    0.8179   -1.3140 H   0  0  0  0  0  0  0  0  0  0  0  0
   -0.5521    0.1755    1.1310 H   0  0  0  0  0  0  0  0  0  0  0  0
    1.3977    1.2753    2.3757 H   0  0  0  0  0  0  0  0  0  0  0  0
    2.1687    1.5916    0.8344 H   0  0  0  0  0  0  0  0  0  0  0  0
    1.6140   -1.1401    2.0993 H   0  0  0  0  0  0  0  0  0  0  0  0
    4.2065    0.2819    1.3209 H   0  0  0  0  0  0  0  0  0  0  0  0
    4.0864   -1.3314    2.0347 H   0  0  0  0  0  0  0  0  0  0  0  0
    3.5875    0.0892    2.9706 H   0  0  0  0  0  0  0  0  0  0  0  0
    2.7775   -0.5757   -0.6818 H   0  0  0  0  0  0  0  0  0  0  0  0
    2.7180   -2.1558    0.1174 H   0  0  0  0  0  0  0  0  0  0  0  0
    1.2198   -1.3557   -0.3491 H   0  0  0  0  0  0  0  0  0  0  0  0
   -0.6266    2.7009    2.1095 N   0  0  0  0  0  0  0  0  0  0  0  0
   -1.2129    3.9639    2.4965 C   0  0  2  0  0  0  0  0  0  0  0  0
   -2.4089    4.2245    1.5904 C   0  0  0  0  0  0  0  0  0  0  0  0
   -2.5384    3.7042    0.4842 O   0  0  0  0  0  0  0  0  0  0  0  0
   -0.2017    5.0958    2.4008 C   0  0  0  0  0  0  0  0  0  0  0  0
   -0.3024    2.0882    2.8519 H   0  0  0  0  0  0  0  0  0  0  0  0
   -1.5554    3.8499    3.5307 H   0  0  0  0  0  0  0  0  0  0  0  0
    0.1530    5.2251    1.3717 H   0  0  0  0  0  0  0  0  0  0  0  0
   -0.6393    6.0469    2.7215 H   0  0  0  0  0  0  0  0  0  0  0  0
    0.6714    4.8926    3.0302 H   0  0  0  0  0  0  0  0  0  0  0  0
   -3.2934    5.1397    2.1439 N   0  0  0  0  0  0  0  0  0  0  0  0
   -4.5002    5.5620    1.4721 C   0  0  0  0  0  0  0  0  0  0  0  0
   -3.1160    5.5060    3.0745 H   0  0  0  0  0  0  0  0  0  0  0  0
   -4.2963    6.4716    0.8881 H   0  0  0  0  0  0  0  0  0  0  0  0
   -4.8433    4.7631    0.7982 H   0  0  0  0  0  0  0  0  0  0  0  0
   -5.2805    5.7726    2.2182 H   0  0  0  0  0  0  0  0  0  0  0  0
  1  3  1  0  0  0  0
  1  7  1  0  0  0  0
  1  2  2  0  0  0  0
 37 38  1  0  0  0  0
 38 46  1  0  0  0  0
 38 39  2  0  0  0  0
  8  9  1  0  0  0  0
  9 17  1  0  0  0  0
  9 10  2  0  0  0  0
 18 19  1  0  0  0  0
 19 36  1  0  0  0  0
 19 20  2  0  0  0  0
 37 40  1  0  0  0  0
  8 11  1  0  0  0  0
 22 23  1  0  0  0  0
 22 24  1  0  0  0  0
 46 47  1  0  0  0  0
 18 21  1  0  0  0  0
 21 22  1  0  0  0  0
 36 37  1  0  0  0  0
  7  8  1  0  0  0  0
 17 18  1  0  0  0  0
  3  4  1  0  0  0  0
  3  5  1  0  0  0  0
  3  6  1  0  0  0  0
 40 43  1  0  0  0  0
 40 44  1  0  0  0  0
 40 45  1  0  0  0  0
 11 14  1  0  0  0  0
 11 15  1  0  0  0  0
 11 16  1  0  0  0  0
 23 30  1  0  0  0  0
 23 31  1  0  0  0  0
 23 32  1  0  0  0  0
 24 33  1  0  0  0  0
 24 34  1  0  0  0  0
 24 35  1  0  0  0  0
 47 49  1  0  0  0  0
 47 50  1  0  0  0  0
 47 51  1  0  0  0  0
 21 27  1  0  0  0  0
 21 28  1  0  0  0  0
 37 42  1  0  0  0  0
  8 13  1  0  0  0  0
 18 26  1  0  0  0  0
 22 29  1  0  0  0  0
 46 48  1  0  0  0  0
  7 12  1  0  0  0  0
 36 41  1  0  0  0  0
 17 25  1  0  0  0  0
M  END
$$$$

  -OEChem-05262214473D

 51 50  0     1  0  0  0  0  0999 V2000
    3.4018   -1.2440   -3.0186 C   0  0  0  0  0  0  0  0  0  0  0  0
    3.2697   -2.0909   -2.1427 O   0  0  0  0  0  0  0  0  0  0  0  0
    4.6845   -1.1645   -3.7779 C   0  0  0  0  0  0  0  0  0  0  0  0
    5.4123   -0.4862   -3.3041 H   0  0  0  0  0  0  0  0  0  0  0  0
    5.1949   -2.1387   -3.8443 H   0  0  0  0  0  0  0  0  0  0  0  0
    4.5953   -0.8128   -4.8182 H   0  0  0  0  0  0  0  0  0  0  0  0
    2.4540   -0.3103   -3.4040 N   0  0  0  0  0  0  0  0  0  0  0  0
    1.1494   -0.2128   -2.8039 C   0  0  2  0  0  0  0  0  0  0  0  0
    1.3350    0.0367   -1.3130 C   0  0  0  0  0  0  0  0  0  0  0  0
    2.3625   -0.2586   -0.7063 O   0  0  0  0  0  0  0  0  0  0  0  0
    0.3331   -1.4728   -3.0467 C   0  0  0  0  0  0  0  0  0  0  0  0
    2.6924    0.3404   -4.1502 H   0  0  0  0  0  0  0  0  0  0  0  0
    0.6550    0.6514   -3.2607 H   0  0  0  0  0  0  0  0  0  0  0  0
    0.8129   -2.3494   -2.5963 H   0  0  0  0  0  0  0  0  0  0  0  0
   -0.6690   -1.3857   -2.6142 H   0  0  0  0  0  0  0  0  0  0  0  0
    0.2259   -1.6670   -4.1194 H   0  0  0  0  0  0  0  0  0  0  0  0
    0.2019    0.5893   -0.7269 N   0  0  0  0  0  0  0  0  0  0  0  0
    0.1242    0.9059    0.6756 C   0  0  2  0  0  0  0  0  0  0  0  0
   -0.5028    2.2920    0.7889 C   0  0  0  0  0  0  0  0  0  0  0  0
   -1.1255    2.8219   -0.1290 O   0  0  0  0  0  0  0  0  0  0  0  0
    1.5011    0.8897    1.3516 C   0  0  0  0  0  0  0  0  0  0  0  0
    2.1759   -0.4958    1.4121 C   0  0  0  0  0  0  0  0  0  0  0  0
    3.5952   -0.3548    1.9693 C   0  0  0  0  0  0  0  0  0  0  0  0
    2.2249   -1.1802    0.0454 C   0  0  0  0  0  0  0  0  0  0  0  0
   -0.5975    0.8179   -1.3140 H   0  0  0  0  0  0  0  0  0  0  0  0
   -0.5521    0.1755    1.1310 H   0  0  0  0  0  0  0  0  0  0  0  0
    1.3977    1.2753    2.3757 H   0  0  0  0  0  0  0  0  0  0  0  0
    2.1687    1.5916    0.8344 H   0  0  0  0  0  0  0  0  0  0  0  0
    1.6140   -1.1401    2.0993 H   0  0  0  0  0  0  0  0  0  0  0  0
    4.2065    0.2819    1.3209 H   0  0  0  0  0  0  0  0  0  0  0  0
    4.0864   -1.3314    2.0347 H   0  0  0  0  0  0  0  0  0  0  0  0
    3.5875    0.0892    2.9706 H   0  0  0  0  0  0  0  0  0  0  0  0
    2.7775   -0.5757   -0.6818 H   0  0  0  0  0  0  0  0  0  0  0  0
    2.7180   -2.1558    0.1174 H   0  0  0  0  0  0  0  0  0  0  0  0
    1.2198   -1.3557   -0.3491 H   0  0  0  0  0  0  0  0  0  0  0  0
   -0.3270    2.8412    2.0514 N   0  0  0  0  0  0  0  0  0  0  0  0
   -0.8464    4.1349    2.4323 C   0  0  2  0  0  0  0  0  0  0  0  0
   -2.2291    4.2877    1.8123 C   0  0  0  0  0  0  0  0  0  0  0  0
   -2.5973    3.6494    0.8284 O   0  0  0  0  0  0  0  0  0  0  0  0
    0.0776    5.2562    1.9832 C   0  0  0  0  0  0  0  0  0  0  0  0
    0.1814    2.3150    2.7559 H   0  0  0  0  0  0  0  0  0  0  0  0
   -0.9335    4.1318    3.5243 H   0  0  0  0  0  0  0  0  0  0  0  0
    0.1772    5.2752    0.8918 H   0  0  0  0  0  0  0  0  0  0  0  0
   -0.3029    6.2337    2.2974 H   0  0  0  0  0  0  0  0  0  0  0  0
    1.0798    5.1284    2.4062 H   0  0  0  0  0  0  0  0  0  0  0  0
   -2.9882    5.2518    2.4607 N   0  0  0  0  0  0  0  0  0  0  0  0
   -4.3316    5.5907    2.0528 C   0  0  0  0  0  0  0  0  0  0  0  0
   -2.6096    5.7183    3.2798 H   0  0  0  0  0  0  0  0  0  0  0  0
   -4.2992    6.4328    1.3458 H   0  0  0  0  0  0  0  0  0  0  0  0
   -4.7972    4.7211    1.5660 H   0  0  0  0  0  0  0  0  0  0  0  0
   -4.9218    5.8762    2.9360 H   0  0  0  0  0  0  0  0  0  0  0  0
  1  3  1  0  0  0  0
  1  7  1  0  0  0  0
  1  2  2  0  0  0  0
 37 38  1  0  0  0  0
 38 46  1  0  0  0  0
 38 39  2  0  0  0  0
  8  9  1  0  0  0  0
  9 17  1  0  0  0  0
  9 10  2  0  0  0  0
 18 19  1  0  0  0  0
 19 36  1  0  0  0  0
 19 20  2  0  0  0  0
 37 40  1  0  0  0  0
  8 11  1  0  0  0  0
 22 23  1  0  0  0  0
 22 24  1  0  0  0  0
 46 47  1  0  0  0  0
 18 21  1  0  0  0  0
 21 22  1  0  0  0  0
 36 37  1  0  0  0  0
  7  8  1  0  0  0  0
 17 18  1  0  0  0  0
  3  4  1  0  0  0  0
  3  5  1  0  0  0  0
  3  6  1  0  0  0  0
 40 43  1  0  0  0  0
 40 44  1  0  0  0  0
 40 45  1  0  0  0  0
 11 14  1  0  0  0  0
 11 15  1  0  0  0  0
 11 16  1  0  0  0  0
 23 30  1  0  0  0  0
 23 31  1  0  0  0  0
 23 32  1  0  0  0  0
 24 33  1  0  0  0  0
 24 34  1  0  0  0  0
 24 35  1  0  0  0  0
 47 49  1  0  0  0  0
 47 50  1  0  0  0  0
 47 51  1  0  0  0  0
 21 27  1  0  0  0  0
 21 28  1  0  0  0  0
 37 42  1  0  0  0  0
  8 13  1  0  0  0  0
 18 26  1  0  0  0  0
 22 29  1  0  0  0  0
 46 48  1  0  0  0  0
  7 12  1  0  0  0  0
 36 41  1  0  0  0  0
 17 25  1  0  0  0  0
M  END
$$$$

  -OEChem-05262214473D

 51 50  0     1  0  0  0  0  0999 V2000
    3.4018   -1.2440   -3.0186 C   0  0  0  0  0  0  0  0  0  0  0  0
    3.2697   -2.0909   -2.1427 O   0  0  0  0  0  0  0  0  0  0  0  0
    4.6845   -1.1645   -3.7779 C   0  0  0  0  0  0  0  0  0  0  0  0
    5.4123   -0.4862   -3.3041 H   0  0  0  0  0  0  0  0  0  0  0  0
    5.1949   -2.1387   -3.8443 H   0  0  0  0  0  0  0  0  0  0  0  0
    4.5953   -0.8128   -4.8182 H   0  0  0  0  0  0  0  0  0  0  0  0
    2.4540   -0.3103   -3.4040 N   0  0  0  0  0  0  0  0  0  0  0  0
    1.1494   -0.2128   -2.8039 C   0  0  2  0  0  0  0  0  0  0  0  0
    1.3350    0.0367   -1.3130 C   0  0  0  0  0  0  0  0  0  0  0  0
    2.3625   -0.2586   -0.7063 O   0  0  0  0  0  0  0  0  0  0  0  0
    0.3331   -1.4728   -3.0467 C   0  0  0  0  0  0  0  0  0  0  0  0
    2.6924    0.3404   -4.1502 H   0  0  0  0  0  0  0  0  0  0  0  0
    0.6550    0.6514   -3.2607 H   0  0  0  0  0  0  0  0  0  0  0  0
    0.8129   -2.3494   -2.5963 H   0  0  0  0  0  0  0  0  0  0  0  0
   -0.6690   -1.3857   -2.6142 H   0  0  0  0  0  0  0  0  0  0  0  0
    0.2259   -1.6670   -4.1194 H   0  0  0  0  0  0  0  0  0  0  0  0
    0.2019    0.5893   -0.7269 N   0  0  0  0  0  0  0  0  0  0  0  0
    0.1242    0.9059    0.6756 C   0  0  2  0  0  0  0  0  0  0  0  0
   -0.5028    2.2920    0.7889 C   0  0  0  0  0  0  0  0  0  0  0  0
   -1.3397    2.7149   -0.0060 O   0  0  0  0  0  0  0  0  0  0  0  0
    1.5011    0.8897    1.3516 C   0  0  0  0  0  0  0  0  0  0  0  0
    2.1759   -0.4958    1.4121 C   0  0  0  0  0  0  0  0  0  0  0  0
    3.5952   -0.3548    1.9693 C   0  0  0  0  0  0  0  0  0  0  0  0
    2.2249   -1.1802    0.0454 C   0  0  0  0  0  0  0  0  0  0  0  0
   -0.5975    0.8179   -1.3140 H   0  0  0  0  0  0  0  0  0  0  0  0
   -0.5521    0.1755    1.1310 H   0  0  0  0  0  0  0  0  0  0  0  0
    1.3977    1.2753    2.3757 H   0  0  0  0  0  0  0  0  0  0  0  0
    2.1687    1.5916    0.8344 H   0  0  0  0  0  0  0  0  0  0  0  0
    1.6140   -1.1401    2.0993 H   0  0  0  0  0  0  0  0  0  0  0  0
    4.2065    0.2819    1.3209 H   0  0  0  0  0  0  0  0  0  0  0  0
    4.0864   -1.3314    2.0347 H   0  0  0  0  0  0  0  0  0  0  0  0
    3.5875    0.0892    2.9706 H   0  0  0  0  0  0  0  0  0  0  0  0
    2.7775   -0.5757   -0.6818 H   0  0  0  0  0  0  0  0  0  0  0  0
    2.7180   -2.1558    0.1174 H   0  0  0  0  0  0  0  0  0  0  0  0
    1.2198   -1.3557   -0.3491 H   0  0  0  0  0  0  0  0  0  0  0  0
   -0.0539    2.9763    1.9100 N   0  0  0  0  0  0  0  0  0  0  0  0
   -0.5108    4.3003    2.2660 C   0  0  2  0  0  0  0  0  0  0  0  0
   -2.0044    4.3758    1.9777 C   0  0  0  0  0  0  0  0  0  0  0  0
   -2.5721    3.6320    1.1805 O   0  0  0  0  0  0  0  0  0  0  0  0
    0.2460    5.3722    1.4972 C   0  0  0  0  0  0  0  0  0  0  0  0
    0.6218    2.5330    2.5252 H   0  0  0  0  0  0  0  0  0  0  0  0
   -0.3397    4.4153    3.3419 H   0  0  0  0  0  0  0  0  0  0  0  0
    0.0867    5.2731    0.4172 H   0  0  0  0  0  0  0  0  0  0  0  0
   -0.0814    6.3755    1.7889 H   0  0  0  0  0  0  0  0  0  0  0  0
    1.3230    5.2976    1.6824 H   0  0  0  0  0  0  0  0  0  0  0  0
   -2.6210    5.3997    2.6831 N   0  0  0  0  0  0  0  0  0  0  0  0
   -4.0327    5.6836    2.5710 C   0  0  0  0  0  0  0  0  0  0  0  0
   -2.0763    5.9549    3.3364 H   0  0  0  0  0  0  0  0  0  0  0  0
   -4.1936    6.4440    1.7927 H   0  0  0  0  0  0  0  0  0  0  0  0
   -4.5713    4.7632    2.3012 H   0  0  0  0  0  0  0  0  0  0  0  0
   -4.4085    6.0595    3.5340 H   0  0  0  0  0  0  0  0  0  0  0  0
  1  3  1  0  0  0  0
  1  7  1  0  0  0  0
  1  2  2  0  0  0  0
 37 38  1  0  0  0  0
 38 46  1  0  0  0  0
 38 39  2  0  0  0  0
  8  9  1  0  0  0  0
  9 17  1  0  0  0  0
  9 10  2  0  0  0  0
 18 19  1  0  0  0  0
 19 36  1  0  0  0  0
 19 20  2  0  0  0  0
 37 40  1  0  0  0  0
  8 11  1  0  0  0  0
 22 23  1  0  0  0  0
 22 24  1  0  0  0  0
 46 47  1  0  0  0  0
 18 21  1  0  0  0  0
 21 22  1  0  0  0  0
 36 37  1  0  0  0  0
  7  8  1  0  0  0  0
 17 18  1  0  0  0  0
  3  4  1  0  0  0  0
  3  5  1  0  0  0  0
  3  6  1  0  0  0  0
 40 43  1  0  0  0  0
 40 44  1  0  0  0  0
 40 45  1  0  0  0  0
 11 14  1  0  0  0  0
 11 15  1  0  0  0  0
 11 16  1  0  0  0  0
 23 30  1  0  0  0  0
 23 31  1  0  0  0  0
 23 32  1  0  0  0  0
 24 33  1  0  0  0  0
 24 34  1  0  0  0  0
 24 35  1  0  0  0  0
 47 49  1  0  0  0  0
 47 50  1  0  0  0  0
 47 51  1  0  0  0  0
 21 27  1  0  0  0  0
 21 28  1  0  0  0  0
 37 42  1  0  0  0  0
  8 13  1  0  0  0  0
 18 26  1  0  0  0  0
 22 29  1  0  0  0  0
 46 48  1  0  0  0  0
  7 12  1  0  0  0  0
 36 41  1  0  0  0  0
 17 25  1  0  0  0  0
M  END
$$$$

  -OEChem-05262214473D

 51 50  0     1  0  0  0  0  0999 V2000
    3.4018   -1.2440   -3.0186 C   0  0  0  0  0  0  0  0  0  0  0  0
    3.2697   -2.0909   -2.1427 O   0  0  0  0  0  0  0  0  0  0  0  0
    4.6845   -1.1645   -3.7779 C   0  0  0  0  0  0  0  0  0  0  0  0
    5.4123   -0.4862   -3.3041 H   0  0  0  0  0  0  0  0  0  0  0  0
    5.1949   -2.1387   -3.8443 H   0  0  0  0  0  0  0  0  0  0  0  0
    4.5953   -0.8128   -4.8182 H   0  0  0  0  0  0  0  0  0  0  0  0
    2.4540   -0.3103   -3.4040 N   0  0  0  0  0  0  0  0  0  0  0  0
    1.1494   -0.2128   -2.8039 C   0  0  2  0  0  0  0  0  0  0  0  0
    1.3350    0.0367   -1.3130 C   0  0  0  0  0  0  0  0  0  0  0  0
    2.3625   -0.2586   -0.7063 O   0  0  0  0  0  0  0  0  0  0  0  0
    0.3331   -1.4728   -3.0467 C   0  0  0  0  0  0  0  0  0  0  0  0
    2.6924    0.3404   -4.1502 H   0  0  0  0  0  0  0  0  0  0  0  0
    0.6550    0.6514   -3.2607 H   0  0  0  0  0  0  0  0  0  0  0  0
    0.8129   -2.3494   -2.5963 H   0  0  0  0  0  0  0  0  0  0  0  0
   -0.6690   -1.3857   -2.6142 H   0  0  0  0  0  0  0  0  0  0  0  0
    0.2259   -1.6670   -4.1194 H   0  0  0  0  0  0  0  0  0  0  0  0
    0.2019    0.5893   -0.7269 N   0  0  0  0  0  0  0  0  0  0  0  0
    0.1242    0.9059    0.6756 C   0  0  2  0  0  0  0  0  0  0  0  0
   -0.5028    2.2920    0.7889 C   0  0  0  0  0  0  0  0  0  0  0  0
   -1.5157    2.6206    0.1746 O   0  0  0  0  0  0  0  0  0  0  0  0
    1.5011    0.8897    1.3516 C   0  0  0  0  0  0  0  0  0  0  0  0
    2.1759   -0.4958    1.4121 C   0  0  0  0  0  0  0  0  0  0  0  0
    3.5952   -0.3548    1.9693 C   0  0  0  0  0  0  0  0  0  0  0  0
    2.2249   -1.1802    0.0454 C   0  0  0  0  0  0  0  0  0  0  0  0
   -0.5975    0.8179   -1.3140 H   0  0  0  0  0  0  0  0  0  0  0  0
   -0.5521    0.1755    1.1310 H   0  0  0  0  0  0  0  0  0  0  0  0
    1.3977    1.2753    2.3757 H   0  0  0  0  0  0  0  0  0  0  0  0
    2.1687    1.5916    0.8344 H   0  0  0  0  0  0  0  0  0  0  0  0
    1.6140   -1.1401    2.0993 H   0  0  0  0  0  0  0  0  0  0  0  0
    4.2065    0.2819    1.3209 H   0  0  0  0  0  0  0  0  0  0  0  0
    4.0864   -1.3314    2.0347 H   0  0  0  0  0  0  0  0  0  0  0  0
    3.5875    0.0892    2.9706 H   0  0  0  0  0  0  0  0  0  0  0  0
    2.7775   -0.5757   -0.6818 H   0  0  0  0  0  0  0  0  0  0  0  0
    2.7180   -2.1558    0.1174 H   0  0  0  0  0  0  0  0  0  0  0  0
    1.2198   -1.3557   -0.3491 H   0  0  0  0  0  0  0  0  0  0  0  0
    0.1740    3.0970    1.6947 N   0  0  0  0  0  0  0  0  0  0  0  0
   -0.2290    4.4489    2.0088 C   0  0  2  0  0  0  0  0  0  0  0  0
   -1.7501    4.4828    2.0752 C   0  0  0  0  0  0  0  0  0  0  0  0
   -2.4646    3.6531    1.5165 O   0  0  0  0  0  0  0  0  0  0  0  0
    0.2922    5.4357    0.9757 C   0  0  0  0  0  0  0  0  0  0  0  0
    0.9888    2.7276    2.1756 H   0  0  0  0  0  0  0  0  0  0  0  0
    0.1855    4.6812    2.9958 H   0  0  0  0  0  0  0  0  0  0  0  0
   -0.1123    5.2188   -0.0197 H   0  0  0  0  0  0  0  0  0  0  0  0
    0.0103    6.4627    1.2304 H   0  0  0  0  0  0  0  0  0  0  0  0
    1.3844    5.3887    0.9081 H   0  0  0  0  0  0  0  0  0  0  0  0
   -2.2168    5.5733    2.7957 N   0  0  0  0  0  0  0  0  0  0  0  0
   -3.6239    5.8341    2.9914 C   0  0  0  0  0  0  0  0  0  0  0  0
   -1.5524    6.1997    3.2405 H   0  0  0  0  0  0  0  0  0  0  0  0
   -3.9868    6.5044    2.1983 H   0  0  0  0  0  0  0  0  0  0  0  0
   -4.1810    4.8864    2.9537 H   0  0  0  0  0  0  0  0  0  0  0  0
   -3.7756    6.3100    3.9714 H   0  0  0  0  0  0  0  0  0  0  0  0
  1  3  1  0  0  0  0
  1  7  1  0  0  0  0
  1  2  2  0  0  0  0
 37 38  1  0  0  0  0
 38 46  1  0  0  0  0
 38 39  2  0  0  0  0
  8  9  1  0  0  0  0
  9 17  1  0  0  0  0
  9 10  2  0  0  0  0
 18 19  1  0  0  0  0
 19 36  1  0  0  0  0
 19 20  2  0  0  0  0
 37 40  1  0  0  0  0
  8 11  1  0  0  0  0
 22 23  1  0  0  0  0
 22 24  1  0  0  0  0
 46 47  1  0  0  0  0
 18 21  1  0  0  0  0
 21 22  1  0  0  0  0
 36 37  1  0  0  0  0
  7  8  1  0  0  0  0
 17 18  1  0  0  0  0
  3  4  1  0  0  0  0
  3  5  1  0  0  0  0
  3  6  1  0  0  0  0
 40 43  1  0  0  0  0
 40 44  1  0  0  0  0
 40 45  1  0  0  0  0
 11 14  1  0  0  0  0
 11 15  1  0  0  0  0
 11 16  1  0  0  0  0
 23 30  1  0  0  0  0
 23 31  1  0  0  0  0
 23 32  1  0  0  0  0
 24 33  1  0  0  0  0
 24 34  1  0  0  0  0
 24 35  1  0  0  0  0
 47 49  1  0  0  0  0
 47 50  1  0  0  0  0
 47 51  1  0  0  0  0
 21 27  1  0  0  0  0
 21 28  1  0  0  0  0
 37 42  1  0  0  0  0
  8 13  1  0  0  0  0
 18 26  1  0  0  0  0
 22 29  1  0  0  0  0
 46 48  1  0  0  0  0
  7 12  1  0  0  0  0
 36 41  1  0  0  0  0
 17 25  1  0  0  0  0
M  END
$$$$

  -OEChem-05262214473D

 51 50  0     1  0  0  0  0  0999 V2000
    3.4018   -1.2440   -3.0186 C   0  0  0  0  0  0  0  0  0  0  0  0
    3.2697   -2.0909   -2.1427 O   0  0  0  0  0  0  0  0  0  0  0  0
    4.6845   -1.1645   -3.7779 C   0  0  0  0  0  0  0  0  0  0  0  0
    5.4123   -0.4862   -3.3041 H   0  0  0  0  0  0  0  0  0  0  0  0
    5.1949   -2.1387   -3.8443 H   0  0  0  0  0  0  0  0  0  0  0  0
    4.5953   -0.8128   -4.8182 H   0  0  0  0  0  0  0  0  0  0  0  0
    2.4540   -0.3103   -3.4040 N   0  0  0  0  0  0  0  0  0  0  0  0
    1.1494   -0.2128   -2.8039 C   0  0  2  0  0  0  0  0  0  0  0  0
    1.3350    0.0367   -1.3130 C   0  0  0  0  0  0  0  0  0  0  0  0
    2.3625   -0.2586   -0.7063 O   0  0  0  0  0  0  0  0  0  0  0  0
    0.3331   -1.4728   -3.0467 C   0  0  0  0  0  0  0  0  0  0  0  0
    2.6924    0.3404   -4.1502 H   0  0  0  0  0  0  0  0  0  0  0  0
    0.6550    0.6514   -3.2607 H   0  0  0  0  0  0  0  0  0  0  0  0
    0.8129   -2.3494   -2.5963 H   0  0  0  0  0  0  0  0  0  0  0  0
   -0.6690   -1.3857   -2.6142 H   0  0  0  0  0  0  0  0  0  0  0  0
    0.2259   -1.6670   -4.1194 H   0  0  0  0  0  0  0  0  0  0  0  0
    0.2019    0.5893   -0.7269 N   0  0  0  0  0  0  0  0  0  0  0  0
    0.1242    0.9059    0.6756 C   0  0  2  0  0  0  0  0  0  0  0  0
   -0.5028    2.2920    0.7889 C   0  0  0  0  0  0  0  0  0  0  0  0
   -1.6413    2.5453    0.4005 O   0  0  0  0  0  0  0  0  0  0  0  0
    1.5011    0.8897    1.3516 C   0  0  0  0  0  0  0  0  0  0  0  0
    2.1759   -0.4958    1.4121 C   0  0  0  0  0  0  0  0  0  0  0  0
    3.5952   -0.3548    1.9693 C   0  0  0  0  0  0  0  0  0  0  0  0
    2.2249   -1.1802    0.0454 C   0  0  0  0  0  0  0  0  0  0  0  0
   -0.5975    0.8179   -1.3140 H   0  0  0  0  0  0  0  0  0  0  0  0
   -0.5521    0.1755    1.1310 H   0  0  0  0  0  0  0  0  0  0  0  0
    1.3977    1.2753    2.3757 H   0  0  0  0  0  0  0  0  0  0  0  0
    2.1687    1.5916    0.8344 H   0  0  0  0  0  0  0  0  0  0  0  0
    1.6140   -1.1401    2.0993 H   0  0  0  0  0  0  0  0  0  0  0  0
    4.2065    0.2819    1.3209 H   0  0  0  0  0  0  0  0  0  0  0  0
    4.0864   -1.3314    2.0347 H   0  0  0  0  0  0  0  0  0  0  0  0
    3.5875    0.0892    2.9706 H   0  0  0  0  0  0  0  0  0  0  0  0
    2.7775   -0.5757   -0.6818 H   0  0  0  0  0  0  0  0  0  0  0  0
    2.7180   -2.1558    0.1174 H   0  0  0  0  0  0  0  0  0  0  0  0
    1.2198   -1.3557   -0.3491 H   0  0  0  0  0  0  0  0  0  0  0  0
    0.3411    3.1950    1.4204 N   0  0  0  0  0  0  0  0  0  0  0  0
   -0.0201    4.5704    1.6783 C   0  0  2  0  0  0  0  0  0  0  0  0
   -1.4837    4.6015    2.0982 C   0  0  0  0  0  0  0  0  0  0  0  0
   -2.2822    3.7113    1.8136 O   0  0  0  0  0  0  0  0  0  0  0  0
    0.2129    5.4425    0.4544 C   0  0  0  0  0  0  0  0  0  0  0  0
    1.2573    2.8854    1.7310 H   0  0  0  0  0  0  0  0  0  0  0  0
    0.6064    4.9113    2.5098 H   0  0  0  0  0  0  0  0  0  0  0  0
   -0.4062    5.1161   -0.3892 H   0  0  0  0  0  0  0  0  0  0  0  0
   -0.0342    6.4892    0.6602 H   0  0  0  0  0  0  0  0  0  0  0  0
    1.2599    5.3955    0.1360 H   0  0  0  0  0  0  0  0  0  0  0  0
   -1.8033    5.7608    2.7911 N   0  0  0  0  0  0  0  0  0  0  0  0
   -3.1330    6.0321    3.2853 C   0  0  0  0  0  0  0  0  0  0  0  0
   -1.0736    6.4361    2.9987 H   0  0  0  0  0  0  0  0  0  0  0  0
   -3.6928    6.6099    2.5351 H   0  0  0  0  0  0  0  0  0  0  0  0
   -3.6529    5.0823    3.4791 H   0  0  0  0  0  0  0  0  0  0  0  0
   -3.0663    6.6107    4.2185 H   0  0  0  0  0  0  0  0  0  0  0  0
  1  3  1  0  0  0  0
  1  7  1  0  0  0  0
  1  2  2  0  0  0  0
 37 38  1  0  0  0  0
 38 46  1  0  0  0  0
 38 39  2  0  0  0  0
  8  9  1  0  0  0  0
  9 17  1  0  0  0  0
  9 10  2  0  0  0  0
 18 19  1  0  0  0  0
 19 36  1  0  0  0  0
 19 20  2  0  0  0  0
 37 40  1  0  0  0  0
  8 11  1  0  0  0  0
 22 23  1  0  0  0  0
 22 24  1  0  0  0  0
 46 47  1  0  0  0  0
 18 21  1  0  0  0  0
 21 22  1  0  0  0  0
 36 37  1  0  0  0  0
  7  8  1  0  0  0  0
 17 18  1  0  0  0  0
  3  4  1  0  0  0  0
  3  5  1  0  0  0  0
  3  6  1  0  0  0  0
 40 43  1  0  0  0  0
 40 44  1  0  0  0  0
 40 45  1  0  0  0  0
 11 14  1  0  0  0  0
 11 15  1  0  0  0  0
 11 16  1  0  0  0  0
 23 30  1  0  0  0  0
 23 31  1  0  0  0  0
 23 32  1  0  0  0  0
 24 33  1  0  0  0  0
 24 34  1  0  0  0  0
 24 35  1  0  0  0  0
 47 49  1  0  0  0  0
 47 50  1  0  0  0  0
 47 51  1  0  0  0  0
 21 27  1  0  0  0  0
 21 28  1  0  0  0  0
 37 42  1  0  0  0  0
  8 13  1  0  0  0  0
 18 26  1  0  0  0  0
 22 29  1  0  0  0  0
 46 48  1  0  0  0  0
  7 12  1  0  0  0  0
 36 41  1  0  0  0  0
 17 25  1  0  0  0  0
M  END
$$$$

  -OEChem-05262214473D

 51 50  0     1  0  0  0  0  0999 V2000
    3.4018   -1.2440   -3.0186 C   0  0  0  0  0  0  0  0  0  0  0  0
    3.2697   -2.0909   -2.1427 O   0  0  0  0  0  0  0  0  0  0  0  0
    4.6845   -1.1645   -3.7779 C   0  0  0  0  0  0  0  0  0  0  0  0
    5.4123   -0.4862   -3.3041 H   0  0  0  0  0  0  0  0  0  0  0  0
    5.1949   -2.1387   -3.8443 H   0  0  0  0  0  0  0  0  0  0  0  0
    4.5953   -0.8128   -4.8182 H   0  0  0  0  0  0  0  0  0  0  0  0
    2.4540   -0.3103   -3.4040 N   0  0  0  0  0  0  0  0  0  0  0  0
    1.1494   -0.2128   -2.8039 C   0  0  2  0  0  0  0  0  0  0  0  0
    1.3350    0.0367   -1.3130 C   0  0  0  0  0  0  0  0  0  0  0  0
    2.3625   -0.2586   -0.7063 O   0  0  0  0  0  0  0  0  0  0  0  0
    0.3331   -1.4728   -3.0467 C   0  0  0  0  0  0  0  0  0  0  0  0
    2.6924    0.3404   -4.1502 H   0  0  0  0  0  0  0  0  0  0  0  0
    0.6550    0.6514   -3.2607 H   0  0  0  0  0  0  0  0  0  0  0  0
    0.8129   -2.3494   -2.5963 H   0  0  0  0  0  0  0  0  0  0  0  0
   -0.6690   -1.3857   -2.6142 H   0  0  0  0  0  0  0  0  0  0  0  0
    0.2259   -1.6670   -4.1194 H   0  0  0  0  0  0  0  0  0  0  0  0
    0.2019    0.5893   -0.7269 N   0  0  0  0  0  0  0  0  0  0  0  0
    0.1242    0.9059    0.6756 C   0  0  2  0  0  0  0  0  0  0  0  0
   -0.5028    2.2920    0.7889 C   0  0  0  0  0  0  0  0  0  0  0  0
   -1.7081    2.4942    0.6562 O   0  0  0  0  0  0  0  0  0  0  0  0
    1.5011    0.8897    1.3516 C   0  0  0  0  0  0  0  0  0  0  0  0
    2.1759   -0.4958    1.4121 C   0  0  0  0  0  0  0  0  0  0  0  0
    3.5952   -0.3548    1.9693 C   0  0  0  0  0  0  0  0  0  0  0  0
    2.2249   -1.1802    0.0454 C   0  0  0  0  0  0  0  0  0  0  0  0
   -0.5975    0.8179   -1.3140 H   0  0  0  0  0  0  0  0  0  0  0  0
   -0.5521    0.1755    1.1310 H   0  0  0  0  0  0  0  0  0  0  0  0
    1.3977    1.2753    2.3757 H   0  0  0  0  0  0  0  0  0  0  0  0
    2.1687    1.5916    0.8344 H   0  0  0  0  0  0  0  0  0  0  0  0
    1.6140   -1.1401    2.0993 H   0  0  0  0  0  0  0  0  0  0  0  0
    4.2065    0.2819    1.3209 H   0  0  0  0  0  0  0  0  0  0  0  0
    4.0864   -1.3314    2.0347 H   0  0  0  0  0  0  0  0  0  0  0  0
    3.5875    0.0892    2.9706 H   0  0  0  0  0  0  0  0  0  0  0  0
    2.7775   -0.5757   -0.6818 H   0  0  0  0  0  0  0  0  0  0  0  0
    2.7180   -2.1558    0.1174 H   0  0  0  0  0  0  0  0  0  0  0  0
    1.2198   -1.3557   -0.3491 H   0  0  0  0  0  0  0  0  0  0  0  0
    0.4362    3.2638    1.1057 N   0  0  0  0  0  0  0  0  0  0  0  0
    0.1017    4.6567    1.2970 C   0  0  2  0  0  0  0  0  0  0  0  0
   -1.2232    4.7237    2.0452 C   0  0  0  0  0  0  0  0  0  0  0  0
   -2.0373    3.8027    2.0514 O   0  0  0  0  0  0  0  0  0  0  0  0
    0.0136    5.3921   -0.0312 C   0  0  0  0  0  0  0  0  0  0  0  0
    1.4090    2.9957    1.2215 H   0  0  0  0  0  0  0  0  0  0  0  0
    0.8941    5.0900    1.9169 H   0  0  0  0  0  0  0  0  0  0  0  0
   -0.7750    4.9719   -0.6660 H   0  0  0  0  0  0  0  0  0  0  0  0
   -0.2117    6.4533    0.1170 H   0  0  0  0  0  0  0  0  0  0  0  0
    0.9579    5.3176   -0.5813 H   0  0  0  0  0  0  0  0  0  0  0  0
   -1.4086    5.9493    2.6694 N   0  0  0  0  0  0  0  0  0  0  0  0
   -2.5936    6.2640    3.4327 C   0  0  0  0  0  0  0  0  0  0  0  0
   -0.6725    6.6479    2.6273 H   0  0  0  0  0  0  0  0  0  0  0  0
   -3.3316    6.7532    2.7800 H   0  0  0  0  0  0  0  0  0  0  0  0
   -3.0231    5.3376    3.8416 H   0  0  0  0  0  0  0  0  0  0  0  0
   -2.3288    6.9410    4.2583 H   0  0  0  0  0  0  0  0  0  0  0  0
  1  3  1  0  0  0  0
  1  7  1  0  0  0  0
  1  2  2  0  0  0  0
 37 38  1  0  0  0  0
 38 46  1  0  0  0  0
 38 39  2  0  0  0  0
  8  9  1  0  0  0  0
  9 17  1  0  0  0  0
  9 10  2  0  0  0  0
 18 19  1  0  0  0  0
 19 36  1  0  0  0  0
 19 20  2  0  0  0  0
 37 40  1  0  0  0  0
  8 11  1  0  0  0  0
 22 23  1  0  0  0  0
 22 24  1  0  0  0  0
 46 47  1  0  0  0  0
 18 21  1  0  0  0  0
 21 22  1  0  0  0  0
 36 37  1  0  0  0  0
  7  8  1  0  0  0  0
 17 18  1  0  0  0  0
  3  4  1  0  0  0  0
  3  5  1  0  0  0  0
  3  6  1  0  0  0  0
 40 43  1  0  0  0  0
 40 44  1  0  0  0  0
 40 45  1  0  0  0  0
 11 14  1  0  0  0  0
 11 15  1  0  0  0  0
 11 16  1  0  0  0  0
 23 30  1  0  0  0  0
 23 31  1  0  0  0  0
 23 32  1  0  0  0  0
 24 33  1  0  0  0  0
 24 34  1  0  0  0  0
 24 35  1  0  0  0  0
 47 49  1  0  0  0  0
 47 50  1  0  0  0  0
 47 51  1  0  0  0  0
 21 27  1  0  0  0  0
 21 28  1  0  0  0  0
 37 42  1  0  0  0  0
  8 13  1  0  0  0  0
 18 26  1  0  0  0  0
 22 29  1  0  0  0  0
 46 48  1  0  0  0  0
  7 12  1  0  0  0  0
 36 41  1  0  0  0  0
 17 25  1  0  0  0  0
M  END
$$$$

  -OEChem-05262214473D

 51 50  0     1  0  0  0  0  0999 V2000
    3.4018   -1.2440   -3.0186 C   0  0  0  0  0  0  0  0  0  0  0  0
    3.2697   -2.0909   -2.1427 O   0  0  0  0  0  0  0  0  0  0  0  0
    4.6845   -1.1645   -3.7779 C   0  0  0  0  0  0  0  0  0  0  0  0
    5.4123   -0.4862   -3.3041 H   0  0  0  0  0  0  0  0  0  0  0  0
    5.1949   -2.1387   -3.8443 H   0  0  0  0  0  0  0  0  0  0  0  0
    4.5953   -0.8128   -4.8182 H   0  0  0  0  0  0  0  0  0  0  0  0
    2.4540   -0.3103   -3.4040 N   0  0  0  0  0  0  0  0  0  0  0  0
    1.1494   -0.2128   -2.8039 C   0  0  2  0  0  0  0  0  0  0  0  0
    1.3350    0.0367   -1.3130 C   0  0  0  0  0  0  0  0  0  0  0  0
    2.3625   -0.2586   -0.7063 O   0  0  0  0  0  0  0  0  0  0  0  0
    0.3331   -1.4728   -3.0467 C   0  0  0  0  0  0  0  0  0  0  0  0
    2.6924    0.3404   -4.1502 H   0  0  0  0  0  0  0  0  0  0  0  0
    0.6550    0.6514   -3.2607 H   0  0  0  0  0  0  0  0  0  0  0  0
    0.8129   -2.3494   -2.5963 H   0  0  0  0  0  0  0  0  0  0  0  0
   -0.6690   -1.3857   -2.6142 H   0  0  0  0  0  0  0  0  0  0  0  0
    0.2259   -1.6670   -4.1194 H   0  0  0  0  0  0  0  0  0  0  0  0
    0.2019    0.5893   -0.7269 N   0  0  0  0  0  0  0  0  0  0  0  0
    0.1242    0.9059    0.6756 C   0  0  2  0  0  0  0  0  0  0  0  0
   -0.5028    2.2920    0.7889 C   0  0  0  0  0  0  0  0  0  0  0  0
   -1.7115    2.4707    0.9243 O   0  0  0  0  0  0  0  0  0  0  0  0
    1.5011    0.8897    1.3516 C   0  0  0  0  0  0  0  0  0  0  0  0
    2.1759   -0.4958    1.4121 C   0  0  0  0  0  0  0  0  0  0  0  0
    3.5952   -0.3548    1.9693 C   0  0  0  0  0  0  0  0  0  0  0  0
    2.2249   -1.1802    0.0454 C   0  0  0  0  0  0  0  0  0  0  0  0
   -0.5975    0.8179   -1.3140 H   0  0  0  0  0  0  0  0  0  0  0  0
   -0.5521    0.1755    1.1310 H   0  0  0  0  0  0  0  0  0  0  0  0
    1.3977    1.2753    2.3757 H   0  0  0  0  0  0  0  0  0  0  0  0
    2.1687    1.5916    0.8344 H   0  0  0  0  0  0  0  0  0  0  0  0
    1.6140   -1.1401    2.0993 H   0  0  0  0  0  0  0  0  0  0  0  0
    4.2065    0.2819    1.3209 H   0  0  0  0  0  0  0  0  0  0  0  0
    4.0864   -1.3314    2.0347 H   0  0  0  0  0  0  0  0  0  0  0  0
    3.5875    0.0892    2.9706 H   0  0  0  0  0  0  0  0  0  0  0  0
    2.7775   -0.5757   -0.6818 H   0  0  0  0  0  0  0  0  0  0  0  0
    2.7180   -2.1558    0.1174 H   0  0  0  0  0  0  0  0  0  0  0  0
    1.2198   -1.3557   -0.3491 H   0  0  0  0  0  0  0  0  0  0  0  0
    0.4527    3.2985    0.7720 N   0  0  0  0  0  0  0  0  0  0  0  0
    0.1279    4.7018    0.8909 C   0  0  2  0  0  0  0  0  0  0  0  0
   -0.9864    4.8410    1.9197 C   0  0  0  0  0  0  0  0  0  0  0  0
   -1.7465    3.9209    2.2139 O   0  0  0  0  0  0  0  0  0  0  0  0
   -0.2921    5.2879   -0.4481 C   0  0  0  0  0  0  0  0  0  0  0  0
    1.4337    3.0510    0.6821 H   0  0  0  0  0  0  0  0  0  0  0  0
    1.0292    5.2050    1.2575 H   0  0  0  0  0  0  0  0  0  0  0  0
   -1.1936    4.7961   -0.8313 H   0  0  0  0  0  0  0  0  0  0  0  0
   -0.5103    6.3575   -0.3621 H   0  0  0  0  0  0  0  0  0  0  0  0
    0.4991    5.1602   -1.1948 H   0  0  0  0  0  0  0  0  0  0  0  0
   -1.0596    6.1260    2.4390 N   0  0  0  0  0  0  0  0  0  0  0  0
   -2.0424    6.5141    3.4236 C   0  0  0  0  0  0  0  0  0  0  0  0
   -0.3765    6.8207    2.1517 H   0  0  0  0  0  0  0  0  0  0  0  0
   -2.9280    6.9247    2.9164 H   0  0  0  0  0  0  0  0  0  0  0  0
   -2.3343    5.6348    4.0165 H   0  0  0  0  0  0  0  0  0  0  0  0
   -1.6134    7.2785    4.0882 H   0  0  0  0  0  0  0  0  0  0  0  0
  1  3  1  0  0  0  0
  1  7  1  0  0  0  0
  1  2  2  0  0  0  0
 37 38  1  0  0  0  0
 38 46  1  0  0  0  0
 38 39  2  0  0  0  0
  8  9  1  0  0  0  0
  9 17  1  0  0  0  0
  9 10  2  0  0  0  0
 18 19  1  0  0  0  0
 19 36  1  0  0  0  0
 19 20  2  0  0  0  0
 37 40  1  0  0  0  0
  8 11  1  0  0  0  0
 22 23  1  0  0  0  0
 22 24  1  0  0  0  0
 46 47  1  0  0  0  0
 18 21  1  0  0  0  0
 21 22  1  0  0  0  0
 36 37  1  0  0  0  0
  7  8  1  0  0  0  0
 17 18  1  0  0  0  0
  3  4  1  0  0  0  0
  3  5  1  0  0  0  0
  3  6  1  0  0  0  0
 40 43  1  0  0  0  0
 40 44  1  0  0  0  0
 40 45  1  0  0  0  0
 11 14  1  0  0  0  0
 11 15  1  0  0  0  0
 11 16  1  0  0  0  0
 23 30  1  0  0  0  0
 23 31  1  0  0  0  0
 23 32  1  0  0  0  0
 24 33  1  0  0  0  0
 24 34  1  0  0  0  0
 24 35  1  0  0  0  0
 47 49  1  0  0  0  0
 47 50  1  0  0  0  0
 47 51  1  0  0  0  0
 21 27  1  0  0  0  0
 21 28  1  0  0  0  0
 37 42  1  0  0  0  0
  8 13  1  0  0  0  0
 18 26  1  0  0  0  0
 22 29  1  0  0  0  0
 46 48  1  0  0  0  0
  7 12  1  0  0  0  0
 36 41  1  0  0  0  0
 17 25  1  0  0  0  0
M  END
$$$$

  -OEChem-05262214473D

 51 50  0     1  0  0  0  0  0999 V2000
    3.4018   -1.2440   -3.0186 C   0  0  0  0  0  0  0  0  0  0  0  0
    3.2697   -2.0909   -2.1427 O   0  0  0  0  0  0  0  0  0  0  0  0
    4.6845   -1.1645   -3.7779 C   0  0  0  0  0  0  0  0  0  0  0  0
    5.4123   -0.4862   -3.3041 H   0  0  0  0  0  0  0  0  0  0  0  0
    5.1949   -2.1387   -3.8443 H   0  0  0  0  0  0  0  0  0  0  0  0
    4.5953   -0.8128   -4.8182 H   0  0  0  0  0  0  0  0  0  0  0  0
    2.4540   -0.3103   -3.4040 N   0  0  0  0  0  0  0  0  0  0  0  0
    1.1494   -0.2128   -2.8039 C   0  0  2  0  0  0  0  0  0  0  0  0
    1.3350    0.0367   -1.3130 C   0  0  0  0  0  0  0  0  0  0  0  0
    2.3625   -0.2586   -0.7063 O   0  0  0  0  0  0  0  0  0  0  0  0
    0.3331   -1.4728   -3.0467 C   0  0  0  0  0  0  0  0  0  0  0  0
    2.6924    0.3404   -4.1502 H   0  0  0  0  0  0  0  0  0  0  0  0
    0.6550    0.6514   -3.2607 H   0  0  0  0  0  0  0  0  0  0  0  0
    0.8129   -2.3494   -2.5963 H   0  0  0  0  0  0  0  0  0  0  0  0
   -0.6690   -1.3857   -2.6142 H   0  0  0  0  0  0  0  0  0  0  0  0
    0.2259   -1.6670   -4.1194 H   0  0  0  0  0  0  0  0  0  0  0  0
    0.2019    0.5893   -0.7269 N   0  0  0  0  0  0  0  0  0  0  0  0
    0.1242    0.9059    0.6756 C   0  0  2  0  0  0  0  0  0  0  0  0
   -0.5028    2.2920    0.7889 C   0  0  0  0  0  0  0  0  0  0  0  0
   -1.6513    2.4765    1.1866 O   0  0  0  0  0  0  0  0  0  0  0  0
    1.5011    0.8897    1.3516 C   0  0  0  0  0  0  0  0  0  0  0  0
    2.1759   -0.4958    1.4121 C   0  0  0  0  0  0  0  0  0  0  0  0
    3.5952   -0.3548    1.9693 C   0  0  0  0  0  0  0  0  0  0  0  0
    2.2249   -1.1802    0.0454 C   0  0  0  0  0  0  0  0  0  0  0  0
   -0.5975    0.8179   -1.3140 H   0  0  0  0  0  0  0  0  0  0  0  0
   -0.5521    0.1755    1.1310 H   0  0  0  0  0  0  0  0  0  0  0  0
    1.3977    1.2753    2.3757 H   0  0  0  0  0  0  0  0  0  0  0  0
    2.1687    1.5916    0.8344 H   0  0  0  0  0  0  0  0  0  0  0  0
    1.6140   -1.1401    2.0993 H   0  0  0  0  0  0  0  0  0  0  0  0
    4.2065    0.2819    1.3209 H   0  0  0  0  0  0  0  0  0  0  0  0
    4.0864   -1.3314    2.0347 H   0  0  0  0  0  0  0  0  0  0  0  0
    3.5875    0.0892    2.9706 H   0  0  0  0  0  0  0  0  0  0  0  0
    2.7775   -0.5757   -0.6818 H   0  0  0  0  0  0  0  0  0  0  0  0
    2.7180   -2.1558    0.1174 H   0  0  0  0  0  0  0  0  0  0  0  0
    1.2198   -1.3557   -0.3491 H   0  0  0  0  0  0  0  0  0  0  0  0
    0.3895    3.2969    0.4421 N   0  0  0  0  0  0  0  0  0  0  0  0
    0.0569    4.7026    0.4876 C   0  0  2  0  0  0  0  0  0  0  0  0
   -0.7894    4.9456    1.7303 C   0  0  0  0  0  0  0  0  0  0  0  0
   -1.4298    4.0580    2.2898 O   0  0  0  0  0  0  0  0  0  0  0  0
   -0.6834    5.1370   -0.7677 C   0  0  0  0  0  0  0  0  0  0  0  0
    1.3295    3.0475    0.1493 H   0  0  0  0  0  0  0  0  0  0  0  0
    1.0025    5.2486    0.5765 H   0  0  0  0  0  0  0  0  0  0  0  0
   -1.6334    4.6006   -0.8739 H   0  0  0  0  0  0  0  0  0  0  0  0
   -0.9094    6.2082   -0.7444 H   0  0  0  0  0  0  0  0  0  0  0  0
   -0.0854    4.9341   -1.6627 H   0  0  0  0  0  0  0  0  0  0  0  0
   -0.7800    6.2789    2.1156 N   0  0  0  0  0  0  0  0  0  0  0  0
   -1.5169    6.7654    3.2585 C   0  0  0  0  0  0  0  0  0  0  0  0
   -0.2057    6.9427    1.6044 H   0  0  0  0  0  0  0  0  0  0  0  0
   -2.5092    7.1126    2.9350 H   0  0  0  0  0  0  0  0  0  0  0  0
   -1.6336    5.9538    3.9918 H   0  0  0  0  0  0  0  0  0  0  0  0
   -0.9689    7.6002    3.7197 H   0  0  0  0  0  0  0  0  0  0  0  0
  1  3  1  0  0  0  0
  1  7  1  0  0  0  0
  1  2  2  0  0  0  0
 37 38  1  0  0  0  0
 38 46  1  0  0  0  0
 38 39  2  0  0  0  0
  8  9  1  0  0  0  0
  9 17  1  0  0  0  0
  9 10  2  0  0  0  0
 18 19  1  0  0  0  0
 19 36  1  0  0  0  0
 19 20  2  0  0  0  0
 37 40  1  0  0  0  0
  8 11  1  0  0  0  0
 22 23  1  0  0  0  0
 22 24  1  0  0  0  0
 46 47  1  0  0  0  0
 18 21  1  0  0  0  0
 21 22  1  0  0  0  0
 36 37  1  0  0  0  0
  7  8  1  0  0  0  0
 17 18  1  0  0  0  0
  3  4  1  0  0  0  0
  3  5  1  0  0  0  0
  3  6  1  0  0  0  0
 40 43  1  0  0  0  0
 40 44  1  0  0  0  0
 40 45  1  0  0  0  0
 11 14  1  0  0  0  0
 11 15  1  0  0  0  0
 11 16  1  0  0  0  0
 23 30  1  0  0  0  0
 23 31  1  0  0  0  0
 23 32  1  0  0  0  0
 24 33  1  0  0  0  0
 24 34  1  0  0  0  0
 24 35  1  0  0  0  0
 47 49  1  0  0  0  0
 47 50  1  0  0  0  0
 47 51  1  0  0  0  0
 21 27  1  0  0  0  0
 21 28  1  0  0  0  0
 37 42  1  0  0  0  0
  8 13  1  0  0  0  0
 18 26  1  0  0  0  0
 22 29  1  0  0  0  0
 46 48  1  0  0  0  0
  7 12  1  0  0  0  0
 36 41  1  0  0  0  0
 17 25  1  0  0  0  0
M  END
$$$$

  -OEChem-05262214473D

 51 50  0     1  0  0  0  0  0999 V2000
    3.4018   -1.2440   -3.0186 C   0  0  0  0  0  0  0  0  0  0  0  0
    3.2697   -2.0909   -2.1427 O   0  0  0  0  0  0  0  0  0  0  0  0
    4.6845   -1.1645   -3.7779 C   0  0  0  0  0  0  0  0  0  0  0  0
    5.4123   -0.4862   -3.3041 H   0  0  0  0  0  0  0  0  0  0  0  0
    5.1949   -2.1387   -3.8443 H   0  0  0  0  0  0  0  0  0  0  0  0
    4.5953   -0.8128   -4.8182 H   0  0  0  0  0  0  0  0  0  0  0  0
    2.4540   -0.3103   -3.4040 N   0  0  0  0  0  0  0  0  0  0  0  0
    1.1494   -0.2128   -2.8039 C   0  0  2  0  0  0  0  0  0  0  0  0
    1.3350    0.0367   -1.3130 C   0  0  0  0  0  0  0  0  0  0  0  0
    2.3625   -0.2586   -0.7063 O   0  0  0  0  0  0  0  0  0  0  0  0
    0.3331   -1.4728   -3.0467 C   0  0  0  0  0  0  0  0  0  0  0  0
    2.6924    0.3404   -4.1502 H   0  0  0  0  0  0  0  0  0  0  0  0
    0.6550    0.6514   -3.2607 H   0  0  0  0  0  0  0  0  0  0  0  0
    0.8129   -2.3494   -2.5963 H   0  0  0  0  0  0  0  0  0  0  0  0
   -0.6690   -1.3857   -2.6142 H   0  0  0  0  0  0  0  0  0  0  0  0
    0.2259   -1.6670   -4.1194 H   0  0  0  0  0  0  0  0  0  0  0  0
    0.2019    0.5893   -0.7269 N   0  0  0  0  0  0  0  0  0  0  0  0
    0.1242    0.9059    0.6756 C   0  0  2  0  0  0  0  0  0  0  0  0
   -0.5028    2.2920    0.7889 C   0  0  0  0  0  0  0  0  0  0  0  0
   -1.5316    2.5111    1.4252 O   0  0  0  0  0  0  0  0  0  0  0  0
    1.5011    0.8897    1.3516 C   0  0  0  0  0  0  0  0  0  0  0  0
    2.1759   -0.4958    1.4121 C   0  0  0  0  0  0  0  0  0  0  0  0
    3.5952   -0.3548    1.9693 C   0  0  0  0  0  0  0  0  0  0  0  0
    2.2249   -1.1802    0.0454 C   0  0  0  0  0  0  0  0  0  0  0  0
   -0.5975    0.8179   -1.3140 H   0  0  0  0  0  0  0  0  0  0  0  0
   -0.5521    0.1755    1.1310 H   0  0  0  0  0  0  0  0  0  0  0  0
    1.3977    1.2753    2.3757 H   0  0  0  0  0  0  0  0  0  0  0  0
    2.1687    1.5916    0.8344 H   0  0  0  0  0  0  0  0  0  0  0  0
    1.6140   -1.1401    2.0993 H   0  0  0  0  0  0  0  0  0  0  0  0
    4.2065    0.2819    1.3209 H   0  0  0  0  0  0  0  0  0  0  0  0
    4.0864   -1.3314    2.0347 H   0  0  0  0  0  0  0  0  0  0  0  0
    3.5875    0.0892    2.9706 H   0  0  0  0  0  0  0  0  0  0  0  0
    2.7775   -0.5757   -0.6818 H   0  0  0  0  0  0  0  0  0  0  0  0
    2.7180   -2.1558    0.1174 H   0  0  0  0  0  0  0  0  0  0  0  0
    1.2198   -1.3557   -0.3491 H   0  0  0  0  0  0  0  0  0  0  0  0
    0.2509    3.2591    0.1385 N   0  0  0  0  0  0  0  0  0  0  0  0
   -0.1065    4.6592    0.1147 C   0  0  2  0  0  0  0  0  0  0  0  0
   -0.6457    5.0303    1.4899 C   0  0  0  0  0  0  0  0  0  0  0  0
   -1.1086    4.2046    2.2741 O   0  0  0  0  0  0  0  0  0  0  0  0
   -1.1336    4.9497   -0.9684 C   0  0  0  0  0  0  0  0  0  0  0  0
    1.1038    2.9854   -0.3405 H   0  0  0  0  0  0  0  0  0  0  0  0
    0.8156    5.2177   -0.0795 H   0  0  0  0  0  0  0  0  0  0  0  0
   -2.0644    4.3989   -0.7907 H   0  0  0  0  0  0  0  0  0  0  0  0
   -1.3821    6.0156   -1.0040 H   0  0  0  0  0  0  0  0  0  0  0  0
   -0.7556    4.6547   -1.9532 H   0  0  0  0  0  0  0  0  0  0  0  0
   -0.5890    6.3976    1.7211 N   0  0  0  0  0  0  0  0  0  0  0  0
   -1.0529    7.0006    2.9488 C   0  0  0  0  0  0  0  0  0  0  0  0
   -0.1719    7.0056    1.0225 H   0  0  0  0  0  0  0  0  0  0  0  0
   -2.1040    7.3041    2.8345 H   0  0  0  0  0  0  0  0  0  0  0  0
   -0.9688    6.2728    3.7693 H   0  0  0  0  0  0  0  0  0  0  0  0
   -0.4391    7.8841    3.1780 H   0  0  0  0  0  0  0  0  0  0  0  0
  1  3  1  0  0  0  0
  1  7  1  0  0  0  0
  1  2  2  0  0  0  0
 37 38  1  0  0  0  0
 38 46  1  0  0  0  0
 38 39  2  0  0  0  0
  8  9  1  0  0  0  0
  9 17  1  0  0  0  0
  9 10  2  0  0  0  0
 18 19  1  0  0  0  0
 19 36  1  0  0  0  0
 19 20  2  0  0  0  0
 37 40  1  0  0  0  0
  8 11  1  0  0  0  0
 22 23  1  0  0  0  0
 22 24  1  0  0  0  0
 46 47  1  0  0  0  0
 18 21  1  0  0  0  0
 21 22  1  0  0  0  0
 36 37  1  0  0  0  0
  7  8  1  0  0  0  0
 17 18  1  0  0  0  0
  3  4  1  0  0  0  0
  3  5  1  0  0  0  0
  3  6  1  0  0  0  0
 40 43  1  0  0  0  0
 40 44  1  0  0  0  0
 40 45  1  0  0  0  0
 11 14  1  0  0  0  0
 11 15  1  0  0  0  0
 11 16  1  0  0  0  0
 23 30  1  0  0  0  0
 23 31  1  0  0  0  0
 23 32  1  0  0  0  0
 24 33  1  0  0  0  0
 24 34  1  0  0  0  0
 24 35  1  0  0  0  0
 47 49  1  0  0  0  0
 47 50  1  0  0  0  0
 47 51  1  0  0  0  0
 21 27  1  0  0  0  0
 21 28  1  0  0  0  0
 37 42  1  0  0  0  0
  8 13  1  0  0  0  0
 18 26  1  0  0  0  0
 22 29  1  0  0  0  0
 46 48  1  0  0  0  0
  7 12  1  0  0  0  0
 36 41  1  0  0  0  0
 17 25  1  0  0  0  0
M  END
$$$$

  -OEChem-05262214473D

 51 50  0     1  0  0  0  0  0999 V2000
    3.4018   -1.2440   -3.0186 C   0  0  0  0  0  0  0  0  0  0  0  0
    3.2697   -2.0909   -2.1427 O   0  0  0  0  0  0  0  0  0  0  0  0
    4.6845   -1.1645   -3.7779 C   0  0  0  0  0  0  0  0  0  0  0  0
    5.4123   -0.4862   -3.3041 H   0  0  0  0  0  0  0  0  0  0  0  0
    5.1949   -2.1387   -3.8443 H   0  0  0  0  0  0  0  0  0  0  0  0
    4.5953   -0.8128   -4.8182 H   0  0  0  0  0  0  0  0  0  0  0  0
    2.4540   -0.3103   -3.4040 N   0  0  0  0  0  0  0  0  0  0  0  0
    1.1494   -0.2128   -2.8039 C   0  0  2  0  0  0  0  0  0  0  0  0
    1.3350    0.0367   -1.3130 C   0  0  0  0  0  0  0  0  0  0  0  0
    2.3625   -0.2586   -0.7063 O   0  0  0  0  0  0  0  0  0  0  0  0
    0.3331   -1.4728   -3.0467 C   0  0  0  0  0  0  0  0  0  0  0  0
    2.6924    0.3404   -4.1502 H   0  0  0  0  0  0  0  0  0  0  0  0
    0.6550    0.6514   -3.2607 H   0  0  0  0  0  0  0  0  0  0  0  0
    0.8129   -2.3494   -2.5963 H   0  0  0  0  0  0  0  0  0  0  0  0
   -0.6690   -1.3857   -2.6142 H   0  0  0  0  0  0  0  0  0  0  0  0
    0.2259   -1.6670   -4.1194 H   0  0  0  0  0  0  0  0  0  0  0  0
    0.2019    0.5893   -0.7269 N   0  0  0  0  0  0  0  0  0  0  0  0
    0.1242    0.9059    0.6756 C   0  0  2  0  0  0  0  0  0  0  0  0
   -0.5028    2.2920    0.7889 C   0  0  0  0  0  0  0  0  0  0  0  0
   -1.3605    2.5723    1.6238 O   0  0  0  0  0  0  0  0  0  0  0  0
    1.5011    0.8897    1.3516 C   0  0  0  0  0  0  0  0  0  0  0  0
    2.1759   -0.4958    1.4121 C   0  0  0  0  0  0  0  0  0  0  0  0
    3.5952   -0.3548    1.9693 C   0  0  0  0  0  0  0  0  0  0  0  0
    2.2249   -1.1802    0.0454 C   0  0  0  0  0  0  0  0  0  0  0  0
   -0.5975    0.8179   -1.3140 H   0  0  0  0  0  0  0  0  0  0  0  0
   -0.5521    0.1755    1.1310 H   0  0  0  0  0  0  0  0  0  0  0  0
    1.3977    1.2753    2.3757 H   0  0  0  0  0  0  0  0  0  0  0  0
    2.1687    1.5916    0.8344 H   0  0  0  0  0  0  0  0  0  0  0  0
    1.6140   -1.1401    2.0993 H   0  0  0  0  0  0  0  0  0  0  0  0
    4.2065    0.2819    1.3209 H   0  0  0  0  0  0  0  0  0  0  0  0
    4.0864   -1.3314    2.0347 H   0  0  0  0  0  0  0  0  0  0  0  0
    3.5875    0.0892    2.9706 H   0  0  0  0  0  0  0  0  0  0  0  0
    2.7775   -0.5757   -0.6818 H   0  0  0  0  0  0  0  0  0  0  0  0
    2.7180   -2.1558    0.1174 H   0  0  0  0  0  0  0  0  0  0  0  0
    1.2198   -1.3557   -0.3491 H   0  0  0  0  0  0  0  0  0  0  0  0
    0.0464    3.1875   -0.1182 N   0  0  0  0  0  0  0  0  0  0  0  0
   -0.3512    4.5744   -0.2024 C   0  0  2  0  0  0  0  0  0  0  0  0
   -0.5651    5.0893    1.2149 C   0  0  0  0  0  0  0  0  0  0  0  0
   -0.8048    4.3507    2.1678 O   0  0  0  0  0  0  0  0  0  0  0  0
   -1.6121    4.7389   -1.0365 C   0  0  0  0  0  0  0  0  0  0  0  0
    0.7717    2.8690   -0.7539 H   0  0  0  0  0  0  0  0  0  0  0  0
    0.4815    5.1146   -0.6660 H   0  0  0  0  0  0  0  0  0  0  0  0
   -2.4574    4.2045   -0.5876 H   0  0  0  0  0  0  0  0  0  0  0  0
   -1.8959    5.7929   -1.1231 H   0  0  0  0  0  0  0  0  0  0  0  0
   -1.4660    4.3410   -2.0465 H   0  0  0  0  0  0  0  0  0  0  0  0
   -0.4995    6.4739    1.2826 N   0  0  0  0  0  0  0  0  0  0  0  0
   -0.6822    7.2037    2.5155 C   0  0  0  0  0  0  0  0  0  0  0  0
   -0.2772    7.0051    0.4459 H   0  0  0  0  0  0  0  0  0  0  0  0
   -1.7400    7.4862    2.6217 H   0  0  0  0  0  0  0  0  0  0  0  0
   -0.3850    6.5700    3.3640 H   0  0  0  0  0  0  0  0  0  0  0  0
   -0.0603    8.1109    2.5000 H   0  0  0  0  0  0  0  0  0  0  0  0
  1  3  1  0  0  0  0
  1  7  1  0  0  0  0
  1  2  2  0  0  0  0
 37 38  1  0  0  0  0
 38 46  1  0  0  0  0
 38 39  2  0  0  0  0
  8  9  1  0  0  0  0
  9 17  1  0  0  0  0
  9 10  2  0  0  0  0
 18 19  1  0  0  0  0
 19 36  1  0  0  0  0
 19 20  2  0  0  0  0
 37 40  1  0  0  0  0
  8 11  1  0  0  0  0
 22 23  1  0  0  0  0
 22 24  1  0  0  0  0
 46 47  1  0  0  0  0
 18 21  1  0  0  0  0
 21 22  1  0  0  0  0
 36 37  1  0  0  0  0
  7  8  1  0  0  0  0
 17 18  1  0  0  0  0
  3  4  1  0  0  0  0
  3  5  1  0  0  0  0
  3  6  1  0  0  0  0
 40 43  1  0  0  0  0
 40 44  1  0  0  0  0
 40 45  1  0  0  0  0
 11 14  1  0  0  0  0
 11 15  1  0  0  0  0
 11 16  1  0  0  0  0
 23 30  1  0  0  0  0
 23 31  1  0  0  0  0
 23 32  1  0  0  0  0
 24 33  1  0  0  0  0
 24 34  1  0  0  0  0
 24 35  1  0  0  0  0
 47 49  1  0  0  0  0
 47 50  1  0  0  0  0
 47 51  1  0  0  0  0
 21 27  1  0  0  0  0
 21 28  1  0  0  0  0
 37 42  1  0  0  0  0
  8 13  1  0  0  0  0
 18 26  1  0  0  0  0
 22 29  1  0  0  0  0
 46 48  1  0  0  0  0
  7 12  1  0  0  0  0
 36 41  1  0  0  0  0
 17 25  1  0  0  0  0
M  END
$$$$

  -OEChem-05262214473D

 51 50  0     1  0  0  0  0  0999 V2000
    3.4018   -1.2440   -3.0186 C   0  0  0  0  0  0  0  0  0  0  0  0
    3.2697   -2.0909   -2.1427 O   0  0  0  0  0  0  0  0  0  0  0  0
    4.6845   -1.1645   -3.7779 C   0  0  0  0  0  0  0  0  0  0  0  0
    5.4123   -0.4862   -3.3041 H   0  0  0  0  0  0  0  0  0  0  0  0
    5.1949   -2.1387   -3.8443 H   0  0  0  0  0  0  0  0  0  0  0  0
    4.5953   -0.8128   -4.8182 H   0  0  0  0  0  0  0  0  0  0  0  0
    2.4540   -0.3103   -3.4040 N   0  0  0  0  0  0  0  0  0  0  0  0
    1.1494   -0.2128   -2.8039 C   0  0  2  0  0  0  0  0  0  0  0  0
    1.3350    0.0367   -1.3130 C   0  0  0  0  0  0  0  0  0  0  0  0
    2.3625   -0.2586   -0.7063 O   0  0  0  0  0  0  0  0  0  0  0  0
    0.3331   -1.4728   -3.0467 C   0  0  0  0  0  0  0  0  0  0  0  0
    2.6924    0.3404   -4.1502 H   0  0  0  0  0  0  0  0  0  0  0  0
    0.6550    0.6514   -3.2607 H   0  0  0  0  0  0  0  0  0  0  0  0
    0.8129   -2.3494   -2.5963 H   0  0  0  0  0  0  0  0  0  0  0  0
   -0.6690   -1.3857   -2.6142 H   0  0  0  0  0  0  0  0  0  0  0  0
    0.2259   -1.6670   -4.1194 H   0  0  0  0  0  0  0  0  0  0  0  0
    0.2019    0.5893   -0.7269 N   0  0  0  0  0  0  0  0  0  0  0  0
    0.1242    0.9059    0.6756 C   0  0  2  0  0  0  0  0  0  0  0  0
   -0.5028    2.2920    0.7889 C   0  0  0  0  0  0  0  0  0  0  0  0
   -1.1497    2.6558    1.7689 O   0  0  0  0  0  0  0  0  0  0  0  0
    1.5011    0.8897    1.3516 C   0  0  0  0  0  0  0  0  0  0  0  0
    2.1759   -0.4958    1.4121 C   0  0  0  0  0  0  0  0  0  0  0  0
    3.5952   -0.3548    1.9693 C   0  0  0  0  0  0  0  0  0  0  0  0
    2.2249   -1.1802    0.0454 C   0  0  0  0  0  0  0  0  0  0  0  0
   -0.5975    0.8179   -1.3140 H   0  0  0  0  0  0  0  0  0  0  0  0
   -0.5521    0.1755    1.1310 H   0  0  0  0  0  0  0  0  0  0  0  0
    1.3977    1.2753    2.3757 H   0  0  0  0  0  0  0  0  0  0  0  0
    2.1687    1.5916    0.8344 H   0  0  0  0  0  0  0  0  0  0  0  0
    1.6140   -1.1401    2.0993 H   0  0  0  0  0  0  0  0  0  0  0  0
    4.2065    0.2819    1.3209 H   0  0  0  0  0  0  0  0  0  0  0  0
    4.0864   -1.3314    2.0347 H   0  0  0  0  0  0  0  0  0  0  0  0
    3.5875    0.0892    2.9706 H   0  0  0  0  0  0  0  0  0  0  0  0
    2.7775   -0.5757   -0.6818 H   0  0  0  0  0  0  0  0  0  0  0  0
    2.7180   -2.1558    0.1174 H   0  0  0  0  0  0  0  0  0  0  0  0
    1.2198   -1.3557   -0.3491 H   0  0  0  0  0  0  0  0  0  0  0  0
   -0.2101    3.0872   -0.3104 N   0  0  0  0  0  0  0  0  0  0  0  0
   -0.6605    4.4541   -0.4422 C   0  0  2  0  0  0  0  0  0  0  0  0
   -0.5530    5.1185    0.9240 C   0  0  0  0  0  0  0  0  0  0  0  0
   -0.5392    4.4863    1.9782 O   0  0  0  0  0  0  0  0  0  0  0  0
   -2.0863    4.5187   -0.9673 C   0  0  0  0  0  0  0  0  0  0  0  0
    0.3559    2.7062   -1.0627 H   0  0  0  0  0  0  0  0  0  0  0  0
    0.0227    4.9461   -1.1430 H   0  0  0  0  0  0  0  0  0  0  0  0
   -2.7854    4.0308   -0.2784 H   0  0  0  0  0  0  0  0  0  0  0  0
   -2.4160    5.5552   -1.0936 H   0  0  0  0  0  0  0  0  0  0  0  0
   -2.1680    4.0144   -1.9362 H   0  0  0  0  0  0  0  0  0  0  0  0
   -0.5177    6.5027    0.8298 N   0  0  0  0  0  0  0  0  0  0  0  0
   -0.4298    7.3610    1.9881 C   0  0  0  0  0  0  0  0  0  0  0  0
   -0.5145    6.9413   -0.0863 H   0  0  0  0  0  0  0  0  0  0  0  0
   -1.4418    7.6464    2.3112 H   0  0  0  0  0  0  0  0  0  0  0  0
    0.0778    6.8251    2.8037 H   0  0  0  0  0  0  0  0  0  0  0  0
    0.1418    8.2652    1.7319 H   0  0  0  0  0  0  0  0  0  0  0  0
  1  3  1  0  0  0  0
  1  7  1  0  0  0  0
  1  2  2  0  0  0  0
 37 38  1  0  0  0  0
 38 46  1  0  0  0  0
 38 39  2  0  0  0  0
  8  9  1  0  0  0  0
  9 17  1  0  0  0  0
  9 10  2  0  0  0  0
 18 19  1  0  0  0  0
 19 36  1  0  0  0  0
 19 20  2  0  0  0  0
 37 40  1  0  0  0  0
  8 11  1  0  0  0  0
 22 23  1  0  0  0  0
 22 24  1  0  0  0  0
 46 47  1  0  0  0  0
 18 21  1  0  0  0  0
 21 22  1  0  0  0  0
 36 37  1  0  0  0  0
  7  8  1  0  0  0  0
 17 18  1  0  0  0  0
  3  4  1  0  0  0  0
  3  5  1  0  0  0  0
  3  6  1  0  0  0  0
 40 43  1  0  0  0  0
 40 44  1  0  0  0  0
 40 45  1  0  0  0  0
 11 14  1  0  0  0  0
 11 15  1  0  0  0  0
 11 16  1  0  0  0  0
 23 30  1  0  0  0  0
 23 31  1  0  0  0  0
 23 32  1  0  0  0  0
 24 33  1  0  0  0  0
 24 34  1  0  0  0  0
 24 35  1  0  0  0  0
 47 49  1  0  0  0  0
 47 50  1  0  0  0  0
 47 51  1  0  0  0  0
 21 27  1  0  0  0  0
 21 28  1  0  0  0  0
 37 42  1  0  0  0  0
  8 13  1  0  0  0  0
 18 26  1  0  0  0  0
 22 29  1  0  0  0  0
 46 48  1  0  0  0  0
  7 12  1  0  0  0  0
 36 41  1  0  0  0  0
 17 25  1  0  0  0  0
M  END
$$$$

  -OEChem-05262214473D

 51 50  0     1  0  0  0  0  0999 V2000
    3.4018   -1.2440   -3.0186 C   0  0  0  0  0  0  0  0  0  0  0  0
    3.2697   -2.0909   -2.1427 O   0  0  0  0  0  0  0  0  0  0  0  0
    4.6845   -1.1645   -3.7779 C   0  0  0  0  0  0  0  0  0  0  0  0
    5.4123   -0.4862   -3.3041 H   0  0  0  0  0  0  0  0  0  0  0  0
    5.1949   -2.1387   -3.8443 H   0  0  0  0  0  0  0  0  0  0  0  0
    4.5953   -0.8128   -4.8182 H   0  0  0  0  0  0  0  0  0  0  0  0
    2.4540   -0.3103   -3.4040 N   0  0  0  0  0  0  0  0  0  0  0  0
    1.1494   -0.2128   -2.8039 C   0  0  2  0  0  0  0  0  0  0  0  0
    1.3350    0.0367   -1.3130 C   0  0  0  0  0  0  0  0  0  0  0  0
    2.3625   -0.2586   -0.7063 O   0  0  0  0  0  0  0  0  0  0  0  0
    0.3331   -1.4728   -3.0467 C   0  0  0  0  0  0  0  0  0  0  0  0
    2.6924    0.3404   -4.1502 H   0  0  0  0  0  0  0  0  0  0  0  0
    0.6550    0.6514   -3.2607 H   0  0  0  0  0  0  0  0  0  0  0  0
    0.8129   -2.3494   -2.5963 H   0  0  0  0  0  0  0  0  0  0  0  0
   -0.6690   -1.3857   -2.6142 H   0  0  0  0  0  0  0  0  0  0  0  0
    0.2259   -1.6670   -4.1194 H   0  0  0  0  0  0  0  0  0  0  0  0
    0.2019    0.5893   -0.7269 N   0  0  0  0  0  0  0  0  0  0  0  0
    0.1242    0.9059    0.6756 C   0  0  2  0  0  0  0  0  0  0  0  0
   -0.5028    2.2920    0.7889 C   0  0  0  0  0  0  0  0  0  0  0  0
   -0.9135    2.7559    1.8507 O   0  0  0  0  0  0  0  0  0  0  0  0
    1.5011    0.8897    1.3516 C   0  0  0  0  0  0  0  0  0  0  0  0
    2.1759   -0.4958    1.4121 C   0  0  0  0  0  0  0  0  0  0  0  0
    3.5952   -0.3548    1.9693 C   0  0  0  0  0  0  0  0  0  0  0  0
    2.2249   -1.1802    0.0454 C   0  0  0  0  0  0  0  0  0  0  0  0
   -0.5975    0.8179   -1.3140 H   0  0  0  0  0  0  0  0  0  0  0  0
   -0.5521    0.1755    1.1310 H   0  0  0  0  0  0  0  0  0  0  0  0
    1.3977    1.2753    2.3757 H   0  0  0  0  0  0  0  0  0  0  0  0
    2.1687    1.5916    0.8344 H   0  0  0  0  0  0  0  0  0  0  0  0
    1.6140   -1.1401    2.0993 H   0  0  0  0  0  0  0  0  0  0  0  0
    4.2065    0.2819    1.3209 H   0  0  0  0  0  0  0  0  0  0  0  0
    4.0864   -1.3314    2.0347 H   0  0  0  0  0  0  0  0  0  0  0  0
    3.5875    0.0892    2.9706 H   0  0  0  0  0  0  0  0  0  0  0  0
    2.7775   -0.5757   -0.6818 H   0  0  0  0  0  0  0  0  0  0  0  0
    2.7180   -2.1558    0.1174 H   0  0  0  0  0  0  0  0  0  0  0  0
    1.2198   -1.3557   -0.3491 H   0  0  0  0  0  0  0  0  0  0  0  0
   -0.5012    2.9649   -0.4250 N   0  0  0  0  0  0  0  0  0  0  0  0
   -1.0134    4.3064   -0.5882 C   0  0  2  0  0  0  0  0  0  0  0  0
   -0.6103    5.1161    0.6371 C   0  0  0  0  0  0  0  0  0  0  0  0
   -0.3299    4.6023    1.7181 O   0  0  0  0  0  0  0  0  0  0  0  0
   -2.5238    4.3043   -0.7655 C   0  0  0  0  0  0  0  0  0  0  0  0
   -0.1151    2.5081   -1.2459 H   0  0  0  0  0  0  0  0  0  0  0  0
   -0.5293    4.7237   -1.4779 H   0  0  0  0  0  0  0  0  0  0  0  0
   -3.0262    3.8896    0.1160 H   0  0  0  0  0  0  0  0  0  0  0  0
   -2.9069    5.3188   -0.9176 H   0  0  0  0  0  0  0  0  0  0  0  0
   -2.8139    3.6971   -1.6298 H   0  0  0  0  0  0  0  0  0  0  0  0
   -0.6422    6.4821    0.3937 N   0  0  0  0  0  0  0  0  0  0  0  0
   -0.3131    7.4617    1.4027 C   0  0  0  0  0  0  0  0  0  0  0  0
   -0.8677    6.8185   -0.5378 H   0  0  0  0  0  0  0  0  0  0  0  0
   -1.2299    7.7739    1.9242 H   0  0  0  0  0  0  0  0  0  0  0  0
    0.3882    7.0209    2.1265 H   0  0  0  0  0  0  0  0  0  0  0  0
    0.1534    8.3364    0.9260 H   0  0  0  0  0  0  0  0  0  0  0  0
  1  3  1  0  0  0  0
  1  7  1  0  0  0  0
  1  2  2  0  0  0  0
 37 38  1  0  0  0  0
 38 46  1  0  0  0  0
 38 39  2  0  0  0  0
  8  9  1  0  0  0  0
  9 17  1  0  0  0  0
  9 10  2  0  0  0  0
 18 19  1  0  0  0  0
 19 36  1  0  0  0  0
 19 20  2  0  0  0  0
 37 40  1  0  0  0  0
  8 11  1  0  0  0  0
 22 23  1  0  0  0  0
 22 24  1  0  0  0  0
 46 47  1  0  0  0  0
 18 21  1  0  0  0  0
 21 22  1  0  0  0  0
 36 37  1  0  0  0  0
  7  8  1  0  0  0  0
 17 18  1  0  0  0  0
  3  4  1  0  0  0  0
  3  5  1  0  0  0  0
  3  6  1  0  0  0  0
 40 43  1  0  0  0  0
 40 44  1  0  0  0  0
 40 45  1  0  0  0  0
 11 14  1  0  0  0  0
 11 15  1  0  0  0  0
 11 16  1  0  0  0  0
 23 30  1  0  0  0  0
 23 31  1  0  0  0  0
 23 32  1  0  0  0  0
 24 33  1  0  0  0  0
 24 34  1  0  0  0  0
 24 35  1  0  0  0  0
 47 49  1  0  0  0  0
 47 50  1  0  0  0  0
 47 51  1  0  0  0  0
 21 27  1  0  0  0  0
 21 28  1  0  0  0  0
 37 42  1  0  0  0  0
  8 13  1  0  0  0  0
 18 26  1  0  0  0  0
 22 29  1  0  0  0  0
 46 48  1  0  0  0  0
  7 12  1  0  0  0  0
 36 41  1  0  0  0  0
 17 25  1  0  0  0  0
M  END
$$$$

  -OEChem-05262214473D

 51 50  0     1  0  0  0  0  0999 V2000
    3.4018   -1.2440   -3.0186 C   0  0  0  0  0  0  0  0  0  0  0  0
    3.2697   -2.0909   -2.1427 O   0  0  0  0  0  0  0  0  0  0  0  0
    4.6845   -1.1645   -3.7779 C   0  0  0  0  0  0  0  0  0  0  0  0
    5.4123   -0.4862   -3.3041 H   0  0  0  0  0  0  0  0  0  0  0  0
    5.1949   -2.1387   -3.8443 H   0  0  0  0  0  0  0  0  0  0  0  0
    4.5953   -0.8128   -4.8182 H   0  0  0  0  0  0  0  0  0  0  0  0
    2.4540   -0.3103   -3.4040 N   0  0  0  0  0  0  0  0  0  0  0  0
    1.1494   -0.2128   -2.8039 C   0  0  2  0  0  0  0  0  0  0  0  0
    1.3350    0.0367   -1.3130 C   0  0  0  0  0  0  0  0  0  0  0  0
    2.3625   -0.2586   -0.7063 O   0  0  0  0  0  0  0  0  0  0  0  0
    0.3331   -1.4728   -3.0467 C   0  0  0  0  0  0  0  0  0  0  0  0
    2.6924    0.3404   -4.1502 H   0  0  0  0  0  0  0  0  0  0  0  0
    0.6550    0.6514   -3.2607 H   0  0  0  0  0  0  0  0  0  0  0  0
    0.8129   -2.3494   -2.5963 H   0  0  0  0  0  0  0  0  0  0  0  0
   -0.6690   -1.3857   -2.6142 H   0  0  0  0  0  0  0  0  0  0  0  0
    0.2259   -1.6670   -4.1194 H   0  0  0  0  0  0  0  0  0  0  0  0
    0.2019    0.5893   -0.7269 N   0  0  0  0  0  0  0  0  0  0  0  0
    0.1242    0.9059    0.6756 C   0  0  2  0  0  0  0  0  0  0  0  0
   -0.5028    2.2920    0.7889 C   0  0  0  0  0  0  0  0  0  0  0  0
   -0.6681    2.8658    1.8634 O   0  0  0  0  0  0  0  0  0  0  0  0
    1.5011    0.8897    1.3516 C   0  0  0  0  0  0  0  0  0  0  0  0
    2.1759   -0.4958    1.4121 C   0  0  0  0  0  0  0  0  0  0  0  0
    3.5952   -0.3548    1.9693 C   0  0  0  0  0  0  0  0  0  0  0  0
    2.2249   -1.1802    0.0454 C   0  0  0  0  0  0  0  0  0  0  0  0
   -0.5975    0.8179   -1.3140 H   0  0  0  0  0  0  0  0  0  0  0  0
   -0.5521    0.1755    1.1310 H   0  0  0  0  0  0  0  0  0  0  0  0
    1.3977    1.2753    2.3757 H   0  0  0  0  0  0  0  0  0  0  0  0
    2.1687    1.5916    0.8344 H   0  0  0  0  0  0  0  0  0  0  0  0
    1.6140   -1.1401    2.0993 H   0  0  0  0  0  0  0  0  0  0  0  0
    4.2065    0.2819    1.3209 H   0  0  0  0  0  0  0  0  0  0  0  0
    4.0864   -1.3314    2.0347 H   0  0  0  0  0  0  0  0  0  0  0  0
    3.5875    0.0892    2.9706 H   0  0  0  0  0  0  0  0  0  0  0  0
    2.7775   -0.5757   -0.6818 H   0  0  0  0  0  0  0  0  0  0  0  0
    2.7180   -2.1558    0.1174 H   0  0  0  0  0  0  0  0  0  0  0  0
    1.2198   -1.3557   -0.3491 H   0  0  0  0  0  0  0  0  0  0  0  0
   -0.8070    2.8290   -0.4543 N   0  0  0  0  0  0  0  0  0  0  0  0
   -1.3857    4.1415   -0.6306 C   0  0  2  0  0  0  0  0  0  0  0  0
   -0.7330    5.0821    0.3737 C   0  0  0  0  0  0  0  0  0  0  0  0
   -0.1911    4.6906    1.4053 O   0  0  0  0  0  0  0  0  0  0  0  0
   -2.8948    4.1103   -0.4449 C   0  0  0  0  0  0  0  0  0  0  0  0
   -0.6094    2.2882   -1.2910 H   0  0  0  0  0  0  0  0  0  0  0  0
   -1.1369    4.4628   -1.6479 H   0  0  0  0  0  0  0  0  0  0  0  0
   -3.1634    3.7906    0.5686 H   0  0  0  0  0  0  0  0  0  0  0  0
   -3.3350    5.0997   -0.6069 H   0  0  0  0  0  0  0  0  0  0  0  0
   -3.3596    3.4109   -1.1482 H   0  0  0  0  0  0  0  0  0  0  0  0
   -0.8647    6.4133    0.0039 N   0  0  0  0  0  0  0  0  0  0  0  0
   -0.3400    7.4989    0.7991 C   0  0  0  0  0  0  0  0  0  0  0  0
   -1.3126    6.6450   -0.8778 H   0  0  0  0  0  0  0  0  0  0  0  0
   -1.1188    7.8600    1.4869 H   0  0  0  0  0  0  0  0  0  0  0  0
    0.5250    7.1440    1.3785 H   0  0  0  0  0  0  0  0  0  0  0  0
   -0.0263    8.3196    0.1373 H   0  0  0  0  0  0  0  0  0  0  0  0
  1  3  1  0  0  0  0
  1  7  1  0  0  0  0
  1  2  2  0  0  0  0
 37 38  1  0  0  0  0
 38 46  1  0  0  0  0
 38 39  2  0  0  0  0
  8  9  1  0  0  0  0
  9 17  1  0  0  0  0
  9 10  2  0  0  0  0
 18 19  1  0  0  0  0
 19 36  1  0  0  0  0
 19 20  2  0  0  0  0
 37 40  1  0  0  0  0
  8 11  1  0  0  0  0
 22 23  1  0  0  0  0
 22 24  1  0  0  0  0
 46 47  1  0  0  0  0
 18 21  1  0  0  0  0
 21 22  1  0  0  0  0
 36 37  1  0  0  0  0
  7  8  1  0  0  0  0
 17 18  1  0  0  0  0
  3  4  1  0  0  0  0
  3  5  1  0  0  0  0
  3  6  1  0  0  0  0
 40 43  1  0  0  0  0
 40 44  1  0  0  0  0
 40 45  1  0  0  0  0
 11 14  1  0  0  0  0
 11 15  1  0  0  0  0
 11 16  1  0  0  0  0
 23 30  1  0  0  0  0
 23 31  1  0  0  0  0
 23 32  1  0  0  0  0
 24 33  1  0  0  0  0
 24 34  1  0  0  0  0
 24 35  1  0  0  0  0
 47 49  1  0  0  0  0
 47 50  1  0  0  0  0
 47 51  1  0  0  0  0
 21 27  1  0  0  0  0
 21 28  1  0  0  0  0
 37 42  1  0  0  0  0
  8 13  1  0  0  0  0
 18 26  1  0  0  0  0
 22 29  1  0  0  0  0
 46 48  1  0  0  0  0
  7 12  1  0  0  0  0
 36 41  1  0  0  0  0
 17 25  1  0  0  0  0
M  END
$$$$

  -OEChem-05262214473D

 51 50  0     1  0  0  0  0  0999 V2000
    3.4018   -1.2440   -3.0186 C   0  0  0  0  0  0  0  0  0  0  0  0
    3.2697   -2.0909   -2.1427 O   0  0  0  0  0  0  0  0  0  0  0  0
    4.6845   -1.1645   -3.7779 C   0  0  0  0  0  0  0  0  0  0  0  0
    5.4123   -0.4862   -3.3041 H   0  0  0  0  0  0  0  0  0  0  0  0
    5.1949   -2.1387   -3.8443 H   0  0  0  0  0  0  0  0  0  0  0  0
    4.5953   -0.8128   -4.8182 H   0  0  0  0  0  0  0  0  0  0  0  0
    2.4540   -0.3103   -3.4040 N   0  0  0  0  0  0  0  0  0  0  0  0
    1.1494   -0.2128   -2.8039 C   0  0  2  0  0  0  0  0  0  0  0  0
    1.3350    0.0367   -1.3130 C   0  0  0  0  0  0  0  0  0  0  0  0
    2.3625   -0.2586   -0.7063 O   0  0  0  0  0  0  0  0  0  0  0  0
    0.3331   -1.4728   -3.0467 C   0  0  0  0  0  0  0  0  0  0  0  0
    2.6924    0.3404   -4.1502 H   0  0  0  0  0  0  0  0  0  0  0  0
    0.6550    0.6514   -3.2607 H   0  0  0  0  0  0  0  0  0  0  0  0
    0.8129   -2.3494   -2.5963 H   0  0  0  0  0  0  0  0  0  0  0  0
   -0.6690   -1.3857   -2.6142 H   0  0  0  0  0  0  0  0  0  0  0  0
    0.2259   -1.6670   -4.1194 H   0  0  0  0  0  0  0  0  0  0  0  0
    0.2019    0.5893   -0.7269 N   0  0  0  0  0  0  0  0  0  0  0  0
    0.1242    0.9059    0.6756 C   0  0  2  0  0  0  0  0  0  0  0  0
   -0.5028    2.2920    0.7889 C   0  0  0  0  0  0  0  0  0  0  0  0
   -0.4302    2.9781    1.8063 O   0  0  0  0  0  0  0  0  0  0  0  0
    1.5011    0.8897    1.3516 C   0  0  0  0  0  0  0  0  0  0  0  0
    2.1759   -0.4958    1.4121 C   0  0  0  0  0  0  0  0  0  0  0  0
    3.5952   -0.3548    1.9693 C   0  0  0  0  0  0  0  0  0  0  0  0
    2.2249   -1.1802    0.0454 C   0  0  0  0  0  0  0  0  0  0  0  0
   -0.5975    0.8179   -1.3140 H   0  0  0  0  0  0  0  0  0  0  0  0
   -0.5521    0.1755    1.1310 H   0  0  0  0  0  0  0  0  0  0  0  0
    1.3977    1.2753    2.3757 H   0  0  0  0  0  0  0  0  0  0  0  0
    2.1687    1.5916    0.8344 H   0  0  0  0  0  0  0  0  0  0  0  0
    1.6140   -1.1401    2.0993 H   0  0  0  0  0  0  0  0  0  0  0  0
    4.2065    0.2819    1.3209 H   0  0  0  0  0  0  0  0  0  0  0  0
    4.0864   -1.3314    2.0347 H   0  0  0  0  0  0  0  0  0  0  0  0
    3.5875    0.0892    2.9706 H   0  0  0  0  0  0  0  0  0  0  0  0
    2.7775   -0.5757   -0.6818 H   0  0  0  0  0  0  0  0  0  0  0  0
    2.7180   -2.1558    0.1174 H   0  0  0  0  0  0  0  0  0  0  0  0
    1.2198   -1.3557   -0.3491 H   0  0  0  0  0  0  0  0  0  0  0  0
   -1.1066    2.6887   -0.3962 N   0  0  0  0  0  0  0  0  0  0  0  0
   -1.7522    3.9705   -0.5665 C   0  0  2  0  0  0  0  0  0  0  0  0
   -0.9129    5.0189    0.1518 C   0  0  0  0  0  0  0  0  0  0  0  0
   -0.1323    4.7454    1.0611 O   0  0  0  0  0  0  0  0  0  0  0  0
   -3.1740    3.9498   -0.0274 C   0  0  0  0  0  0  0  0  0  0  0  0
   -1.0932    2.0615   -1.1950 H   0  0  0  0  0  0  0  0  0  0  0  0
   -1.7589    4.1809   -1.6415 H   0  0  0  0  0  0  0  0  0  0  0  0
   -3.1875    3.7404    1.0485 H   0  0  0  0  0  0  0  0  0  0  0  0
   -3.6714    4.9129   -0.1829 H   0  0  0  0  0  0  0  0  0  0  0  0
   -3.7680    3.1751   -0.5242 H   0  0  0  0  0  0  0  0  0  0  0  0
   -1.1700    6.3011   -0.3129 N   0  0  0  0  0  0  0  0  0  0  0  0
   -0.5086    7.4701    0.2183 C   0  0  0  0  0  0  0  0  0  0  0  0
   -1.8190    6.4327   -1.0831 H   0  0  0  0  0  0  0  0  0  0  0  0
   -1.1158    7.8987    1.0293 H   0  0  0  0  0  0  0  0  0  0  0  0
    0.4789    7.1859    0.6108 H   0  0  0  0  0  0  0  0  0  0  0  0
   -0.3849    8.2160   -0.5806 H   0  0  0  0  0  0  0  0  0  0  0  0
  1  3  1  0  0  0  0
  1  7  1  0  0  0  0
  1  2  2  0  0  0  0
 37 38  1  0  0  0  0
 38 46  1  0  0  0  0
 38 39  2  0  0  0  0
  8  9  1  0  0  0  0
  9 17  1  0  0  0  0
  9 10  2  0  0  0  0
 18 19  1  0  0  0  0
 19 36  1  0  0  0  0
 19 20  2  0  0  0  0
 37 40  1  0  0  0  0
  8 11  1  0  0  0  0
 22 23  1  0  0  0  0
 22 24  1  0  0  0  0
 46 47  1  0  0  0  0
 18 21  1  0  0  0  0
 21 22  1  0  0  0  0
 36 37  1  0  0  0  0
  7  8  1  0  0  0  0
 17 18  1  0  0  0  0
  3  4  1  0  0  0  0
  3  5  1  0  0  0  0
  3  6  1  0  0  0  0
 40 43  1  0  0  0  0
 40 44  1  0  0  0  0
 40 45  1  0  0  0  0
 11 14  1  0  0  0  0
 11 15  1  0  0  0  0
 11 16  1  0  0  0  0
 23 30  1  0  0  0  0
 23 31  1  0  0  0  0
 23 32  1  0  0  0  0
 24 33  1  0  0  0  0
 24 34  1  0  0  0  0
 24 35  1  0  0  0  0
 47 49  1  0  0  0  0
 47 50  1  0  0  0  0
 47 51  1  0  0  0  0
 21 27  1  0  0  0  0
 21 28  1  0  0  0  0
 37 42  1  0  0  0  0
  8 13  1  0  0  0  0
 18 26  1  0  0  0  0
 22 29  1  0  0  0  0
 46 48  1  0  0  0  0
  7 12  1  0  0  0  0
 36 41  1  0  0  0  0
 17 25  1  0  0  0  0
M  END
$$$$

  -OEChem-05262214473D

 51 50  0     1  0  0  0  0  0999 V2000
    3.4018   -1.2440   -3.0186 C   0  0  0  0  0  0  0  0  0  0  0  0
    3.2697   -2.0909   -2.1427 O   0  0  0  0  0  0  0  0  0  0  0  0
    4.6845   -1.1645   -3.7779 C   0  0  0  0  0  0  0  0  0  0  0  0
    5.4123   -0.4862   -3.3041 H   0  0  0  0  0  0  0  0  0  0  0  0
    5.1949   -2.1387   -3.8443 H   0  0  0  0  0  0  0  0  0  0  0  0
    4.5953   -0.8128   -4.8182 H   0  0  0  0  0  0  0  0  0  0  0  0
    2.4540   -0.3103   -3.4040 N   0  0  0  0  0  0  0  0  0  0  0  0
    1.1494   -0.2128   -2.8039 C   0  0  2  0  0  0  0  0  0  0  0  0
    1.3350    0.0367   -1.3130 C   0  0  0  0  0  0  0  0  0  0  0  0
    2.3625   -0.2586   -0.7063 O   0  0  0  0  0  0  0  0  0  0  0  0
    0.3331   -1.4728   -3.0467 C   0  0  0  0  0  0  0  0  0  0  0  0
    2.6924    0.3404   -4.1502 H   0  0  0  0  0  0  0  0  0  0  0  0
    0.6550    0.6514   -3.2607 H   0  0  0  0  0  0  0  0  0  0  0  0
    0.8129   -2.3494   -2.5963 H   0  0  0  0  0  0  0  0  0  0  0  0
   -0.6690   -1.3857   -2.6142 H   0  0  0  0  0  0  0  0  0  0  0  0
    0.2259   -1.6670   -4.1194 H   0  0  0  0  0  0  0  0  0  0  0  0
    0.2019    0.5893   -0.7269 N   0  0  0  0  0  0  0  0  0  0  0  0
    0.1242    0.9059    0.6756 C   0  0  2  0  0  0  0  0  0  0  0  0
   -0.5028    2.2920    0.7889 C   0  0  0  0  0  0  0  0  0  0  0  0
   -0.2160    3.0851    1.6833 O   0  0  0  0  0  0  0  0  0  0  0  0
    1.5011    0.8897    1.3516 C   0  0  0  0  0  0  0  0  0  0  0  0
    2.1759   -0.4958    1.4121 C   0  0  0  0  0  0  0  0  0  0  0  0
    3.5952   -0.3548    1.9693 C   0  0  0  0  0  0  0  0  0  0  0  0
    2.2249   -1.1802    0.0454 C   0  0  0  0  0  0  0  0  0  0  0  0
   -0.5975    0.8179   -1.3140 H   0  0  0  0  0  0  0  0  0  0  0  0
   -0.5521    0.1755    1.1310 H   0  0  0  0  0  0  0  0  0  0  0  0
    1.3977    1.2753    2.3757 H   0  0  0  0  0  0  0  0  0  0  0  0
    2.1687    1.5916    0.8344 H   0  0  0  0  0  0  0  0  0  0  0  0
    1.6140   -1.1401    2.0993 H   0  0  0  0  0  0  0  0  0  0  0  0
    4.2065    0.2819    1.3209 H   0  0  0  0  0  0  0  0  0  0  0  0
    4.0864   -1.3314    2.0347 H   0  0  0  0  0  0  0  0  0  0  0  0
    3.5875    0.0892    2.9706 H   0  0  0  0  0  0  0  0  0  0  0  0
    2.7775   -0.5757   -0.6818 H   0  0  0  0  0  0  0  0  0  0  0  0
    2.7180   -2.1558    0.1174 H   0  0  0  0  0  0  0  0  0  0  0  0
    1.2198   -1.3557   -0.3491 H   0  0  0  0  0  0  0  0  0  0  0  0
   -1.3796    2.5536   -0.2547 N   0  0  0  0  0  0  0  0  0  0  0  0
   -2.0878    3.8051   -0.4001 C   0  0  2  0  0  0  0  0  0  0  0  0
   -1.1376    4.9308   -0.0136 C   0  0  0  0  0  0  0  0  0  0  0  0
   -0.1574    4.7628    0.7090 O   0  0  0  0  0  0  0  0  0  0  0  0
   -3.3425    3.8339    0.4587 C   0  0  0  0  0  0  0  0  0  0  0  0
   -1.5336    1.8434   -0.9643 H   0  0  0  0  0  0  0  0  0  0  0  0
   -2.3527    3.8974   -1.4591 H   0  0  0  0  0  0  0  0  0  0  0  0
   -3.0970    3.7425    1.5231 H   0  0  0  0  0  0  0  0  0  0  0  0
   -3.8929    4.7711    0.3257 H   0  0  0  0  0  0  0  0  0  0  0  0
   -4.0112    3.0059    0.1996 H   0  0  0  0  0  0  0  0  0  0  0  0
   -1.5371    6.1532   -0.5352 N   0  0  0  0  0  0  0  0  0  0  0  0
   -0.8075    7.3772   -0.2999 C   0  0  0  0  0  0  0  0  0  0  0  0
   -2.3523    6.1961   -1.1397 H   0  0  0  0  0  0  0  0  0  0  0  0
   -1.2214    7.8875    0.5824 H   0  0  0  0  0  0  0  0  0  0  0  0
    0.2530    7.1439   -0.1244 H   0  0  0  0  0  0  0  0  0  0  0  0
   -0.8982    8.0328   -1.1785 H   0  0  0  0  0  0  0  0  0  0  0  0
  1  3  1  0  0  0  0
  1  7  1  0  0  0  0
  1  2  2  0  0  0  0
 37 38  1  0  0  0  0
 38 46  1  0  0  0  0
 38 39  2  0  0  0  0
  8  9  1  0  0  0  0
  9 17  1  0  0  0  0
  9 10  2  0  0  0  0
 18 19  1  0  0  0  0
 19 36  1  0  0  0  0
 19 20  2  0  0  0  0
 37 40  1  0  0  0  0
  8 11  1  0  0  0  0
 22 23  1  0  0  0  0
 22 24  1  0  0  0  0
 46 47  1  0  0  0  0
 18 21  1  0  0  0  0
 21 22  1  0  0  0  0
 36 37  1  0  0  0  0
  7  8  1  0  0  0  0
 17 18  1  0  0  0  0
  3  4  1  0  0  0  0
  3  5  1  0  0  0  0
  3  6  1  0  0  0  0
 40 43  1  0  0  0  0
 40 44  1  0  0  0  0
 40 45  1  0  0  0  0
 11 14  1  0  0  0  0
 11 15  1  0  0  0  0
 11 16  1  0  0  0  0
 23 30  1  0  0  0  0
 23 31  1  0  0  0  0
 23 32  1  0  0  0  0
 24 33  1  0  0  0  0
 24 34  1  0  0  0  0
 24 35  1  0  0  0  0
 47 49  1  0  0  0  0
 47 50  1  0  0  0  0
 47 51  1  0  0  0  0
 21 27  1  0  0  0  0
 21 28  1  0  0  0  0
 37 42  1  0  0  0  0
  8 13  1  0  0  0  0
 18 26  1  0  0  0  0
 22 29  1  0  0  0  0
 46 48  1  0  0  0  0
  7 12  1  0  0  0  0
 36 41  1  0  0  0  0
 17 25  1  0  0  0  0
M  END
$$$$

  -OEChem-05262214473D

 51 50  0     1  0  0  0  0  0999 V2000
    3.4018   -1.2440   -3.0186 C   0  0  0  0  0  0  0  0  0  0  0  0
    3.2697   -2.0909   -2.1427 O   0  0  0  0  0  0  0  0  0  0  0  0
    4.6845   -1.1645   -3.7779 C   0  0  0  0  0  0  0  0  0  0  0  0
    5.4123   -0.4862   -3.3041 H   0  0  0  0  0  0  0  0  0  0  0  0
    5.1949   -2.1387   -3.8443 H   0  0  0  0  0  0  0  0  0  0  0  0
    4.5953   -0.8128   -4.8182 H   0  0  0  0  0  0  0  0  0  0  0  0
    2.4540   -0.3103   -3.4040 N   0  0  0  0  0  0  0  0  0  0  0  0
    1.1494   -0.2128   -2.8039 C   0  0  2  0  0  0  0  0  0  0  0  0
    1.3350    0.0367   -1.3130 C   0  0  0  0  0  0  0  0  0  0  0  0
    2.3625   -0.2586   -0.7063 O   0  0  0  0  0  0  0  0  0  0  0  0
    0.3331   -1.4728   -3.0467 C   0  0  0  0  0  0  0  0  0  0  0  0
    2.6924    0.3404   -4.1502 H   0  0  0  0  0  0  0  0  0  0  0  0
    0.6550    0.6514   -3.2607 H   0  0  0  0  0  0  0  0  0  0  0  0
    0.8129   -2.3494   -2.5963 H   0  0  0  0  0  0  0  0  0  0  0  0
   -0.6690   -1.3857   -2.6142 H   0  0  0  0  0  0  0  0  0  0  0  0
    0.2259   -1.6670   -4.1194 H   0  0  0  0  0  0  0  0  0  0  0  0
    0.2019    0.5893   -0.7269 N   0  0  0  0  0  0  0  0  0  0  0  0
    0.1242    0.9059    0.6756 C   0  0  2  0  0  0  0  0  0  0  0  0
   -0.5028    2.2920    0.7889 C   0  0  0  0  0  0  0  0  0  0  0  0
   -0.0401    3.1794    1.5027 O   0  0  0  0  0  0  0  0  0  0  0  0
    1.5011    0.8897    1.3516 C   0  0  0  0  0  0  0  0  0  0  0  0
    2.1759   -0.4958    1.4121 C   0  0  0  0  0  0  0  0  0  0  0  0
    3.5952   -0.3548    1.9693 C   0  0  0  0  0  0  0  0  0  0  0  0
    2.2249   -1.1802    0.0454 C   0  0  0  0  0  0  0  0  0  0  0  0
   -0.5975    0.8179   -1.3140 H   0  0  0  0  0  0  0  0  0  0  0  0
   -0.5521    0.1755    1.1310 H   0  0  0  0  0  0  0  0  0  0  0  0
    1.3977    1.2753    2.3757 H   0  0  0  0  0  0  0  0  0  0  0  0
    2.1687    1.5916    0.8344 H   0  0  0  0  0  0  0  0  0  0  0  0
    1.6140   -1.1401    2.0993 H   0  0  0  0  0  0  0  0  0  0  0  0
    4.2065    0.2819    1.3209 H   0  0  0  0  0  0  0  0  0  0  0  0
    4.0864   -1.3314    2.0347 H   0  0  0  0  0  0  0  0  0  0  0  0
    3.5875    0.0892    2.9706 H   0  0  0  0  0  0  0  0  0  0  0  0
    2.7775   -0.5757   -0.6818 H   0  0  0  0  0  0  0  0  0  0  0  0
    2.7180   -2.1558    0.1174 H   0  0  0  0  0  0  0  0  0  0  0  0
    1.2198   -1.3557   -0.3491 H   0  0  0  0  0  0  0  0  0  0  0  0
   -1.6075    2.4329   -0.0395 N   0  0  0  0  0  0  0  0  0  0  0  0
   -2.3696    3.6565   -0.1429 C   0  0  2  0  0  0  0  0  0  0  0  0
   -1.3918    4.8237   -0.1111 C   0  0  0  0  0  0  0  0  0  0  0  0
   -0.2649    4.7417    0.3730 O   0  0  0  0  0  0  0  0  0  0  0  0
   -3.3886    3.7703    0.9802 C   0  0  0  0  0  0  0  0  0  0  0  0
   -1.9006    1.6488   -0.6147 H   0  0  0  0  0  0  0  0  0  0  0  0
   -2.8779    3.6315   -1.1130 H   0  0  0  0  0  0  0  0  0  0  0  0
   -2.8980    3.7968    1.9600 H   0  0  0  0  0  0  0  0  0  0  0  0
   -3.9846    4.6839    0.8841 H   0  0  0  0  0  0  0  0  0  0  0  0
   -4.0726    2.9148    0.9740 H   0  0  0  0  0  0  0  0  0  0  0  0
   -1.9413    5.9796   -0.6479 N   0  0  0  0  0  0  0  0  0  0  0  0
   -1.2163    7.2267   -0.7203 C   0  0  0  0  0  0  0  0  0  0  0  0
   -2.8763    5.9513   -1.0438 H   0  0  0  0  0  0  0  0  0  0  0  0
   -1.4282    7.8271    0.1767 H   0  0  0  0  0  0  0  0  0  0  0  0
   -0.1373    7.0207   -0.7770 H   0  0  0  0  0  0  0  0  0  0  0  0
   -1.5311    7.7822   -1.6160 H   0  0  0  0  0  0  0  0  0  0  0  0
  1  3  1  0  0  0  0
  1  7  1  0  0  0  0
  1  2  2  0  0  0  0
 37 38  1  0  0  0  0
 38 46  1  0  0  0  0
 38 39  2  0  0  0  0
  8  9  1  0  0  0  0
  9 17  1  0  0  0  0
  9 10  2  0  0  0  0
 18 19  1  0  0  0  0
 19 36  1  0  0  0  0
 19 20  2  0  0  0  0
 37 40  1  0  0  0  0
  8 11  1  0  0  0  0
 22 23  1  0  0  0  0
 22 24  1  0  0  0  0
 46 47  1  0  0  0  0
 18 21  1  0  0  0  0
 21 22  1  0  0  0  0
 36 37  1  0  0  0  0
  7  8  1  0  0  0  0
 17 18  1  0  0  0  0
  3  4  1  0  0  0  0
  3  5  1  0  0  0  0
  3  6  1  0  0  0  0
 40 43  1  0  0  0  0
 40 44  1  0  0  0  0
 40 45  1  0  0  0  0
 11 14  1  0  0  0  0
 11 15  1  0  0  0  0
 11 16  1  0  0  0  0
 23 30  1  0  0  0  0
 23 31  1  0  0  0  0
 23 32  1  0  0  0  0
 24 33  1  0  0  0  0
 24 34  1  0  0  0  0
 24 35  1  0  0  0  0
 47 49  1  0  0  0  0
 47 50  1  0  0  0  0
 47 51  1  0  0  0  0
 21 27  1  0  0  0  0
 21 28  1  0  0  0  0
 37 42  1  0  0  0  0
  8 13  1  0  0  0  0
 18 26  1  0  0  0  0
 22 29  1  0  0  0  0
 46 48  1  0  0  0  0
  7 12  1  0  0  0  0
 36 41  1  0  0  0  0
 17 25  1  0  0  0  0
M  END
$$$$

  -OEChem-05262214473D

 51 50  0     1  0  0  0  0  0999 V2000
    3.4018   -1.2440   -3.0186 C   0  0  0  0  0  0  0  0  0  0  0  0
    3.2697   -2.0909   -2.1427 O   0  0  0  0  0  0  0  0  0  0  0  0
    4.6845   -1.1645   -3.7779 C   0  0  0  0  0  0  0  0  0  0  0  0
    5.4123   -0.4862   -3.3041 H   0  0  0  0  0  0  0  0  0  0  0  0
    5.1949   -2.1387   -3.8443 H   0  0  0  0  0  0  0  0  0  0  0  0
    4.5953   -0.8128   -4.8182 H   0  0  0  0  0  0  0  0  0  0  0  0
    2.4540   -0.3103   -3.4040 N   0  0  0  0  0  0  0  0  0  0  0  0
    1.1494   -0.2128   -2.8039 C   0  0  2  0  0  0  0  0  0  0  0  0
    1.3350    0.0367   -1.3130 C   0  0  0  0  0  0  0  0  0  0  0  0
    2.3625   -0.2586   -0.7063 O   0  0  0  0  0  0  0  0  0  0  0  0
    0.3331   -1.4728   -3.0467 C   0  0  0  0  0  0  0  0  0  0  0  0
    2.6924    0.3404   -4.1502 H   0  0  0  0  0  0  0  0  0  0  0  0
    0.6550    0.6514   -3.2607 H   0  0  0  0  0  0  0  0  0  0  0  0
    0.8129   -2.3494   -2.5963 H   0  0  0  0  0  0  0  0  0  0  0  0
   -0.6690   -1.3857   -2.6142 H   0  0  0  0  0  0  0  0  0  0  0  0
    0.2259   -1.6670   -4.1194 H   0  0  0  0  0  0  0  0  0  0  0  0
    0.2019    0.5893   -0.7269 N   0  0  0  0  0  0  0  0  0  0  0  0
    0.1242    0.9059    0.6756 C   0  0  2  0  0  0  0  0  0  0  0  0
   -0.5028    2.2920    0.7889 C   0  0  0  0  0  0  0  0  0  0  0  0
    0.0855    3.2547    1.2768 O   0  0  0  0  0  0  0  0  0  0  0  0
    1.5011    0.8897    1.3516 C   0  0  0  0  0  0  0  0  0  0  0  0
    2.1759   -0.4958    1.4121 C   0  0  0  0  0  0  0  0  0  0  0  0
    3.5952   -0.3548    1.9693 C   0  0  0  0  0  0  0  0  0  0  0  0
    2.2249   -1.1802    0.0454 C   0  0  0  0  0  0  0  0  0  0  0  0
   -0.5975    0.8179   -1.3140 H   0  0  0  0  0  0  0  0  0  0  0  0
   -0.5521    0.1755    1.1310 H   0  0  0  0  0  0  0  0  0  0  0  0
    1.3977    1.2753    2.3757 H   0  0  0  0  0  0  0  0  0  0  0  0
    2.1687    1.5916    0.8344 H   0  0  0  0  0  0  0  0  0  0  0  0
    1.6140   -1.1401    2.0993 H   0  0  0  0  0  0  0  0  0  0  0  0
    4.2065    0.2819    1.3209 H   0  0  0  0  0  0  0  0  0  0  0  0
    4.0864   -1.3314    2.0347 H   0  0  0  0  0  0  0  0  0  0  0  0
    3.5875    0.0892    2.9706 H   0  0  0  0  0  0  0  0  0  0  0  0
    2.7775   -0.5757   -0.6818 H   0  0  0  0  0  0  0  0  0  0  0  0
    2.7180   -2.1558    0.1174 H   0  0  0  0  0  0  0  0  0  0  0  0
    1.2198   -1.3557   -0.3491 H   0  0  0  0  0  0  0  0  0  0  0  0
   -1.7747    2.3349    0.2348 N   0  0  0  0  0  0  0  0  0  0  0  0
   -2.5785    3.5350    0.1876 C   0  0  2  0  0  0  0  0  0  0  0  0
   -1.6583    4.7051   -0.1341 C   0  0  0  0  0  0  0  0  0  0  0  0
   -0.4473    4.6835    0.0759 O   0  0  0  0  0  0  0  0  0  0  0  0
   -3.3094    3.7635    1.5015 C   0  0  0  0  0  0  0  0  0  0  0  0
   -2.1691    1.4910   -0.1701 H   0  0  0  0  0  0  0  0  0  0  0  0
   -3.2987    3.4014   -0.6270 H   0  0  0  0  0  0  0  0  0  0  0  0
   -2.6041    3.8995    2.3295 H   0  0  0  0  0  0  0  0  0  0  0  0
   -3.9401    4.6574    1.4544 H   0  0  0  0  0  0  0  0  0  0  0  0
   -3.9481    2.9080    1.7461 H   0  0  0  0  0  0  0  0  0  0  0  0
   -2.3548    5.7922   -0.6433 N   0  0  0  0  0  0  0  0  0  0  0  0
   -1.7072    7.0287   -1.0142 C   0  0  0  0  0  0  0  0  0  0  0  0
   -3.3551    5.7149   -0.8019 H   0  0  0  0  0  0  0  0  0  0  0  0
   -1.7222    7.7217   -0.1600 H   0  0  0  0  0  0  0  0  0  0  0  0
   -0.6654    6.8248   -1.3024 H   0  0  0  0  0  0  0  0  0  0  0  0
   -2.2405    7.4816   -1.8630 H   0  0  0  0  0  0  0  0  0  0  0  0
  1  3  1  0  0  0  0
  1  7  1  0  0  0  0
  1  2  2  0  0  0  0
 37 38  1  0  0  0  0
 38 46  1  0  0  0  0
 38 39  2  0  0  0  0
  8  9  1  0  0  0  0
  9 17  1  0  0  0  0
  9 10  2  0  0  0  0
 18 19  1  0  0  0  0
 19 36  1  0  0  0  0
 19 20  2  0  0  0  0
 37 40  1  0  0  0  0
  8 11  1  0  0  0  0
 22 23  1  0  0  0  0
 22 24  1  0  0  0  0
 46 47  1  0  0  0  0
 18 21  1  0  0  0  0
 21 22  1  0  0  0  0
 36 37  1  0  0  0  0
  7  8  1  0  0  0  0
 17 18  1  0  0  0  0
  3  4  1  0  0  0  0
  3  5  1  0  0  0  0
  3  6  1  0  0  0  0
 40 43  1  0  0  0  0
 40 44  1  0  0  0  0
 40 45  1  0  0  0  0
 11 14  1  0  0  0  0
 11 15  1  0  0  0  0
 11 16  1  0  0  0  0
 23 30  1  0  0  0  0
 23 31  1  0  0  0  0
 23 32  1  0  0  0  0
 24 33  1  0  0  0  0
 24 34  1  0  0  0  0
 24 35  1  0  0  0  0
 47 49  1  0  0  0  0
 47 50  1  0  0  0  0
 47 51  1  0  0  0  0
 21 27  1  0  0  0  0
 21 28  1  0  0  0  0
 37 42  1  0  0  0  0
  8 13  1  0  0  0  0
 18 26  1  0  0  0  0
 22 29  1  0  0  0  0
 46 48  1  0  0  0  0
  7 12  1  0  0  0  0
 36 41  1  0  0  0  0
 17 25  1  0  0  0  0
M  END
$$$$

  -OEChem-05262214473D

 51 50  0     1  0  0  0  0  0999 V2000
    3.4018   -1.2440   -3.0186 C   0  0  0  0  0  0  0  0  0  0  0  0
    3.2697   -2.0909   -2.1427 O   0  0  0  0  0  0  0  0  0  0  0  0
    4.6845   -1.1645   -3.7779 C   0  0  0  0  0  0  0  0  0  0  0  0
    5.4123   -0.4862   -3.3041 H   0  0  0  0  0  0  0  0  0  0  0  0
    5.1949   -2.1387   -3.8443 H   0  0  0  0  0  0  0  0  0  0  0  0
    4.5953   -0.8128   -4.8182 H   0  0  0  0  0  0  0  0  0  0  0  0
    2.4540   -0.3103   -3.4040 N   0  0  0  0  0  0  0  0  0  0  0  0
    1.1494   -0.2128   -2.8039 C   0  0  2  0  0  0  0  0  0  0  0  0
    1.3350    0.0367   -1.3130 C   0  0  0  0  0  0  0  0  0  0  0  0
    2.3625   -0.2586   -0.7063 O   0  0  0  0  0  0  0  0  0  0  0  0
    0.3331   -1.4728   -3.0467 C   0  0  0  0  0  0  0  0  0  0  0  0
    2.6924    0.3404   -4.1502 H   0  0  0  0  0  0  0  0  0  0  0  0
    0.6550    0.6514   -3.2607 H   0  0  0  0  0  0  0  0  0  0  0  0
    0.8129   -2.3494   -2.5963 H   0  0  0  0  0  0  0  0  0  0  0  0
   -0.6690   -1.3857   -2.6142 H   0  0  0  0  0  0  0  0  0  0  0  0
    0.2259   -1.6670   -4.1194 H   0  0  0  0  0  0  0  0  0  0  0  0
    0.2019    0.5893   -0.7269 N   0  0  0  0  0  0  0  0  0  0  0  0
    0.1242    0.9059    0.6756 C   0  0  2  0  0  0  0  0  0  0  0  0
   -0.5028    2.2920    0.7889 C   0  0  0  0  0  0  0  0  0  0  0  0
    0.1523    3.3059    1.0211 O   0  0  0  0  0  0  0  0  0  0  0  0
    1.5011    0.8897    1.3516 C   0  0  0  0  0  0  0  0  0  0  0  0
    2.1759   -0.4958    1.4121 C   0  0  0  0  0  0  0  0  0  0  0  0
    3.5952   -0.3548    1.9693 C   0  0  0  0  0  0  0  0  0  0  0  0
    2.2249   -1.1802    0.0454 C   0  0  0  0  0  0  0  0  0  0  0  0
   -0.5975    0.8179   -1.3140 H   0  0  0  0  0  0  0  0  0  0  0  0
   -0.5521    0.1755    1.1310 H   0  0  0  0  0  0  0  0  0  0  0  0
    1.3977    1.2753    2.3757 H   0  0  0  0  0  0  0  0  0  0  0  0
    2.1687    1.5916    0.8344 H   0  0  0  0  0  0  0  0  0  0  0  0
    1.6140   -1.1401    2.0993 H   0  0  0  0  0  0  0  0  0  0  0  0
    4.2065    0.2819    1.3209 H   0  0  0  0  0  0  0  0  0  0  0  0
    4.0864   -1.3314    2.0347 H   0  0  0  0  0  0  0  0  0  0  0  0
    3.5875    0.0892    2.9706 H   0  0  0  0  0  0  0  0  0  0  0  0
    2.7775   -0.5757   -0.6818 H   0  0  0  0  0  0  0  0  0  0  0  0
    2.7180   -2.1558    0.1174 H   0  0  0  0  0  0  0  0  0  0  0  0
    1.2198   -1.3557   -0.3491 H   0  0  0  0  0  0  0  0  0  0  0  0
   -1.8698    2.2661    0.5496 N   0  0  0  0  0  0  0  0  0  0  0  0
   -2.7003    3.4487    0.5689 C   0  0  2  0  0  0  0  0  0  0  0  0
   -1.9188    4.5829   -0.0811 C   0  0  0  0  0  0  0  0  0  0  0  0
   -0.6922    4.5921   -0.1619 O   0  0  0  0  0  0  0  0  0  0  0  0
   -3.1101    3.8140    1.9871 C   0  0  0  0  0  0  0  0  0  0  0  0
   -2.3208    1.3807    0.3393 H   0  0  0  0  0  0  0  0  0  0  0  0
   -3.5865    3.2227   -0.0341 H   0  0  0  0  0  0  0  0  0  0  0  0
   -2.2353    4.0437    2.6063 H   0  0  0  0  0  0  0  0  0  0  0  0
   -3.7626    4.6933    1.9975 H   0  0  0  0  0  0  0  0  0  0  0  0
   -3.6461    2.9859    2.4633 H   0  0  0  0  0  0  0  0  0  0  0  0
   -2.7495    5.6037   -0.5216 N   0  0  0  0  0  0  0  0  0  0  0  0
   -2.2466    6.7968   -1.1616 C   0  0  0  0  0  0  0  0  0  0  0  0
   -3.7562    5.5031   -0.4306 H   0  0  0  0  0  0  0  0  0  0  0  0
   -2.0834    7.5784   -0.4049 H   0  0  0  0  0  0  0  0  0  0  0  0
   -1.2952    6.5695   -1.6649 H   0  0  0  0  0  0  0  0  0  0  0  0
   -2.9780    7.1512   -1.9028 H   0  0  0  0  0  0  0  0  0  0  0  0
  1  3  1  0  0  0  0
  1  7  1  0  0  0  0
  1  2  2  0  0  0  0
 37 38  1  0  0  0  0
 38 46  1  0  0  0  0
 38 39  2  0  0  0  0
  8  9  1  0  0  0  0
  9 17  1  0  0  0  0
  9 10  2  0  0  0  0
 18 19  1  0  0  0  0
 19 36  1  0  0  0  0
 19 20  2  0  0  0  0
 37 40  1  0  0  0  0
  8 11  1  0  0  0  0
 22 23  1  0  0  0  0
 22 24  1  0  0  0  0
 46 47  1  0  0  0  0
 18 21  1  0  0  0  0
 21 22  1  0  0  0  0
 36 37  1  0  0  0  0
  7  8  1  0  0  0  0
 17 18  1  0  0  0  0
  3  4  1  0  0  0  0
  3  5  1  0  0  0  0
  3  6  1  0  0  0  0
 40 43  1  0  0  0  0
 40 44  1  0  0  0  0
 40 45  1  0  0  0  0
 11 14  1  0  0  0  0
 11 15  1  0  0  0  0
 11 16  1  0  0  0  0
 23 30  1  0  0  0  0
 23 31  1  0  0  0  0
 23 32  1  0  0  0  0
 24 33  1  0  0  0  0
 24 34  1  0  0  0  0
 24 35  1  0  0  0  0
 47 49  1  0  0  0  0
 47 50  1  0  0  0  0
 47 51  1  0  0  0  0
 21 27  1  0  0  0  0
 21 28  1  0  0  0  0
 37 42  1  0  0  0  0
  8 13  1  0  0  0  0
 18 26  1  0  0  0  0
 22 29  1  0  0  0  0
 46 48  1  0  0  0  0
  7 12  1  0  0  0  0
 36 41  1  0  0  0  0
 17 25  1  0  0  0  0
M  END
$$$$

  -OEChem-05262214473D

 51 50  0     1  0  0  0  0  0999 V2000
    3.4018   -1.2440   -3.0186 C   0  0  0  0  0  0  0  0  0  0  0  0
    3.2697   -2.0909   -2.1427 O   0  0  0  0  0  0  0  0  0  0  0  0
    4.6845   -1.1645   -3.7779 C   0  0  0  0  0  0  0  0  0  0  0  0
    5.4123   -0.4862   -3.3041 H   0  0  0  0  0  0  0  0  0  0  0  0
    5.1949   -2.1387   -3.8443 H   0  0  0  0  0  0  0  0  0  0  0  0
    4.5953   -0.8128   -4.8182 H   0  0  0  0  0  0  0  0  0  0  0  0
    2.4540   -0.3103   -3.4040 N   0  0  0  0  0  0  0  0  0  0  0  0
    1.1494   -0.2128   -2.8039 C   0  0  2  0  0  0  0  0  0  0  0  0
    1.3350    0.0367   -1.3130 C   0  0  0  0  0  0  0  0  0  0  0  0
    2.3625   -0.2586   -0.7063 O   0  0  0  0  0  0  0  0  0  0  0  0
    0.3331   -1.4728   -3.0467 C   0  0  0  0  0  0  0  0  0  0  0  0
    2.6924    0.3404   -4.1502 H   0  0  0  0  0  0  0  0  0  0  0  0
    0.6550    0.6514   -3.2607 H   0  0  0  0  0  0  0  0  0  0  0  0
    0.8129   -2.3494   -2.5963 H   0  0  0  0  0  0  0  0  0  0  0  0
   -0.6690   -1.3857   -2.6142 H   0  0  0  0  0  0  0  0  0  0  0  0
    0.2259   -1.6670   -4.1194 H   0  0  0  0  0  0  0  0  0  0  0  0
    0.2019    0.5893   -0.7269 N   0  0  0  0  0  0  0  0  0  0  0  0
    0.1242    0.9059    0.6756 C   0  0  2  0  0  0  0  0  0  0  0  0
   -0.5028    2.2920    0.7889 C   0  0  0  0  0  0  0  0  0  0  0  0
    0.1557    3.3293    0.7530 O   0  0  0  0  0  0  0  0  0  0  0  0
    1.5011    0.8897    1.3516 C   0  0  0  0  0  0  0  0  0  0  0  0
    2.1759   -0.4958    1.4121 C   0  0  0  0  0  0  0  0  0  0  0  0
    3.5952   -0.3548    1.9693 C   0  0  0  0  0  0  0  0  0  0  0  0
    2.2249   -1.1802    0.0454 C   0  0  0  0  0  0  0  0  0  0  0  0
   -0.5975    0.8179   -1.3140 H   0  0  0  0  0  0  0  0  0  0  0  0
   -0.5521    0.1755    1.1310 H   0  0  0  0  0  0  0  0  0  0  0  0
    1.3977    1.2753    2.3757 H   0  0  0  0  0  0  0  0  0  0  0  0
    2.1687    1.5916    0.8344 H   0  0  0  0  0  0  0  0  0  0  0  0
    1.6140   -1.1401    2.0993 H   0  0  0  0  0  0  0  0  0  0  0  0
    4.2065    0.2819    1.3209 H   0  0  0  0  0  0  0  0  0  0  0  0
    4.0864   -1.3314    2.0347 H   0  0  0  0  0  0  0  0  0  0  0  0
    3.5875    0.0892    2.9706 H   0  0  0  0  0  0  0  0  0  0  0  0
    2.7775   -0.5757   -0.6818 H   0  0  0  0  0  0  0  0  0  0  0  0
    2.7180   -2.1558    0.1174 H   0  0  0  0  0  0  0  0  0  0  0  0
    1.2198   -1.3557   -0.3491 H   0  0  0  0  0  0  0  0  0  0  0  0
   -1.8863    2.2314    0.8832 N   0  0  0  0  0  0  0  0  0  0  0  0
   -2.7265    3.4036    0.9750 C   0  0  2  0  0  0  0  0  0  0  0  0
   -2.1556    4.4655    0.0444 C   0  0  0  0  0  0  0  0  0  0  0  0
   -0.9830    4.4739   -0.3244 O   0  0  0  0  0  0  0  0  0  0  0  0
   -2.8044    3.9182    2.4039 C   0  0  0  0  0  0  0  0  0  0  0  0
   -2.3455    1.3254    0.8788 H   0  0  0  0  0  0  0  0  0  0  0  0
   -3.7216    3.1077    0.6253 H   0  0  0  0  0  0  0  0  0  0  0  0
   -1.8168    4.2195    2.7716 H   0  0  0  0  0  0  0  0  0  0  0  0
   -3.4640    4.7892    2.4766 H   0  0  0  0  0  0  0  0  0  0  0  0
   -3.1873    3.1433    3.0768 H   0  0  0  0  0  0  0  0  0  0  0  0
   -3.0985    5.4270   -0.2912 N   0  0  0  0  0  0  0  0  0  0  0  0
   -2.7978    6.5467   -1.1524 C   0  0  0  0  0  0  0  0  0  0  0  0
   -4.0522    5.3303    0.0450 H   0  0  0  0  0  0  0  0  0  0  0  0
   -2.4871    7.4069   -0.5413 H   0  0  0  0  0  0  0  0  0  0  0  0
   -1.9840    6.2722   -1.8397 H   0  0  0  0  0  0  0  0  0  0  0  0
   -3.6934    6.8137   -1.7327 H   0  0  0  0  0  0  0  0  0  0  0  0
  1  3  1  0  0  0  0
  1  7  1  0  0  0  0
  1  2  2  0  0  0  0
 37 38  1  0  0  0  0
 38 46  1  0  0  0  0
 38 39  2  0  0  0  0
  8  9  1  0  0  0  0
  9 17  1  0  0  0  0
  9 10  2  0  0  0  0
 18 19  1  0  0  0  0
 19 36  1  0  0  0  0
 19 20  2  0  0  0  0
 37 40  1  0  0  0  0
  8 11  1  0  0  0  0
 22 23  1  0  0  0  0
 22 24  1  0  0  0  0
 46 47  1  0  0  0  0
 18 21  1  0  0  0  0
 21 22  1  0  0  0  0
 36 37  1  0  0  0  0
  7  8  1  0  0  0  0
 17 18  1  0  0  0  0
  3  4  1  0  0  0  0
  3  5  1  0  0  0  0
  3  6  1  0  0  0  0
 40 43  1  0  0  0  0
 40 44  1  0  0  0  0
 40 45  1  0  0  0  0
 11 14  1  0  0  0  0
 11 15  1  0  0  0  0
 11 16  1  0  0  0  0
 23 30  1  0  0  0  0
 23 31  1  0  0  0  0
 23 32  1  0  0  0  0
 24 33  1  0  0  0  0
 24 34  1  0  0  0  0
 24 35  1  0  0  0  0
 47 49  1  0  0  0  0
 47 50  1  0  0  0  0
 47 51  1  0  0  0  0
 21 27  1  0  0  0  0
 21 28  1  0  0  0  0
 37 42  1  0  0  0  0
  8 13  1  0  0  0  0
 18 26  1  0  0  0  0
 22 29  1  0  0  0  0
 46 48  1  0  0  0  0
  7 12  1  0  0  0  0
 36 41  1  0  0  0  0
 17 25  1  0  0  0  0
M  END
$$$$

  -OEChem-05262214473D

 51 50  0     1  0  0  0  0  0999 V2000
    3.4018   -1.2440   -3.0186 C   0  0  0  0  0  0  0  0  0  0  0  0
    3.2697   -2.0909   -2.1427 O   0  0  0  0  0  0  0  0  0  0  0  0
    4.6845   -1.1645   -3.7779 C   0  0  0  0  0  0  0  0  0  0  0  0
    5.4123   -0.4862   -3.3041 H   0  0  0  0  0  0  0  0  0  0  0  0
    5.1949   -2.1387   -3.8443 H   0  0  0  0  0  0  0  0  0  0  0  0
    4.5953   -0.8128   -4.8182 H   0  0  0  0  0  0  0  0  0  0  0  0
    2.4540   -0.3103   -3.4040 N   0  0  0  0  0  0  0  0  0  0  0  0
    1.1494   -0.2128   -2.8039 C   0  0  2  0  0  0  0  0  0  0  0  0
    1.3350    0.0367   -1.3130 C   0  0  0  0  0  0  0  0  0  0  0  0
    2.3625   -0.2586   -0.7063 O   0  0  0  0  0  0  0  0  0  0  0  0
    0.3331   -1.4728   -3.0467 C   0  0  0  0  0  0  0  0  0  0  0  0
    2.6924    0.3404   -4.1502 H   0  0  0  0  0  0  0  0  0  0  0  0
    0.6550    0.6514   -3.2607 H   0  0  0  0  0  0  0  0  0  0  0  0
    0.8129   -2.3494   -2.5963 H   0  0  0  0  0  0  0  0  0  0  0  0
   -0.6690   -1.3857   -2.6142 H   0  0  0  0  0  0  0  0  0  0  0  0
    0.2259   -1.6670   -4.1194 H   0  0  0  0  0  0  0  0  0  0  0  0
    0.2019    0.5893   -0.7269 N   0  0  0  0  0  0  0  0  0  0  0  0
    0.1242    0.9059    0.6756 C   0  0  2  0  0  0  0  0  0  0  0  0
   -0.5028    2.2920    0.7889 C   0  0  0  0  0  0  0  0  0  0  0  0
    0.0955    3.3236    0.4907 O   0  0  0  0  0  0  0  0  0  0  0  0
    1.5011    0.8897    1.3516 C   0  0  0  0  0  0  0  0  0  0  0  0
    2.1759   -0.4958    1.4121 C   0  0  0  0  0  0  0  0  0  0  0  0
    3.5952   -0.3548    1.9693 C   0  0  0  0  0  0  0  0  0  0  0  0
    2.2249   -1.1802    0.0454 C   0  0  0  0  0  0  0  0  0  0  0  0
   -0.5975    0.8179   -1.3140 H   0  0  0  0  0  0  0  0  0  0  0  0
   -0.5521    0.1755    1.1310 H   0  0  0  0  0  0  0  0  0  0  0  0
    1.3977    1.2753    2.3757 H   0  0  0  0  0  0  0  0  0  0  0  0
    2.1687    1.5916    0.8344 H   0  0  0  0  0  0  0  0  0  0  0  0
    1.6140   -1.1401    2.0993 H   0  0  0  0  0  0  0  0  0  0  0  0
    4.2065    0.2819    1.3209 H   0  0  0  0  0  0  0  0  0  0  0  0
    4.0864   -1.3314    2.0347 H   0  0  0  0  0  0  0  0  0  0  0  0
    3.5875    0.0892    2.9706 H   0  0  0  0  0  0  0  0  0  0  0  0
    2.7775   -0.5757   -0.6818 H   0  0  0  0  0  0  0  0  0  0  0  0
    2.7180   -2.1558    0.1174 H   0  0  0  0  0  0  0  0  0  0  0  0
    1.2198   -1.3557   -0.3491 H   0  0  0  0  0  0  0  0  0  0  0  0
   -1.8231    2.2330    1.2131 N   0  0  0  0  0  0  0  0  0  0  0  0
   -2.6555    3.4028    1.3782 C   0  0  2  0  0  0  0  0  0  0  0  0
   -2.3525    4.3609    0.2338 C   0  0  0  0  0  0  0  0  0  0  0  0
   -1.2998    4.3368   -0.4003 O   0  0  0  0  0  0  0  0  0  0  0  0
   -2.4131    4.0690    2.7236 C   0  0  0  0  0  0  0  0  0  0  0  0
   -2.2413    1.3289    1.4116 H   0  0  0  0  0  0  0  0  0  0  0  0
   -3.6948    3.0641    1.3063 H   0  0  0  0  0  0  0  0  0  0  0  0
   -1.3770    4.4150    2.8141 H   0  0  0  0  0  0  0  0  0  0  0  0
   -3.0649    4.9385    2.8590 H   0  0  0  0  0  0  0  0  0  0  0  0
   -2.6028    3.3694    3.5448 H   0  0  0  0  0  0  0  0  0  0  0  0
   -3.3781    5.2740    0.0323 N   0  0  0  0  0  0  0  0  0  0  0  0
   -3.3233    6.2955   -0.9874 C   0  0  0  0  0  0  0  0  0  0  0  0
   -4.2229    5.2083    0.5923 H   0  0  0  0  0  0  0  0  0  0  0  0
   -2.9058    7.2190   -0.5599 H   0  0  0  0  0  0  0  0  0  0  0  0
   -2.6847    5.9533   -1.8151 H   0  0  0  0  0  0  0  0  0  0  0  0
   -4.3379    6.4920   -1.3642 H   0  0  0  0  0  0  0  0  0  0  0  0
  1  3  1  0  0  0  0
  1  7  1  0  0  0  0
  1  2  2  0  0  0  0
 37 38  1  0  0  0  0
 38 46  1  0  0  0  0
 38 39  2  0  0  0  0
  8  9  1  0  0  0  0
  9 17  1  0  0  0  0
  9 10  2  0  0  0  0
 18 19  1  0  0  0  0
 19 36  1  0  0  0  0
 19 20  2  0  0  0  0
 37 40  1  0  0  0  0
  8 11  1  0  0  0  0
 22 23  1  0  0  0  0
 22 24  1  0  0  0  0
 46 47  1  0  0  0  0
 18 21  1  0  0  0  0
 21 22  1  0  0  0  0
 36 37  1  0  0  0  0
  7  8  1  0  0  0  0
 17 18  1  0  0  0  0
  3  4  1  0  0  0  0
  3  5  1  0  0  0  0
  3  6  1  0  0  0  0
 40 43  1  0  0  0  0
 40 44  1  0  0  0  0
 40 45  1  0  0  0  0
 11 14  1  0  0  0  0
 11 15  1  0  0  0  0
 11 16  1  0  0  0  0
 23 30  1  0  0  0  0
 23 31  1  0  0  0  0
 23 32  1  0  0  0  0
 24 33  1  0  0  0  0
 24 34  1  0  0  0  0
 24 35  1  0  0  0  0
 47 49  1  0  0  0  0
 47 50  1  0  0  0  0
 47 51  1  0  0  0  0
 21 27  1  0  0  0  0
 21 28  1  0  0  0  0
 37 42  1  0  0  0  0
  8 13  1  0  0  0  0
 18 26  1  0  0  0  0
 22 29  1  0  0  0  0
 46 48  1  0  0  0  0
  7 12  1  0  0  0  0
 36 41  1  0  0  0  0
 17 25  1  0  0  0  0
M  END
$$$$

  -OEChem-05262214473D

 51 50  0     1  0  0  0  0  0999 V2000
    3.4018   -1.2440   -3.0186 C   0  0  0  0  0  0  0  0  0  0  0  0
    3.2697   -2.0909   -2.1427 O   0  0  0  0  0  0  0  0  0  0  0  0
    4.6845   -1.1645   -3.7779 C   0  0  0  0  0  0  0  0  0  0  0  0
    5.4123   -0.4862   -3.3041 H   0  0  0  0  0  0  0  0  0  0  0  0
    5.1949   -2.1387   -3.8443 H   0  0  0  0  0  0  0  0  0  0  0  0
    4.5953   -0.8128   -4.8182 H   0  0  0  0  0  0  0  0  0  0  0  0
    2.4540   -0.3103   -3.4040 N   0  0  0  0  0  0  0  0  0  0  0  0
    1.1494   -0.2128   -2.8039 C   0  0  2  0  0  0  0  0  0  0  0  0
    1.3350    0.0367   -1.3130 C   0  0  0  0  0  0  0  0  0  0  0  0
    2.3625   -0.2586   -0.7063 O   0  0  0  0  0  0  0  0  0  0  0  0
    0.3331   -1.4728   -3.0467 C   0  0  0  0  0  0  0  0  0  0  0  0
    2.6924    0.3404   -4.1502 H   0  0  0  0  0  0  0  0  0  0  0  0
    0.6550    0.6514   -3.2607 H   0  0  0  0  0  0  0  0  0  0  0  0
    0.8129   -2.3494   -2.5963 H   0  0  0  0  0  0  0  0  0  0  0  0
   -0.6690   -1.3857   -2.6142 H   0  0  0  0  0  0  0  0  0  0  0  0
    0.2259   -1.6670   -4.1194 H   0  0  0  0  0  0  0  0  0  0  0  0
    0.2019    0.5893   -0.7269 N   0  0  0  0  0  0  0  0  0  0  0  0
    0.1242    0.9059    0.6756 C   0  0  2  0  0  0  0  0  0  0  0  0
   -0.5028    2.2920    0.7889 C   0  0  0  0  0  0  0  0  0  0  0  0
   -0.0242    3.2889    0.2521 O   0  0  0  0  0  0  0  0  0  0  0  0
    1.5011    0.8897    1.3516 C   0  0  0  0  0  0  0  0  0  0  0  0
    2.1759   -0.4958    1.4121 C   0  0  0  0  0  0  0  0  0  0  0  0
    3.5952   -0.3548    1.9693 C   0  0  0  0  0  0  0  0  0  0  0  0
    2.2249   -1.1802    0.0454 C   0  0  0  0  0  0  0  0  0  0  0  0
   -0.5975    0.8179   -1.3140 H   0  0  0  0  0  0  0  0  0  0  0  0
   -0.5521    0.1755    1.1310 H   0  0  0  0  0  0  0  0  0  0  0  0
    1.3977    1.2753    2.3757 H   0  0  0  0  0  0  0  0  0  0  0  0
    2.1687    1.5916    0.8344 H   0  0  0  0  0  0  0  0  0  0  0  0
    1.6140   -1.1401    2.0993 H   0  0  0  0  0  0  0  0  0  0  0  0
    4.2065    0.2819    1.3209 H   0  0  0  0  0  0  0  0  0  0  0  0
    4.0864   -1.3314    2.0347 H   0  0  0  0  0  0  0  0  0  0  0  0
    3.5875    0.0892    2.9706 H   0  0  0  0  0  0  0  0  0  0  0  0
    2.7775   -0.5757   -0.6818 H   0  0  0  0  0  0  0  0  0  0  0  0
    2.7180   -2.1558    0.1174 H   0  0  0  0  0  0  0  0  0  0  0  0
    1.2198   -1.3557   -0.3491 H   0  0  0  0  0  0  0  0  0  0  0  0
   -1.6845    2.2708    1.5167 N   0  0  0  0  0  0  0  0  0  0  0  0
   -2.4921    3.4462    1.7511 C   0  0  2  0  0  0  0  0  0  0  0  0
   -2.4962    4.2763    0.4742 C   0  0  0  0  0  0  0  0  0  0  0  0
   -1.6210    4.1902   -0.3846 O   0  0  0  0  0  0  0  0  0  0  0  0
   -1.9628    4.2563    2.9243 C   0  0  0  0  0  0  0  0  0  0  0  0
   -2.0156    1.3910    1.9014 H   0  0  0  0  0  0  0  0  0  0  0  0
   -3.5080    3.0950    1.9623 H   0  0  0  0  0  0  0  0  0  0  0  0
   -0.9459    4.6168    2.7310 H   0  0  0  0  0  0  0  0  0  0  0  0
   -2.5922    5.1310    3.1186 H   0  0  0  0  0  0  0  0  0  0  0  0
   -1.9326    3.6488    3.8353 H   0  0  0  0  0  0  0  0  0  0  0  0
   -3.5691    5.1554    0.4267 N   0  0  0  0  0  0  0  0  0  0  0  0
   -3.7873    6.0603   -0.6777 C   0  0  0  0  0  0  0  0  0  0  0  0
   -4.2568    5.1454    1.1742 H   0  0  0  0  0  0  0  0  0  0  0  0
   -3.3110    7.0275   -0.4594 H   0  0  0  0  0  0  0  0  0  0  0  0
   -3.3495    5.6343   -1.5925 H   0  0  0  0  0  0  0  0  0  0  0  0
   -4.8676    6.2081   -0.8225 H   0  0  0  0  0  0  0  0  0  0  0  0
  1  3  1  0  0  0  0
  1  7  1  0  0  0  0
  1  2  2  0  0  0  0
 37 38  1  0  0  0  0
 38 46  1  0  0  0  0
 38 39  2  0  0  0  0
  8  9  1  0  0  0  0
  9 17  1  0  0  0  0
  9 10  2  0  0  0  0
 18 19  1  0  0  0  0
 19 36  1  0  0  0  0
 19 20  2  0  0  0  0
 37 40  1  0  0  0  0
  8 11  1  0  0  0  0
 22 23  1  0  0  0  0
 22 24  1  0  0  0  0
 46 47  1  0  0  0  0
 18 21  1  0  0  0  0
 21 22  1  0  0  0  0
 36 37  1  0  0  0  0
  7  8  1  0  0  0  0
 17 18  1  0  0  0  0
  3  4  1  0  0  0  0
  3  5  1  0  0  0  0
  3  6  1  0  0  0  0
 40 43  1  0  0  0  0
 40 44  1  0  0  0  0
 40 45  1  0  0  0  0
 11 14  1  0  0  0  0
 11 15  1  0  0  0  0
 11 16  1  0  0  0  0
 23 30  1  0  0  0  0
 23 31  1  0  0  0  0
 23 32  1  0  0  0  0
 24 33  1  0  0  0  0
 24 34  1  0  0  0  0
 24 35  1  0  0  0  0
 47 49  1  0  0  0  0
 47 50  1  0  0  0  0
 47 51  1  0  0  0  0
 21 27  1  0  0  0  0
 21 28  1  0  0  0  0
 37 42  1  0  0  0  0
  8 13  1  0  0  0  0
 18 26  1  0  0  0  0
 22 29  1  0  0  0  0
 46 48  1  0  0  0  0
  7 12  1  0  0  0  0
 36 41  1  0  0  0  0
 17 25  1  0  0  0  0
M  END
$$$$

  -OEChem-05262214473D

 51 50  0     1  0  0  0  0  0999 V2000
    3.4018   -1.2440   -3.0186 C   0  0  0  0  0  0  0  0  0  0  0  0
    3.2697   -2.0909   -2.1427 O   0  0  0  0  0  0  0  0  0  0  0  0
    4.6845   -1.1645   -3.7779 C   0  0  0  0  0  0  0  0  0  0  0  0
    5.4123   -0.4862   -3.3041 H   0  0  0  0  0  0  0  0  0  0  0  0
    5.1949   -2.1387   -3.8443 H   0  0  0  0  0  0  0  0  0  0  0  0
    4.5953   -0.8128   -4.8182 H   0  0  0  0  0  0  0  0  0  0  0  0
    2.4540   -0.3103   -3.4040 N   0  0  0  0  0  0  0  0  0  0  0  0
    1.1494   -0.2128   -2.8039 C   0  0  2  0  0  0  0  0  0  0  0  0
    1.3350    0.0367   -1.3130 C   0  0  0  0  0  0  0  0  0  0  0  0
    2.3625   -0.2586   -0.7063 O   0  0  0  0  0  0  0  0  0  0  0  0
    0.3331   -1.4728   -3.0467 C   0  0  0  0  0  0  0  0  0  0  0  0
    2.6924    0.3404   -4.1502 H   0  0  0  0  0  0  0  0  0  0  0  0
    0.6550    0.6514   -3.2607 H   0  0  0  0  0  0  0  0  0  0  0  0
    0.8129   -2.3494   -2.5963 H   0  0  0  0  0  0  0  0  0  0  0  0
   -0.6690   -1.3857   -2.6142 H   0  0  0  0  0  0  0  0  0  0  0  0
    0.2259   -1.6670   -4.1194 H   0  0  0  0  0  0  0  0  0  0  0  0
    0.2019    0.5893   -0.7269 N   0  0  0  0  0  0  0  0  0  0  0  0
    0.1242    0.9059    0.6756 C   0  0  2  0  0  0  0  0  0  0  0  0
   -0.5028    2.2920    0.7889 C   0  0  0  0  0  0  0  0  0  0  0  0
   -0.1953    3.2278    0.0535 O   0  0  0  0  0  0  0  0  0  0  0  0
    1.5011    0.8897    1.3516 C   0  0  0  0  0  0  0  0  0  0  0  0
    2.1759   -0.4958    1.4121 C   0  0  0  0  0  0  0  0  0  0  0  0
    3.5952   -0.3548    1.9693 C   0  0  0  0  0  0  0  0  0  0  0  0
    2.2249   -1.1802    0.0454 C   0  0  0  0  0  0  0  0  0  0  0  0
   -0.5975    0.8179   -1.3140 H   0  0  0  0  0  0  0  0  0  0  0  0
   -0.5521    0.1755    1.1310 H   0  0  0  0  0  0  0  0  0  0  0  0
    1.3977    1.2753    2.3757 H   0  0  0  0  0  0  0  0  0  0  0  0
    2.1687    1.5916    0.8344 H   0  0  0  0  0  0  0  0  0  0  0  0
    1.6140   -1.1401    2.0993 H   0  0  0  0  0  0  0  0  0  0  0  0
    4.2065    0.2819    1.3209 H   0  0  0  0  0  0  0  0  0  0  0  0
    4.0864   -1.3314    2.0347 H   0  0  0  0  0  0  0  0  0  0  0  0
    3.5875    0.0892    2.9706 H   0  0  0  0  0  0  0  0  0  0  0  0
    2.7775   -0.5757   -0.6818 H   0  0  0  0  0  0  0  0  0  0  0  0
    2.7180   -2.1558    0.1174 H   0  0  0  0  0  0  0  0  0  0  0  0
    1.2198   -1.3557   -0.3491 H   0  0  0  0  0  0  0  0  0  0  0  0
   -1.4800    2.3424    1.7734 N   0  0  0  0  0  0  0  0  0  0  0  0
   -2.2474    3.5310    2.0683 C   0  0  2  0  0  0  0  0  0  0  0  0
   -2.5769    4.2173    0.7492 C   0  0  0  0  0  0  0  0  0  0  0  0
   -1.9247    4.0441   -0.2783 O   0  0  0  0  0  0  0  0  0  0  0  0
   -1.4843    4.4672    2.9924 C   0  0  0  0  0  0  0  0  0  0  0  0
   -1.6835    1.5074    2.3148 H   0  0  0  0  0  0  0  0  0  0  0  0
   -3.1738    3.1981    2.5488 H   0  0  0  0  0  0  0  0  0  0  0  0
   -0.5530    4.8112    2.5279 H   0  0  0  0  0  0  0  0  0  0  0  0
   -2.0784    5.3537    3.2377 H   0  0  0  0  0  0  0  0  0  0  0  0
   -1.2222    3.9625    3.9286 H   0  0  0  0  0  0  0  0  0  0  0  0
   -3.6586    5.0790    0.8652 N   0  0  0  0  0  0  0  0  0  0  0  0
   -4.1580    5.8571   -0.2444 C   0  0  0  0  0  0  0  0  0  0  0  0
   -4.1515    5.1459    1.7509 H   0  0  0  0  0  0  0  0  0  0  0  0
   -3.6751    6.8454   -0.2467 H   0  0  0  0  0  0  0  0  0  0  0  0
   -3.9333    5.3371   -1.1873 H   0  0  0  0  0  0  0  0  0  0  0  0
   -5.2464    5.9813   -0.1445 H   0  0  0  0  0  0  0  0  0  0  0  0
  1  3  1  0  0  0  0
  1  7  1  0  0  0  0
  1  2  2  0  0  0  0
 37 38  1  0  0  0  0
 38 46  1  0  0  0  0
 38 39  2  0  0  0  0
  8  9  1  0  0  0  0
  9 17  1  0  0  0  0
  9 10  2  0  0  0  0
 18 19  1  0  0  0  0
 19 36  1  0  0  0  0
 19 20  2  0  0  0  0
 37 40  1  0  0  0  0
  8 11  1  0  0  0  0
 22 23  1  0  0  0  0
 22 24  1  0  0  0  0
 46 47  1  0  0  0  0
 18 21  1  0  0  0  0
 21 22  1  0  0  0  0
 36 37  1  0  0  0  0
  7  8  1  0  0  0  0
 17 18  1  0  0  0  0
  3  4  1  0  0  0  0
  3  5  1  0  0  0  0
  3  6  1  0  0  0  0
 40 43  1  0  0  0  0
 40 44  1  0  0  0  0
 40 45  1  0  0  0  0
 11 14  1  0  0  0  0
 11 15  1  0  0  0  0
 11 16  1  0  0  0  0
 23 30  1  0  0  0  0
 23 31  1  0  0  0  0
 23 32  1  0  0  0  0
 24 33  1  0  0  0  0
 24 34  1  0  0  0  0
 24 35  1  0  0  0  0
 47 49  1  0  0  0  0
 47 50  1  0  0  0  0
 47 51  1  0  0  0  0
 21 27  1  0  0  0  0
 21 28  1  0  0  0  0
 37 42  1  0  0  0  0
  8 13  1  0  0  0  0
 18 26  1  0  0  0  0
 22 29  1  0  0  0  0
 46 48  1  0  0  0  0
  7 12  1  0  0  0  0
 36 41  1  0  0  0  0
 17 25  1  0  0  0  0
M  END
$$$$

  -OEChem-05262214473D

 51 50  0     1  0  0  0  0  0999 V2000
    3.4018   -1.2440   -3.0186 C   0  0  0  0  0  0  0  0  0  0  0  0
    3.2697   -2.0909   -2.1427 O   0  0  0  0  0  0  0  0  0  0  0  0
    4.6845   -1.1645   -3.7779 C   0  0  0  0  0  0  0  0  0  0  0  0
    5.4123   -0.4862   -3.3041 H   0  0  0  0  0  0  0  0  0  0  0  0
    5.1949   -2.1387   -3.8443 H   0  0  0  0  0  0  0  0  0  0  0  0
    4.5953   -0.8128   -4.8182 H   0  0  0  0  0  0  0  0  0  0  0  0
    2.4540   -0.3103   -3.4040 N   0  0  0  0  0  0  0  0  0  0  0  0
    1.1494   -0.2128   -2.8039 C   0  0  2  0  0  0  0  0  0  0  0  0
    1.3350    0.0367   -1.3130 C   0  0  0  0  0  0  0  0  0  0  0  0
    2.3625   -0.2586   -0.7063 O   0  0  0  0  0  0  0  0  0  0  0  0
    0.3331   -1.4728   -3.0467 C   0  0  0  0  0  0  0  0  0  0  0  0
    2.6924    0.3404   -4.1502 H   0  0  0  0  0  0  0  0  0  0  0  0
    0.6550    0.6514   -3.2607 H   0  0  0  0  0  0  0  0  0  0  0  0
    0.8129   -2.3494   -2.5963 H   0  0  0  0  0  0  0  0  0  0  0  0
   -0.6690   -1.3857   -2.6142 H   0  0  0  0  0  0  0  0  0  0  0  0
    0.2259   -1.6670   -4.1194 H   0  0  0  0  0  0  0  0  0  0  0  0
    0.2019    0.5893   -0.7269 N   0  0  0  0  0  0  0  0  0  0  0  0
    0.1242    0.9059    0.6756 C   0  0  2  0  0  0  0  0  0  0  0  0
   -0.5028    2.2920    0.7889 C   0  0  0  0  0  0  0  0  0  0  0  0
   -0.4061    3.1443   -0.0916 O   0  0  0  0  0  0  0  0  0  0  0  0
    1.5011    0.8897    1.3516 C   0  0  0  0  0  0  0  0  0  0  0  0
    2.1759   -0.4958    1.4121 C   0  0  0  0  0  0  0  0  0  0  0  0
    3.5952   -0.3548    1.9693 C   0  0  0  0  0  0  0  0  0  0  0  0
    2.2249   -1.1802    0.0454 C   0  0  0  0  0  0  0  0  0  0  0  0
   -0.5975    0.8179   -1.3140 H   0  0  0  0  0  0  0  0  0  0  0  0
   -0.5521    0.1755    1.1310 H   0  0  0  0  0  0  0  0  0  0  0  0
    1.3977    1.2753    2.3757 H   0  0  0  0  0  0  0  0  0  0  0  0
    2.1687    1.5916    0.8344 H   0  0  0  0  0  0  0  0  0  0  0  0
    1.6140   -1.1401    2.0993 H   0  0  0  0  0  0  0  0  0  0  0  0
    4.2065    0.2819    1.3209 H   0  0  0  0  0  0  0  0  0  0  0  0
    4.0864   -1.3314    2.0347 H   0  0  0  0  0  0  0  0  0  0  0  0
    3.5875    0.0892    2.9706 H   0  0  0  0  0  0  0  0  0  0  0  0
    2.7775   -0.5757   -0.6818 H   0  0  0  0  0  0  0  0  0  0  0  0
    2.7180   -2.1558    0.1174 H   0  0  0  0  0  0  0  0  0  0  0  0
    1.2198   -1.3557   -0.3491 H   0  0  0  0  0  0  0  0  0  0  0  0
   -1.2234    2.4427    1.9656 N   0  0  0  0  0  0  0  0  0  0  0  0
   -1.9381    3.6513    2.3080 C   0  0  2  0  0  0  0  0  0  0  0  0
   -2.5890    4.1880    1.0401 C   0  0  0  0  0  0  0  0  0  0  0  0
   -2.1903    3.9085   -0.0886 O   0  0  0  0  0  0  0  0  0  0  0  0
   -1.0102    4.6873    2.9231 C   0  0  0  0  0  0  0  0  0  0  0  0
   -1.2677    1.6702    2.6236 H   0  0  0  0  0  0  0  0  0  0  0  0
   -2.7151    3.3666    3.0258 H   0  0  0  0  0  0  0  0  0  0  0  0
   -0.2249    4.9848    2.2187 H   0  0  0  0  0  0  0  0  0  0  0  0
   -1.5583    5.5914    3.2082 H   0  0  0  0  0  0  0  0  0  0  0  0
   -0.5202    4.2891    3.8182 H   0  0  0  0  0  0  0  0  0  0  0  0
   -3.6404    5.0502    1.3180 N   0  0  0  0  0  0  0  0  0  0  0  0
   -4.4104    5.6998    0.2830 C   0  0  0  0  0  0  0  0  0  0  0  0
   -3.9141    5.2097    2.2831 H   0  0  0  0  0  0  0  0  0  0  0  0
   -3.9732    6.6852    0.0638 H   0  0  0  0  0  0  0  0  0  0  0  0
   -4.3961    5.0819   -0.6269 H   0  0  0  0  0  0  0  0  0  0  0  0
   -5.4485    5.8270    0.6236 H   0  0  0  0  0  0  0  0  0  0  0  0
  1  3  1  0  0  0  0
  1  7  1  0  0  0  0
  1  2  2  0  0  0  0
 37 38  1  0  0  0  0
 38 46  1  0  0  0  0
 38 39  2  0  0  0  0
  8  9  1  0  0  0  0
  9 17  1  0  0  0  0
  9 10  2  0  0  0  0
 18 19  1  0  0  0  0
 19 36  1  0  0  0  0
 19 20  2  0  0  0  0
 37 40  1  0  0  0  0
  8 11  1  0  0  0  0
 22 23  1  0  0  0  0
 22 24  1  0  0  0  0
 46 47  1  0  0  0  0
 18 21  1  0  0  0  0
 21 22  1  0  0  0  0
 36 37  1  0  0  0  0
  7  8  1  0  0  0  0
 17 18  1  0  0  0  0
  3  4  1  0  0  0  0
  3  5  1  0  0  0  0
  3  6  1  0  0  0  0
 40 43  1  0  0  0  0
 40 44  1  0  0  0  0
 40 45  1  0  0  0  0
 11 14  1  0  0  0  0
 11 15  1  0  0  0  0
 11 16  1  0  0  0  0
 23 30  1  0  0  0  0
 23 31  1  0  0  0  0
 23 32  1  0  0  0  0
 24 33  1  0  0  0  0
 24 34  1  0  0  0  0
 24 35  1  0  0  0  0
 47 49  1  0  0  0  0
 47 50  1  0  0  0  0
 47 51  1  0  0  0  0
 21 27  1  0  0  0  0
 21 28  1  0  0  0  0
 37 42  1  0  0  0  0
  8 13  1  0  0  0  0
 18 26  1  0  0  0  0
 22 29  1  0  0  0  0
 46 48  1  0  0  0  0
  7 12  1  0  0  0  0
 36 41  1  0  0  0  0
 17 25  1  0  0  0  0
M  END
$$$$

  -OEChem-05262214473D

 51 50  0     1  0  0  0  0  0999 V2000
    3.4018   -1.2440   -3.0186 C   0  0  0  0  0  0  0  0  0  0  0  0
    3.2697   -2.0909   -2.1427 O   0  0  0  0  0  0  0  0  0  0  0  0
    4.6845   -1.1645   -3.7779 C   0  0  0  0  0  0  0  0  0  0  0  0
    5.4123   -0.4862   -3.3041 H   0  0  0  0  0  0  0  0  0  0  0  0
    5.1949   -2.1387   -3.8443 H   0  0  0  0  0  0  0  0  0  0  0  0
    4.5953   -0.8128   -4.8182 H   0  0  0  0  0  0  0  0  0  0  0  0
    2.4540   -0.3103   -3.4040 N   0  0  0  0  0  0  0  0  0  0  0  0
    1.1494   -0.2128   -2.8039 C   0  0  2  0  0  0  0  0  0  0  0  0
    1.3350    0.0367   -1.3130 C   0  0  0  0  0  0  0  0  0  0  0  0
    2.3625   -0.2586   -0.7063 O   0  0  0  0  0  0  0  0  0  0  0  0
    0.3331   -1.4728   -3.0467 C   0  0  0  0  0  0  0  0  0  0  0  0
    2.6924    0.3404   -4.1502 H   0  0  0  0  0  0  0  0  0  0  0  0
    0.6550    0.6514   -3.2607 H   0  0  0  0  0  0  0  0  0  0  0  0
    0.8129   -2.3494   -2.5963 H   0  0  0  0  0  0  0  0  0  0  0  0
   -0.6690   -1.3857   -2.6142 H   0  0  0  0  0  0  0  0  0  0  0  0
    0.2259   -1.6670   -4.1194 H   0  0  0  0  0  0  0  0  0  0  0  0
    0.2019    0.5893   -0.7269 N   0  0  0  0  0  0  0  0  0  0  0  0
    0.1242    0.9059    0.6756 C   0  0  2  0  0  0  0  0  0  0  0  0
   -0.5028    2.2920    0.7889 C   0  0  0  0  0  0  0  0  0  0  0  0
   -0.6422    3.0441   -0.1734 O   0  0  0  0  0  0  0  0  0  0  0  0
    1.5011    0.8897    1.3516 C   0  0  0  0  0  0  0  0  0  0  0  0
    2.1759   -0.4958    1.4121 C   0  0  0  0  0  0  0  0  0  0  0  0
    3.5952   -0.3548    1.9693 C   0  0  0  0  0  0  0  0  0  0  0  0
    2.2249   -1.1802    0.0454 C   0  0  0  0  0  0  0  0  0  0  0  0
   -0.5975    0.8179   -1.3140 H   0  0  0  0  0  0  0  0  0  0  0  0
   -0.5521    0.1755    1.1310 H   0  0  0  0  0  0  0  0  0  0  0  0
    1.3977    1.2753    2.3757 H   0  0  0  0  0  0  0  0  0  0  0  0
    2.1687    1.5916    0.8344 H   0  0  0  0  0  0  0  0  0  0  0  0
    1.6140   -1.1401    2.0993 H   0  0  0  0  0  0  0  0  0  0  0  0
    4.2065    0.2819    1.3209 H   0  0  0  0  0  0  0  0  0  0  0  0
    4.0864   -1.3314    2.0347 H   0  0  0  0  0  0  0  0  0  0  0  0
    3.5875    0.0892    2.9706 H   0  0  0  0  0  0  0  0  0  0  0  0
    2.7775   -0.5757   -0.6818 H   0  0  0  0  0  0  0  0  0  0  0  0
    2.7180   -2.1558    0.1174 H   0  0  0  0  0  0  0  0  0  0  0  0
    1.2198   -1.3557   -0.3491 H   0  0  0  0  0  0  0  0  0  0  0  0
   -0.9324    2.5650    2.0802 N   0  0  0  0  0  0  0  0  0  0  0  0
   -1.5852    3.7990    2.4541 C   0  0  2  0  0  0  0  0  0  0  0  0
   -2.5317    4.1905    1.3270 C   0  0  0  0  0  0  0  0  0  0  0  0
   -2.3996    3.7925    0.1714 O   0  0  0  0  0  0  0  0  0  0  0  0
   -0.5727    4.9017    2.7214 C   0  0  0  0  0  0  0  0  0  0  0  0
   -0.7967    1.8683    2.8068 H   0  0  0  0  0  0  0  0  0  0  0  0
   -2.1631    3.5889    3.3607 H   0  0  0  0  0  0  0  0  0  0  0  0
    0.0159    5.1260    1.8243 H   0  0  0  0  0  0  0  0  0  0  0  0
   -1.0674    5.8278    3.0321 H   0  0  0  0  0  0  0  0  0  0  0  0
    0.1257    4.6064    3.5118 H   0  0  0  0  0  0  0  0  0  0  0  0
   -3.5159    5.0709    1.7541 N   0  0  0  0  0  0  0  0  0  0  0  0
   -4.5271    5.5992    0.8684 C   0  0  0  0  0  0  0  0  0  0  0  0
   -3.5610    5.3325    2.7345 H   0  0  0  0  0  0  0  0  0  0  0  0
   -4.1851    6.5576    0.4509 H   0  0  0  0  0  0  0  0  0  0  0  0
   -4.7065    4.8861    0.0503 H   0  0  0  0  0  0  0  0  0  0  0  0
   -5.4602    5.7559    1.4295 H   0  0  0  0  0  0  0  0  0  0  0  0
  1  3  1  0  0  0  0
  1  7  1  0  0  0  0
  1  2  2  0  0  0  0
 37 38  1  0  0  0  0
 38 46  1  0  0  0  0
 38 39  2  0  0  0  0
  8  9  1  0  0  0  0
  9 17  1  0  0  0  0
  9 10  2  0  0  0  0
 18 19  1  0  0  0  0
 19 36  1  0  0  0  0
 19 20  2  0  0  0  0
 37 40  1  0  0  0  0
  8 11  1  0  0  0  0
 22 23  1  0  0  0  0
 22 24  1  0  0  0  0
 46 47  1  0  0  0  0
 18 21  1  0  0  0  0
 21 22  1  0  0  0  0
 36 37  1  0  0  0  0
  7  8  1  0  0  0  0
 17 18  1  0  0  0  0
  3  4  1  0  0  0  0
  3  5  1  0  0  0  0
  3  6  1  0  0  0  0
 40 43  1  0  0  0  0
 40 44  1  0  0  0  0
 40 45  1  0  0  0  0
 11 14  1  0  0  0  0
 11 15  1  0  0  0  0
 11 16  1  0  0  0  0
 23 30  1  0  0  0  0
 23 31  1  0  0  0  0
 23 32  1  0  0  0  0
 24 33  1  0  0  0  0
 24 34  1  0  0  0  0
 24 35  1  0  0  0  0
 47 49  1  0  0  0  0
 47 50  1  0  0  0  0
 47 51  1  0  0  0  0
 21 27  1  0  0  0  0
 21 28  1  0  0  0  0
 37 42  1  0  0  0  0
  8 13  1  0  0  0  0
 18 26  1  0  0  0  0
 22 29  1  0  0  0  0
 46 48  1  0  0  0  0
  7 12  1  0  0  0  0
 36 41  1  0  0  0  0
 17 25  1  0  0  0  0
M  END
$$$$

  -OEChem-05262214473D

 51 50  0     1  0  0  0  0  0999 V2000
    3.4018   -1.2440   -3.0186 C   0  0  0  0  0  0  0  0  0  0  0  0
    3.2697   -2.0909   -2.1427 O   0  0  0  0  0  0  0  0  0  0  0  0
    4.6845   -1.1645   -3.7779 C   0  0  0  0  0  0  0  0  0  0  0  0
    5.4123   -0.4862   -3.3041 H   0  0  0  0  0  0  0  0  0  0  0  0
    5.1949   -2.1387   -3.8443 H   0  0  0  0  0  0  0  0  0  0  0  0
    4.5953   -0.8128   -4.8182 H   0  0  0  0  0  0  0  0  0  0  0  0
    2.4540   -0.3103   -3.4040 N   0  0  0  0  0  0  0  0  0  0  0  0
    1.1494   -0.2128   -2.8039 C   0  0  2  0  0  0  0  0  0  0  0  0
    1.3350    0.0367   -1.3130 C   0  0  0  0  0  0  0  0  0  0  0  0
    2.3625   -0.2586   -0.7063 O   0  0  0  0  0  0  0  0  0  0  0  0
    0.3331   -1.4728   -3.0467 C   0  0  0  0  0  0  0  0  0  0  0  0
    2.6924    0.3404   -4.1502 H   0  0  0  0  0  0  0  0  0  0  0  0
    0.6550    0.6514   -3.2607 H   0  0  0  0  0  0  0  0  0  0  0  0
    0.8129   -2.3494   -2.5963 H   0  0  0  0  0  0  0  0  0  0  0  0
   -0.6690   -1.3857   -2.6142 H   0  0  0  0  0  0  0  0  0  0  0  0
    0.2259   -1.6670   -4.1194 H   0  0  0  0  0  0  0  0  0  0  0  0
    0.2019    0.5893   -0.7269 N   0  0  0  0  0  0  0  0  0  0  0  0
    0.1242    0.9059    0.6756 C   0  0  2  0  0  0  0  0  0  0  0  0
   -0.8253    2.0916    0.8163 C   0  0  0  0  0  0  0  0  0  0  0  0
   -1.4129    2.5954   -0.1387 O   0  0  0  0  0  0  0  0  0  0  0  0
    1.4957    1.2512    1.2697 C   0  0  0  0  0  0  0  0  0  0  0  0
    2.5007    0.0817    1.2997 C   0  0  0  0  0  0  0  0  0  0  0  0
    3.8669    0.5873    1.7717 C   0  0  0  0  0  0  0  0  0  0  0  0
    2.6455   -0.5973   -0.0629 C   0  0  0  0  0  0  0  0  0  0  0  0
   -0.5975    0.8179   -1.3140 H   0  0  0  0  0  0  0  0  0  0  0  0
   -0.3196    0.0386    1.1748 H   0  0  0  0  0  0  0  0  0  0  0  0
    1.3549    1.6200    2.2955 H   0  0  0  0  0  0  0  0  0  0  0  0
    1.9348    2.0874    0.7095 H   0  0  0  0  0  0  0  0  0  0  0  0
    2.1584   -0.6685    2.0230 H   0  0  0  0  0  0  0  0  0  0  0  0
    4.2610    1.3433    1.0843 H   0  0  0  0  0  0  0  0  0  0  0  0
    4.5916   -0.2327    1.8147 H   0  0  0  0  0  0  0  0  0  0  0  0
    3.8026    1.0362    2.7688 H   0  0  0  0  0  0  0  0  0  0  0  0
    2.9867    0.1113   -0.8253 H   0  0  0  0  0  0  0  0  0  0  0  0
    3.3722   -1.4155   -0.0135 H   0  0  0  0  0  0  0  0  0  0  0  0
    1.6971   -1.0285   -0.3966 H   0  0  0  0  0  0  0  0  0  0  0  0
   -0.9753    2.4842    2.1391 N   0  0  0  0  0  0  0  0  0  0  0  0
   -1.8392    3.5670    2.5514 C   0  0  2  0  0  0  0  0  0  0  0  0
   -3.1104    3.4988    1.7153 C   0  0  0  0  0  0  0  0  0  0  0  0
   -3.1651    2.9392    0.6222 O   0  0  0  0  0  0  0  0  0  0  0  0
   -1.1535    4.9146    2.3889 C   0  0  0  0  0  0  0  0  0  0  0  0
   -0.4665    1.9888    2.8653 H   0  0  0  0  0  0  0  0  0  0  0  0
   -2.0844    3.3925    3.6047 H   0  0  0  0  0  0  0  0  0  0  0  0
   -0.9002    5.1071    1.3400 H   0  0  0  0  0  0  0  0  0  0  0  0
   -1.7987    5.7316    2.7284 H   0  0  0  0  0  0  0  0  0  0  0  0
   -0.2240    4.9512    2.9674 H   0  0  0  0  0  0  0  0  0  0  0  0
   -4.1654    4.1734    2.3137 N   0  0  0  0  0  0  0  0  0  0  0  0
   -5.4748    4.2640    1.7111 C   0  0  0  0  0  0  0  0  0  0  0  0
   -4.0352    4.5923    3.2298 H   0  0  0  0  0  0  0  0  0  0  0  0
   -5.5397    5.1830    1.1101 H   0  0  0  0  0  0  0  0  0  0  0  0
   -5.6417    3.3903    1.0639 H   0  0  0  0  0  0  0  0  0  0  0  0
   -6.2407    4.2873    2.5003 H   0  0  0  0  0  0  0  0  0  0  0  0
  1  3  1  0  0  0  0
  1  7  1  0  0  0  0
  1  2  2  0  0  0  0
 37 38  1  0  0  0  0
 38 46  1  0  0  0  0
 38 39  2  0  0  0  0
  8  9  1  0  0  0  0
  9 17  1  0  0  0  0
  9 10  2  0  0  0  0
 18 19  1  0  0  0  0
 19 36  1  0  0  0  0
 19 20  2  0  0  0  0
 37 40  1  0  0  0  0
  8 11  1  0  0  0  0
 22 23  1  0  0  0  0
 22 24  1  0  0  0  0
 46 47  1  0  0  0  0
 18 21  1  0  0  0  0
 21 22  1  0  0  0  0
 36 37  1  0  0  0  0
  7  8  1  0  0  0  0
 17 18  1  0  0  0  0
  3  4  1  0  0  0  0
  3  5  1  0  0  0  0
  3  6  1  0  0  0  0
 40 43  1  0  0  0  0
 40 44  1  0  0  0  0
 40 45  1  0  0  0  0
 11 14  1  0  0  0  0
 11 15  1  0  0  0  0
 11 16  1  0  0  0  0
 23 30  1  0  0  0  0
 23 31  1  0  0  0  0
 23 32  1  0  0  0  0
 24 33  1  0  0  0  0
 24 34  1  0  0  0  0
 24 35  1  0  0  0  0
 47 49  1  0  0  0  0
 47 50  1  0  0  0  0
 47 51  1  0  0  0  0
 21 27  1  0  0  0  0
 21 28  1  0  0  0  0
 37 42  1  0  0  0  0
  8 13  1  0  0  0  0
 18 26  1  0  0  0  0
 22 29  1  0  0  0  0
 46 48  1  0  0  0  0
  7 12  1  0  0  0  0
 36 41  1  0  0  0  0
 17 25  1  0  0  0  0
M  END
$$$$

  -OEChem-05262214473D

 51 50  0     1  0  0  0  0  0999 V2000
    3.4018   -1.2440   -3.0186 C   0  0  0  0  0  0  0  0  0  0  0  0
    3.2697   -2.0909   -2.1427 O   0  0  0  0  0  0  0  0  0  0  0  0
    4.6845   -1.1645   -3.7779 C   0  0  0  0  0  0  0  0  0  0  0  0
    5.4123   -0.4862   -3.3041 H   0  0  0  0  0  0  0  0  0  0  0  0
    5.1949   -2.1387   -3.8443 H   0  0  0  0  0  0  0  0  0  0  0  0
    4.5953   -0.8128   -4.8182 H   0  0  0  0  0  0  0  0  0  0  0  0
    2.4540   -0.3103   -3.4040 N   0  0  0  0  0  0  0  0  0  0  0  0
    1.1494   -0.2128   -2.8039 C   0  0  2  0  0  0  0  0  0  0  0  0
    1.3350    0.0367   -1.3130 C   0  0  0  0  0  0  0  0  0  0  0  0
    2.3625   -0.2586   -0.7063 O   0  0  0  0  0  0  0  0  0  0  0  0
    0.3331   -1.4728   -3.0467 C   0  0  0  0  0  0  0  0  0  0  0  0
    2.6924    0.3404   -4.1502 H   0  0  0  0  0  0  0  0  0  0  0  0
    0.6550    0.6514   -3.2607 H   0  0  0  0  0  0  0  0  0  0  0  0
    0.8129   -2.3494   -2.5963 H   0  0  0  0  0  0  0  0  0  0  0  0
   -0.6690   -1.3857   -2.6142 H   0  0  0  0  0  0  0  0  0  0  0  0
    0.2259   -1.6670   -4.1194 H   0  0  0  0  0  0  0  0  0  0  0  0
    0.2019    0.5893   -0.7269 N   0  0  0  0  0  0  0  0  0  0  0  0
    0.1242    0.9059    0.6756 C   0  0  2  0  0  0  0  0  0  0  0  0
   -0.8253    2.0916    0.8163 C   0  0  0  0  0  0  0  0  0  0  0  0
   -1.6112    2.4281   -0.0670 O   0  0  0  0  0  0  0  0  0  0  0  0
    1.4957    1.2512    1.2697 C   0  0  0  0  0  0  0  0  0  0  0  0
    2.5007    0.0817    1.2997 C   0  0  0  0  0  0  0  0  0  0  0  0
    3.8669    0.5873    1.7717 C   0  0  0  0  0  0  0  0  0  0  0  0
    2.6455   -0.5973   -0.0629 C   0  0  0  0  0  0  0  0  0  0  0  0
   -0.5975    0.8179   -1.3140 H   0  0  0  0  0  0  0  0  0  0  0  0
   -0.3196    0.0386    1.1748 H   0  0  0  0  0  0  0  0  0  0  0  0
    1.3549    1.6200    2.2955 H   0  0  0  0  0  0  0  0  0  0  0  0
    1.9348    2.0874    0.7095 H   0  0  0  0  0  0  0  0  0  0  0  0
    2.1584   -0.6685    2.0230 H   0  0  0  0  0  0  0  0  0  0  0  0
    4.2610    1.3433    1.0843 H   0  0  0  0  0  0  0  0  0  0  0  0
    4.5916   -0.2327    1.8147 H   0  0  0  0  0  0  0  0  0  0  0  0
    3.8026    1.0362    2.7688 H   0  0  0  0  0  0  0  0  0  0  0  0
    2.9867    0.1113   -0.8253 H   0  0  0  0  0  0  0  0  0  0  0  0
    3.3722   -1.4155   -0.0135 H   0  0  0  0  0  0  0  0  0  0  0  0
    1.6971   -1.0285   -0.3966 H   0  0  0  0  0  0  0  0  0  0  0  0
   -0.7245    2.6942    2.0626 N   0  0  0  0  0  0  0  0  0  0  0  0
   -1.5319    3.8233    2.4647 C   0  0  2  0  0  0  0  0  0  0  0  0
   -2.9404    3.6099    1.9259 C   0  0  0  0  0  0  0  0  0  0  0  0
   -3.1891    2.8787    0.9696 O   0  0  0  0  0  0  0  0  0  0  0  0
   -0.9473    5.1312    1.9546 C   0  0  0  0  0  0  0  0  0  0  0  0
   -0.0616    2.3279    2.7395 H   0  0  0  0  0  0  0  0  0  0  0  0
   -1.5551    3.8216    3.5599 H   0  0  0  0  0  0  0  0  0  0  0  0
   -0.9160    5.1515    0.8591 H   0  0  0  0  0  0  0  0  0  0  0  0
   -1.5443    5.9880    2.2841 H   0  0  0  0  0  0  0  0  0  0  0  0
    0.0765    5.2688    2.3189 H   0  0  0  0  0  0  0  0  0  0  0  0
   -3.8814    4.3655    2.6113 N   0  0  0  0  0  0  0  0  0  0  0  0
   -5.2872    4.3467    2.2807 C   0  0  0  0  0  0  0  0  0  0  0  0
   -3.5883    4.9295    3.4036 H   0  0  0  0  0  0  0  0  0  0  0  0
   -5.5075    5.1546    1.5674 H   0  0  0  0  0  0  0  0  0  0  0  0
   -5.5443    3.3777    1.8279 H   0  0  0  0  0  0  0  0  0  0  0  0
   -5.8808    4.4931    3.1951 H   0  0  0  0  0  0  0  0  0  0  0  0
  1  3  1  0  0  0  0
  1  7  1  0  0  0  0
  1  2  2  0  0  0  0
 37 38  1  0  0  0  0
 38 46  1  0  0  0  0
 38 39  2  0  0  0  0
  8  9  1  0  0  0  0
  9 17  1  0  0  0  0
  9 10  2  0  0  0  0
 18 19  1  0  0  0  0
 19 36  1  0  0  0  0
 19 20  2  0  0  0  0
 37 40  1  0  0  0  0
  8 11  1  0  0  0  0
 22 23  1  0  0  0  0
 22 24  1  0  0  0  0
 46 47  1  0  0  0  0
 18 21  1  0  0  0  0
 21 22  1  0  0  0  0
 36 37  1  0  0  0  0
  7  8  1  0  0  0  0
 17 18  1  0  0  0  0
  3  4  1  0  0  0  0
  3  5  1  0  0  0  0
  3  6  1  0  0  0  0
 40 43  1  0  0  0  0
 40 44  1  0  0  0  0
 40 45  1  0  0  0  0
 11 14  1  0  0  0  0
 11 15  1  0  0  0  0
 11 16  1  0  0  0  0
 23 30  1  0  0  0  0
 23 31  1  0  0  0  0
 23 32  1  0  0  0  0
 24 33  1  0  0  0  0
 24 34  1  0  0  0  0
 24 35  1  0  0  0  0
 47 49  1  0  0  0  0
 47 50  1  0  0  0  0
 47 51  1  0  0  0  0
 21 27  1  0  0  0  0
 21 28  1  0  0  0  0
 37 42  1  0  0  0  0
  8 13  1  0  0  0  0
 18 26  1  0  0  0  0
 22 29  1  0  0  0  0
 46 48  1  0  0  0  0
  7 12  1  0  0  0  0
 36 41  1  0  0  0  0
 17 25  1  0  0  0  0
M  END
$$$$

  -OEChem-05262214473D

 51 50  0     1  0  0  0  0  0999 V2000
    3.4018   -1.2440   -3.0186 C   0  0  0  0  0  0  0  0  0  0  0  0
    3.2697   -2.0909   -2.1427 O   0  0  0  0  0  0  0  0  0  0  0  0
    4.6845   -1.1645   -3.7779 C   0  0  0  0  0  0  0  0  0  0  0  0
    5.4123   -0.4862   -3.3041 H   0  0  0  0  0  0  0  0  0  0  0  0
    5.1949   -2.1387   -3.8443 H   0  0  0  0  0  0  0  0  0  0  0  0
    4.5953   -0.8128   -4.8182 H   0  0  0  0  0  0  0  0  0  0  0  0
    2.4540   -0.3103   -3.4040 N   0  0  0  0  0  0  0  0  0  0  0  0
    1.1494   -0.2128   -2.8039 C   0  0  2  0  0  0  0  0  0  0  0  0
    1.3350    0.0367   -1.3130 C   0  0  0  0  0  0  0  0  0  0  0  0
    2.3625   -0.2586   -0.7063 O   0  0  0  0  0  0  0  0  0  0  0  0
    0.3331   -1.4728   -3.0467 C   0  0  0  0  0  0  0  0  0  0  0  0
    2.6924    0.3404   -4.1502 H   0  0  0  0  0  0  0  0  0  0  0  0
    0.6550    0.6514   -3.2607 H   0  0  0  0  0  0  0  0  0  0  0  0
    0.8129   -2.3494   -2.5963 H   0  0  0  0  0  0  0  0  0  0  0  0
   -0.6690   -1.3857   -2.6142 H   0  0  0  0  0  0  0  0  0  0  0  0
    0.2259   -1.6670   -4.1194 H   0  0  0  0  0  0  0  0  0  0  0  0
    0.2019    0.5893   -0.7269 N   0  0  0  0  0  0  0  0  0  0  0  0
    0.1242    0.9059    0.6756 C   0  0  2  0  0  0  0  0  0  0  0  0
   -0.8253    2.0916    0.8163 C   0  0  0  0  0  0  0  0  0  0  0  0
   -1.7844    2.2733    0.0691 O   0  0  0  0  0  0  0  0  0  0  0  0
    1.4957    1.2512    1.2697 C   0  0  0  0  0  0  0  0  0  0  0  0
    2.5007    0.0817    1.2997 C   0  0  0  0  0  0  0  0  0  0  0  0
    3.8669    0.5873    1.7717 C   0  0  0  0  0  0  0  0  0  0  0  0
    2.6455   -0.5973   -0.0629 C   0  0  0  0  0  0  0  0  0  0  0  0
   -0.5975    0.8179   -1.3140 H   0  0  0  0  0  0  0  0  0  0  0  0
   -0.3196    0.0386    1.1748 H   0  0  0  0  0  0  0  0  0  0  0  0
    1.3549    1.6200    2.2955 H   0  0  0  0  0  0  0  0  0  0  0  0
    1.9348    2.0874    0.7095 H   0  0  0  0  0  0  0  0  0  0  0  0
    2.1584   -0.6685    2.0230 H   0  0  0  0  0  0  0  0  0  0  0  0
    4.2610    1.3433    1.0843 H   0  0  0  0  0  0  0  0  0  0  0  0
    4.5916   -0.2327    1.8147 H   0  0  0  0  0  0  0  0  0  0  0  0
    3.8026    1.0362    2.7688 H   0  0  0  0  0  0  0  0  0  0  0  0
    2.9867    0.1113   -0.8253 H   0  0  0  0  0  0  0  0  0  0  0  0
    3.3722   -1.4155   -0.0135 H   0  0  0  0  0  0  0  0  0  0  0  0
    1.6971   -1.0285   -0.3966 H   0  0  0  0  0  0  0  0  0  0  0  0
   -0.5026    2.8906    1.9044 N   0  0  0  0  0  0  0  0  0  0  0  0
   -1.2587    4.0643    2.2778 C   0  0  2  0  0  0  0  0  0  0  0  0
   -2.7364    3.7553    2.0772 C   0  0  0  0  0  0  0  0  0  0  0  0
   -3.1410    2.8757    1.3197 O   0  0  0  0  0  0  0  0  0  0  0  0
   -0.8406    5.2755    1.4587 C   0  0  0  0  0  0  0  0  0  0  0  0
    0.2960    2.6449    2.4819 H   0  0  0  0  0  0  0  0  0  0  0  0
   -1.0631    4.2415    3.3410 H   0  0  0  0  0  0  0  0  0  0  0  0
   -1.0290    5.1166    0.3907 H   0  0  0  0  0  0  0  0  0  0  0  0
   -1.3942    6.1701    1.7625 H   0  0  0  0  0  0  0  0  0  0  0  0
    0.2289    5.4783    1.5810 H   0  0  0  0  0  0  0  0  0  0  0  0
   -3.5517    4.6058    2.8107 N   0  0  0  0  0  0  0  0  0  0  0  0
   -4.9933    4.5227    2.7798 C   0  0  0  0  0  0  0  0  0  0  0  0
   -3.1298    5.2939    3.4272 H   0  0  0  0  0  0  0  0  0  0  0  0
   -5.3838    5.2015    2.0072 H   0  0  0  0  0  0  0  0  0  0  0  0
   -5.2961    3.4909    2.5482 H   0  0  0  0  0  0  0  0  0  0  0  0
   -5.3983    4.8123    3.7607 H   0  0  0  0  0  0  0  0  0  0  0  0
  1  3  1  0  0  0  0
  1  7  1  0  0  0  0
  1  2  2  0  0  0  0
 37 38  1  0  0  0  0
 38 46  1  0  0  0  0
 38 39  2  0  0  0  0
  8  9  1  0  0  0  0
  9 17  1  0  0  0  0
  9 10  2  0  0  0  0
 18 19  1  0  0  0  0
 19 36  1  0  0  0  0
 19 20  2  0  0  0  0
 37 40  1  0  0  0  0
  8 11  1  0  0  0  0
 22 23  1  0  0  0  0
 22 24  1  0  0  0  0
 46 47  1  0  0  0  0
 18 21  1  0  0  0  0
 21 22  1  0  0  0  0
 36 37  1  0  0  0  0
  7  8  1  0  0  0  0
 17 18  1  0  0  0  0
  3  4  1  0  0  0  0
  3  5  1  0  0  0  0
  3  6  1  0  0  0  0
 40 43  1  0  0  0  0
 40 44  1  0  0  0  0
 40 45  1  0  0  0  0
 11 14  1  0  0  0  0
 11 15  1  0  0  0  0
 11 16  1  0  0  0  0
 23 30  1  0  0  0  0
 23 31  1  0  0  0  0
 23 32  1  0  0  0  0
 24 33  1  0  0  0  0
 24 34  1  0  0  0  0
 24 35  1  0  0  0  0
 47 49  1  0  0  0  0
 47 50  1  0  0  0  0
 47 51  1  0  0  0  0
 21 27  1  0  0  0  0
 21 28  1  0  0  0  0
 37 42  1  0  0  0  0
  8 13  1  0  0  0  0
 18 26  1  0  0  0  0
 22 29  1  0  0  0  0
 46 48  1  0  0  0  0
  7 12  1  0  0  0  0
 36 41  1  0  0  0  0
 17 25  1  0  0  0  0
M  END
$$$$

  -OEChem-05262214473D

 51 50  0     1  0  0  0  0  0999 V2000
    3.4018   -1.2440   -3.0186 C   0  0  0  0  0  0  0  0  0  0  0  0
    3.2697   -2.0909   -2.1427 O   0  0  0  0  0  0  0  0  0  0  0  0
    4.6845   -1.1645   -3.7779 C   0  0  0  0  0  0  0  0  0  0  0  0
    5.4123   -0.4862   -3.3041 H   0  0  0  0  0  0  0  0  0  0  0  0
    5.1949   -2.1387   -3.8443 H   0  0  0  0  0  0  0  0  0  0  0  0
    4.5953   -0.8128   -4.8182 H   0  0  0  0  0  0  0  0  0  0  0  0
    2.4540   -0.3103   -3.4040 N   0  0  0  0  0  0  0  0  0  0  0  0
    1.1494   -0.2128   -2.8039 C   0  0  2  0  0  0  0  0  0  0  0  0
    1.3350    0.0367   -1.3130 C   0  0  0  0  0  0  0  0  0  0  0  0
    2.3625   -0.2586   -0.7063 O   0  0  0  0  0  0  0  0  0  0  0  0
    0.3331   -1.4728   -3.0467 C   0  0  0  0  0  0  0  0  0  0  0  0
    2.6924    0.3404   -4.1502 H   0  0  0  0  0  0  0  0  0  0  0  0
    0.6550    0.6514   -3.2607 H   0  0  0  0  0  0  0  0  0  0  0  0
    0.8129   -2.3494   -2.5963 H   0  0  0  0  0  0  0  0  0  0  0  0
   -0.6690   -1.3857   -2.6142 H   0  0  0  0  0  0  0  0  0  0  0  0
    0.2259   -1.6670   -4.1194 H   0  0  0  0  0  0  0  0  0  0  0  0
    0.2019    0.5893   -0.7269 N   0  0  0  0  0  0  0  0  0  0  0  0
    0.1242    0.9059    0.6756 C   0  0  2  0  0  0  0  0  0  0  0  0
   -0.8253    2.0916    0.8163 C   0  0  0  0  0  0  0  0  0  0  0  0
   -1.9205    2.1416    0.2603 O   0  0  0  0  0  0  0  0  0  0  0  0
    1.4957    1.2512    1.2697 C   0  0  0  0  0  0  0  0  0  0  0  0
    2.5007    0.0817    1.2997 C   0  0  0  0  0  0  0  0  0  0  0  0
    3.8669    0.5873    1.7717 C   0  0  0  0  0  0  0  0  0  0  0  0
    2.6455   -0.5973   -0.0629 C   0  0  0  0  0  0  0  0  0  0  0  0
   -0.5975    0.8179   -1.3140 H   0  0  0  0  0  0  0  0  0  0  0  0
   -0.3196    0.0386    1.1748 H   0  0  0  0  0  0  0  0  0  0  0  0
    1.3549    1.6200    2.2955 H   0  0  0  0  0  0  0  0  0  0  0  0
    1.9348    2.0874    0.7095 H   0  0  0  0  0  0  0  0  0  0  0  0
    2.1584   -0.6685    2.0230 H   0  0  0  0  0  0  0  0  0  0  0  0
    4.2610    1.3433    1.0843 H   0  0  0  0  0  0  0  0  0  0  0  0
    4.5916   -0.2327    1.8147 H   0  0  0  0  0  0  0  0  0  0  0  0
    3.8026    1.0362    2.7688 H   0  0  0  0  0  0  0  0  0  0  0  0
    2.9867    0.1113   -0.8253 H   0  0  0  0  0  0  0  0  0  0  0  0
    3.3722   -1.4155   -0.0135 H   0  0  0  0  0  0  0  0  0  0  0  0
    1.6971   -1.0285   -0.3966 H   0  0  0  0  0  0  0  0  0  0  0  0
   -0.3248    3.0601    1.6754 N   0  0  0  0  0  0  0  0  0  0  0  0
   -1.0381    4.2735    2.0035 C   0  0  2  0  0  0  0  0  0  0  0  0
   -2.5125    3.9249    2.1589 C   0  0  0  0  0  0  0  0  0  0  0  0
   -3.0240    2.9303    1.6487 O   0  0  0  0  0  0  0  0  0  0  0  0
   -0.8408    5.3375    0.9351 C   0  0  0  0  0  0  0  0  0  0  0  0
    0.5821    2.9181    2.1101 H   0  0  0  0  0  0  0  0  0  0  0  0
   -0.6419    4.6236    2.9630 H   0  0  0  0  0  0  0  0  0  0  0  0
   -1.2316    5.0047   -0.0334 H   0  0  0  0  0  0  0  0  0  0  0  0
   -1.3584    6.2656    1.1990 H   0  0  0  0  0  0  0  0  0  0  0  0
    0.2225    5.5655    0.8037 H   0  0  0  0  0  0  0  0  0  0  0  0
   -3.1990    4.8779    2.8983 N   0  0  0  0  0  0  0  0  0  0  0  0
   -4.6133    4.7802    3.1745 C   0  0  0  0  0  0  0  0  0  0  0  0
   -2.6907    5.6607    3.2991 H   0  0  0  0  0  0  0  0  0  0  0  0
   -5.1768    5.3206    2.3996 H   0  0  0  0  0  0  0  0  0  0  0  0
   -4.9142    3.7222    3.1759 H   0  0  0  0  0  0  0  0  0  0  0  0
   -4.8260    5.2233    4.1585 H   0  0  0  0  0  0  0  0  0  0  0  0
  1  3  1  0  0  0  0
  1  7  1  0  0  0  0
  1  2  2  0  0  0  0
 37 38  1  0  0  0  0
 38 46  1  0  0  0  0
 38 39  2  0  0  0  0
  8  9  1  0  0  0  0
  9 17  1  0  0  0  0
  9 10  2  0  0  0  0
 18 19  1  0  0  0  0
 19 36  1  0  0  0  0
 19 20  2  0  0  0  0
 37 40  1  0  0  0  0
  8 11  1  0  0  0  0
 22 23  1  0  0  0  0
 22 24  1  0  0  0  0
 46 47  1  0  0  0  0
 18 21  1  0  0  0  0
 21 22  1  0  0  0  0
 36 37  1  0  0  0  0
  7  8  1  0  0  0  0
 17 18  1  0  0  0  0
  3  4  1  0  0  0  0
  3  5  1  0  0  0  0
  3  6  1  0  0  0  0
 40 43  1  0  0  0  0
 40 44  1  0  0  0  0
 40 45  1  0  0  0  0
 11 14  1  0  0  0  0
 11 15  1  0  0  0  0
 11 16  1  0  0  0  0
 23 30  1  0  0  0  0
 23 31  1  0  0  0  0
 23 32  1  0  0  0  0
 24 33  1  0  0  0  0
 24 34  1  0  0  0  0
 24 35  1  0  0  0  0
 47 49  1  0  0  0  0
 47 50  1  0  0  0  0
 47 51  1  0  0  0  0
 21 27  1  0  0  0  0
 21 28  1  0  0  0  0
 37 42  1  0  0  0  0
  8 13  1  0  0  0  0
 18 26  1  0  0  0  0
 22 29  1  0  0  0  0
 46 48  1  0  0  0  0
  7 12  1  0  0  0  0
 36 41  1  0  0  0  0
 17 25  1  0  0  0  0
M  END
$$$$

  -OEChem-05262214473D

 51 50  0     1  0  0  0  0  0999 V2000
    3.4018   -1.2440   -3.0186 C   0  0  0  0  0  0  0  0  0  0  0  0
    3.2697   -2.0909   -2.1427 O   0  0  0  0  0  0  0  0  0  0  0  0
    4.6845   -1.1645   -3.7779 C   0  0  0  0  0  0  0  0  0  0  0  0
    5.4123   -0.4862   -3.3041 H   0  0  0  0  0  0  0  0  0  0  0  0
    5.1949   -2.1387   -3.8443 H   0  0  0  0  0  0  0  0  0  0  0  0
    4.5953   -0.8128   -4.8182 H   0  0  0  0  0  0  0  0  0  0  0  0
    2.4540   -0.3103   -3.4040 N   0  0  0  0  0  0  0  0  0  0  0  0
    1.1494   -0.2128   -2.8039 C   0  0  2  0  0  0  0  0  0  0  0  0
    1.3350    0.0367   -1.3130 C   0  0  0  0  0  0  0  0  0  0  0  0
    2.3625   -0.2586   -0.7063 O   0  0  0  0  0  0  0  0  0  0  0  0
    0.3331   -1.4728   -3.0467 C   0  0  0  0  0  0  0  0  0  0  0  0
    2.6924    0.3404   -4.1502 H   0  0  0  0  0  0  0  0  0  0  0  0
    0.6550    0.6514   -3.2607 H   0  0  0  0  0  0  0  0  0  0  0  0
    0.8129   -2.3494   -2.5963 H   0  0  0  0  0  0  0  0  0  0  0  0
   -0.6690   -1.3857   -2.6142 H   0  0  0  0  0  0  0  0  0  0  0  0
    0.2259   -1.6670   -4.1194 H   0  0  0  0  0  0  0  0  0  0  0  0
    0.2019    0.5893   -0.7269 N   0  0  0  0  0  0  0  0  0  0  0  0
    0.1242    0.9059    0.6756 C   0  0  2  0  0  0  0  0  0  0  0  0
   -0.8253    2.0916    0.8163 C   0  0  0  0  0  0  0  0  0  0  0  0
   -2.0104    2.0419    0.4936 O   0  0  0  0  0  0  0  0  0  0  0  0
    1.4957    1.2512    1.2697 C   0  0  0  0  0  0  0  0  0  0  0  0
    2.5007    0.0817    1.2997 C   0  0  0  0  0  0  0  0  0  0  0  0
    3.8669    0.5873    1.7717 C   0  0  0  0  0  0  0  0  0  0  0  0
    2.6455   -0.5973   -0.0629 C   0  0  0  0  0  0  0  0  0  0  0  0
   -0.5975    0.8179   -1.3140 H   0  0  0  0  0  0  0  0  0  0  0  0
   -0.3196    0.0386    1.1748 H   0  0  0  0  0  0  0  0  0  0  0  0
    1.3549    1.6200    2.2955 H   0  0  0  0  0  0  0  0  0  0  0  0
    1.9348    2.0874    0.7095 H   0  0  0  0  0  0  0  0  0  0  0  0
    2.1584   -0.6685    2.0230 H   0  0  0  0  0  0  0  0  0  0  0  0
    4.2610    1.3433    1.0843 H   0  0  0  0  0  0  0  0  0  0  0  0
    4.5916   -0.2327    1.8147 H   0  0  0  0  0  0  0  0  0  0  0  0
    3.8026    1.0362    2.7688 H   0  0  0  0  0  0  0  0  0  0  0  0
    2.9867    0.1113   -0.8253 H   0  0  0  0  0  0  0  0  0  0  0  0
    3.3722   -1.4155   -0.0135 H   0  0  0  0  0  0  0  0  0  0  0  0
    1.6971   -1.0285   -0.3966 H   0  0  0  0  0  0  0  0  0  0  0  0
   -0.2032    3.1912    1.3911 N   0  0  0  0  0  0  0  0  0  0  0  0
   -0.8852    4.4366    1.6605 C   0  0  2  0  0  0  0  0  0  0  0  0
   -2.2838    4.1072    2.1654 C   0  0  0  0  0  0  0  0  0  0  0  0
   -2.8461    3.0389    1.9341 O   0  0  0  0  0  0  0  0  0  0  0  0
   -0.9478    5.3130    0.4193 C   0  0  0  0  0  0  0  0  0  0  0  0
    0.7771    3.1289    1.6494 H   0  0  0  0  0  0  0  0  0  0  0  0
   -0.3203    4.9418    2.4515 H   0  0  0  0  0  0  0  0  0  0  0  0
   -1.5100    4.8234   -0.3843 H   0  0  0  0  0  0  0  0  0  0  0  0
   -1.4394    6.2680    0.6322 H   0  0  0  0  0  0  0  0  0  0  0  0
    0.0579    5.5243    0.0402 H   0  0  0  0  0  0  0  0  0  0  0  0
   -2.8471    5.1632    2.8681 N   0  0  0  0  0  0  0  0  0  0  0  0
   -4.1729    5.1016    3.4377 C   0  0  0  0  0  0  0  0  0  0  0  0
   -2.3012    6.0047    3.0280 H   0  0  0  0  0  0  0  0  0  0  0  0
   -4.9009    5.5038    2.7178 H   0  0  0  0  0  0  0  0  0  0  0  0
   -4.4246    4.0558    3.6681 H   0  0  0  0  0  0  0  0  0  0  0  0
   -4.2030    5.6980    4.3615 H   0  0  0  0  0  0  0  0  0  0  0  0
  1  3  1  0  0  0  0
  1  7  1  0  0  0  0
  1  2  2  0  0  0  0
 37 38  1  0  0  0  0
 38 46  1  0  0  0  0
 38 39  2  0  0  0  0
  8  9  1  0  0  0  0
  9 17  1  0  0  0  0
  9 10  2  0  0  0  0
 18 19  1  0  0  0  0
 19 36  1  0  0  0  0
 19 20  2  0  0  0  0
 37 40  1  0  0  0  0
  8 11  1  0  0  0  0
 22 23  1  0  0  0  0
 22 24  1  0  0  0  0
 46 47  1  0  0  0  0
 18 21  1  0  0  0  0
 21 22  1  0  0  0  0
 36 37  1  0  0  0  0
  7  8  1  0  0  0  0
 17 18  1  0  0  0  0
  3  4  1  0  0  0  0
  3  5  1  0  0  0  0
  3  6  1  0  0  0  0
 40 43  1  0  0  0  0
 40 44  1  0  0  0  0
 40 45  1  0  0  0  0
 11 14  1  0  0  0  0
 11 15  1  0  0  0  0
 11 16  1  0  0  0  0
 23 30  1  0  0  0  0
 23 31  1  0  0  0  0
 23 32  1  0  0  0  0
 24 33  1  0  0  0  0
 24 34  1  0  0  0  0
 24 35  1  0  0  0  0
 47 49  1  0  0  0  0
 47 50  1  0  0  0  0
 47 51  1  0  0  0  0
 21 27  1  0  0  0  0
 21 28  1  0  0  0  0
 37 42  1  0  0  0  0
  8 13  1  0  0  0  0
 18 26  1  0  0  0  0
 22 29  1  0  0  0  0
 46 48  1  0  0  0  0
  7 12  1  0  0  0  0
 36 41  1  0  0  0  0
 17 25  1  0  0  0  0
M  END
$$$$

  -OEChem-05262214473D

 51 50  0     1  0  0  0  0  0999 V2000
    3.4018   -1.2440   -3.0186 C   0  0  0  0  0  0  0  0  0  0  0  0
    3.2697   -2.0909   -2.1427 O   0  0  0  0  0  0  0  0  0  0  0  0
    4.6845   -1.1645   -3.7779 C   0  0  0  0  0  0  0  0  0  0  0  0
    5.4123   -0.4862   -3.3041 H   0  0  0  0  0  0  0  0  0  0  0  0
    5.1949   -2.1387   -3.8443 H   0  0  0  0  0  0  0  0  0  0  0  0
    4.5953   -0.8128   -4.8182 H   0  0  0  0  0  0  0  0  0  0  0  0
    2.4540   -0.3103   -3.4040 N   0  0  0  0  0  0  0  0  0  0  0  0
    1.1494   -0.2128   -2.8039 C   0  0  2  0  0  0  0  0  0  0  0  0
    1.3350    0.0367   -1.3130 C   0  0  0  0  0  0  0  0  0  0  0  0
    2.3625   -0.2586   -0.7063 O   0  0  0  0  0  0  0  0  0  0  0  0
    0.3331   -1.4728   -3.0467 C   0  0  0  0  0  0  0  0  0  0  0  0
    2.6924    0.3404   -4.1502 H   0  0  0  0  0  0  0  0  0  0  0  0
    0.6550    0.6514   -3.2607 H   0  0  0  0  0  0  0  0  0  0  0  0
    0.8129   -2.3494   -2.5963 H   0  0  0  0  0  0  0  0  0  0  0  0
   -0.6690   -1.3857   -2.6142 H   0  0  0  0  0  0  0  0  0  0  0  0
    0.2259   -1.6670   -4.1194 H   0  0  0  0  0  0  0  0  0  0  0  0
    0.2019    0.5893   -0.7269 N   0  0  0  0  0  0  0  0  0  0  0  0
    0.1242    0.9059    0.6756 C   0  0  2  0  0  0  0  0  0  0  0  0
   -0.8253    2.0916    0.8163 C   0  0  0  0  0  0  0  0  0  0  0  0
   -2.0480    1.9811    0.7532 O   0  0  0  0  0  0  0  0  0  0  0  0
    1.4957    1.2512    1.2697 C   0  0  0  0  0  0  0  0  0  0  0  0
    2.5007    0.0817    1.2997 C   0  0  0  0  0  0  0  0  0  0  0  0
    3.8669    0.5873    1.7717 C   0  0  0  0  0  0  0  0  0  0  0  0
    2.6455   -0.5973   -0.0629 C   0  0  0  0  0  0  0  0  0  0  0  0
   -0.5975    0.8179   -1.3140 H   0  0  0  0  0  0  0  0  0  0  0  0
   -0.3196    0.0386    1.1748 H   0  0  0  0  0  0  0  0  0  0  0  0
    1.3549    1.6200    2.2955 H   0  0  0  0  0  0  0  0  0  0  0  0
    1.9348    2.0874    0.7095 H   0  0  0  0  0  0  0  0  0  0  0  0
    2.1584   -0.6685    2.0230 H   0  0  0  0  0  0  0  0  0  0  0  0
    4.2610    1.3433    1.0843 H   0  0  0  0  0  0  0  0  0  0  0  0
    4.5916   -0.2327    1.8147 H   0  0  0  0  0  0  0  0  0  0  0  0
    3.8026    1.0362    2.7688 H   0  0  0  0  0  0  0  0  0  0  0  0
    2.9867    0.1113   -0.8253 H   0  0  0  0  0  0  0  0  0  0  0  0
    3.3722   -1.4155   -0.0135 H   0  0  0  0  0  0  0  0  0  0  0  0
    1.6971   -1.0285   -0.3966 H   0  0  0  0  0  0  0  0  0  0  0  0
   -0.1461    3.2750    1.0708 N   0  0  0  0  0  0  0  0  0  0  0  0
   -0.8104    4.5426    1.2722 C   0  0  2  0  0  0  0  0  0  0  0  0
   -2.0659    4.2899    2.0964 C   0  0  0  0  0  0  0  0  0  0  0  0
   -2.6195    3.1940    2.1566 O   0  0  0  0  0  0  0  0  0  0  0  0
   -1.1543    5.2038   -0.0534 C   0  0  0  0  0  0  0  0  0  0  0  0
    0.8678    3.2630    1.1312 H   0  0  0  0  0  0  0  0  0  0  0  0
   -0.1201    5.1745    1.8416 H   0  0  0  0  0  0  0  0  0  0  0  0
   -1.8451    4.5852   -0.6380 H   0  0  0  0  0  0  0  0  0  0  0  0
   -1.6318    6.1770    0.1007 H   0  0  0  0  0  0  0  0  0  0  0  0
   -0.2536    5.3576   -0.6575 H   0  0  0  0  0  0  0  0  0  0  0  0
   -2.5201    5.4424    2.7222 N   0  0  0  0  0  0  0  0  0  0  0  0
   -3.7022    5.4649    3.5517 C   0  0  0  0  0  0  0  0  0  0  0  0
   -1.9877    6.3027    2.6323 H   0  0  0  0  0  0  0  0  0  0  0  0
   -4.5747    5.7386    2.9401 H   0  0  0  0  0  0  0  0  0  0  0  0
   -3.8606    4.4691    3.9913 H   0  0  0  0  0  0  0  0  0  0  0  0
   -3.5718    6.2042    4.3557 H   0  0  0  0  0  0  0  0  0  0  0  0
  1  3  1  0  0  0  0
  1  7  1  0  0  0  0
  1  2  2  0  0  0  0
 37 38  1  0  0  0  0
 38 46  1  0  0  0  0
 38 39  2  0  0  0  0
  8  9  1  0  0  0  0
  9 17  1  0  0  0  0
  9 10  2  0  0  0  0
 18 19  1  0  0  0  0
 19 36  1  0  0  0  0
 19 20  2  0  0  0  0
 37 40  1  0  0  0  0
  8 11  1  0  0  0  0
 22 23  1  0  0  0  0
 22 24  1  0  0  0  0
 46 47  1  0  0  0  0
 18 21  1  0  0  0  0
 21 22  1  0  0  0  0
 36 37  1  0  0  0  0
  7  8  1  0  0  0  0
 17 18  1  0  0  0  0
  3  4  1  0  0  0  0
  3  5  1  0  0  0  0
  3  6  1  0  0  0  0
 40 43  1  0  0  0  0
 40 44  1  0  0  0  0
 40 45  1  0  0  0  0
 11 14  1  0  0  0  0
 11 15  1  0  0  0  0
 11 16  1  0  0  0  0
 23 30  1  0  0  0  0
 23 31  1  0  0  0  0
 23 32  1  0  0  0  0
 24 33  1  0  0  0  0
 24 34  1  0  0  0  0
 24 35  1  0  0  0  0
 47 49  1  0  0  0  0
 47 50  1  0  0  0  0
 47 51  1  0  0  0  0
 21 27  1  0  0  0  0
 21 28  1  0  0  0  0
 37 42  1  0  0  0  0
  8 13  1  0  0  0  0
 18 26  1  0  0  0  0
 22 29  1  0  0  0  0
 46 48  1  0  0  0  0
  7 12  1  0  0  0  0
 36 41  1  0  0  0  0
 17 25  1  0  0  0  0
M  END
$$$$

  -OEChem-05262214473D

 51 50  0     1  0  0  0  0  0999 V2000
    3.4018   -1.2440   -3.0186 C   0  0  0  0  0  0  0  0  0  0  0  0
    3.2697   -2.0909   -2.1427 O   0  0  0  0  0  0  0  0  0  0  0  0
    4.6845   -1.1645   -3.7779 C   0  0  0  0  0  0  0  0  0  0  0  0
    5.4123   -0.4862   -3.3041 H   0  0  0  0  0  0  0  0  0  0  0  0
    5.1949   -2.1387   -3.8443 H   0  0  0  0  0  0  0  0  0  0  0  0
    4.5953   -0.8128   -4.8182 H   0  0  0  0  0  0  0  0  0  0  0  0
    2.4540   -0.3103   -3.4040 N   0  0  0  0  0  0  0  0  0  0  0  0
    1.1494   -0.2128   -2.8039 C   0  0  2  0  0  0  0  0  0  0  0  0
    1.3350    0.0367   -1.3130 C   0  0  0  0  0  0  0  0  0  0  0  0
    2.3625   -0.2586   -0.7063 O   0  0  0  0  0  0  0  0  0  0  0  0
    0.3331   -1.4728   -3.0467 C   0  0  0  0  0  0  0  0  0  0  0  0
    2.6924    0.3404   -4.1502 H   0  0  0  0  0  0  0  0  0  0  0  0
    0.6550    0.6514   -3.2607 H   0  0  0  0  0  0  0  0  0  0  0  0
    0.8129   -2.3494   -2.5963 H   0  0  0  0  0  0  0  0  0  0  0  0
   -0.6690   -1.3857   -2.6142 H   0  0  0  0  0  0  0  0  0  0  0  0
    0.2259   -1.6670   -4.1194 H   0  0  0  0  0  0  0  0  0  0  0  0
    0.2019    0.5893   -0.7269 N   0  0  0  0  0  0  0  0  0  0  0  0
    0.1242    0.9059    0.6756 C   0  0  2  0  0  0  0  0  0  0  0  0
   -0.8253    2.0916    0.8163 C   0  0  0  0  0  0  0  0  0  0  0  0
   -2.0305    1.9632    1.0212 O   0  0  0  0  0  0  0  0  0  0  0  0
    1.4957    1.2512    1.2697 C   0  0  0  0  0  0  0  0  0  0  0  0
    2.5007    0.0817    1.2997 C   0  0  0  0  0  0  0  0  0  0  0  0
    3.8669    0.5873    1.7717 C   0  0  0  0  0  0  0  0  0  0  0  0
    2.6455   -0.5973   -0.0629 C   0  0  0  0  0  0  0  0  0  0  0  0
   -0.5975    0.8179   -1.3140 H   0  0  0  0  0  0  0  0  0  0  0  0
   -0.3196    0.0386    1.1748 H   0  0  0  0  0  0  0  0  0  0  0  0
    1.3549    1.6200    2.2955 H   0  0  0  0  0  0  0  0  0  0  0  0
    1.9348    2.0874    0.7095 H   0  0  0  0  0  0  0  0  0  0  0  0
    2.1584   -0.6685    2.0230 H   0  0  0  0  0  0  0  0  0  0  0  0
    4.2610    1.3433    1.0843 H   0  0  0  0  0  0  0  0  0  0  0  0
    4.5916   -0.2327    1.8147 H   0  0  0  0  0  0  0  0  0  0  0  0
    3.8026    1.0362    2.7688 H   0  0  0  0  0  0  0  0  0  0  0  0
    2.9867    0.1113   -0.8253 H   0  0  0  0  0  0  0  0  0  0  0  0
    3.3722   -1.4155   -0.0135 H   0  0  0  0  0  0  0  0  0  0  0  0
    1.6971   -1.0285   -0.3966 H   0  0  0  0  0  0  0  0  0  0  0  0
   -0.1573    3.3057    0.7365 N   0  0  0  0  0  0  0  0  0  0  0  0
   -0.8188    4.5842    0.8649 C   0  0  2  0  0  0  0  0  0  0  0  0
   -1.8737    4.4604    1.9564 C   0  0  0  0  0  0  0  0  0  0  0  0
   -2.3595    3.3850    2.3009 O   0  0  0  0  0  0  0  0  0  0  0  0
   -1.4463    5.0171   -0.4509 C   0  0  0  0  0  0  0  0  0  0  0  0
    0.8479    3.3112    0.5908 H   0  0  0  0  0  0  0  0  0  0  0  0
   -0.0550    5.3058    1.1746 H   0  0  0  0  0  0  0  0  0  0  0  0
   -2.2142    4.3062   -0.7773 H   0  0  0  0  0  0  0  0  0  0  0  0
   -1.9224    5.9989   -0.3594 H   0  0  0  0  0  0  0  0  0  0  0  0
   -0.6910    5.0768   -1.2419 H   0  0  0  0  0  0  0  0  0  0  0  0
   -2.2402    5.6963    2.4705 N   0  0  0  0  0  0  0  0  0  0  0  0
   -3.2334    5.8454    3.5085 C   0  0  0  0  0  0  0  0  0  0  0  0
   -1.7716    6.5343    2.1390 H   0  0  0  0  0  0  0  0  0  0  0  0
   -4.2205    6.0090    3.0515 H   0  0  0  0  0  0  0  0  0  0  0  0
   -3.2607    4.9338    4.1234 H   0  0  0  0  0  0  0  0  0  0  0  0
   -2.9753    6.7072    4.1416 H   0  0  0  0  0  0  0  0  0  0  0  0
  1  3  1  0  0  0  0
  1  7  1  0  0  0  0
  1  2  2  0  0  0  0
 37 38  1  0  0  0  0
 38 46  1  0  0  0  0
 38 39  2  0  0  0  0
  8  9  1  0  0  0  0
  9 17  1  0  0  0  0
  9 10  2  0  0  0  0
 18 19  1  0  0  0  0
 19 36  1  0  0  0  0
 19 20  2  0  0  0  0
 37 40  1  0  0  0  0
  8 11  1  0  0  0  0
 22 23  1  0  0  0  0
 22 24  1  0  0  0  0
 46 47  1  0  0  0  0
 18 21  1  0  0  0  0
 21 22  1  0  0  0  0
 36 37  1  0  0  0  0
  7  8  1  0  0  0  0
 17 18  1  0  0  0  0
  3  4  1  0  0  0  0
  3  5  1  0  0  0  0
  3  6  1  0  0  0  0
 40 43  1  0  0  0  0
 40 44  1  0  0  0  0
 40 45  1  0  0  0  0
 11 14  1  0  0  0  0
 11 15  1  0  0  0  0
 11 16  1  0  0  0  0
 23 30  1  0  0  0  0
 23 31  1  0  0  0  0
 23 32  1  0  0  0  0
 24 33  1  0  0  0  0
 24 34  1  0  0  0  0
 24 35  1  0  0  0  0
 47 49  1  0  0  0  0
 47 50  1  0  0  0  0
 47 51  1  0  0  0  0
 21 27  1  0  0  0  0
 21 28  1  0  0  0  0
 37 42  1  0  0  0  0
  8 13  1  0  0  0  0
 18 26  1  0  0  0  0
 22 29  1  0  0  0  0
 46 48  1  0  0  0  0
  7 12  1  0  0  0  0
 36 41  1  0  0  0  0
 17 25  1  0  0  0  0
M  END
$$$$

  -OEChem-05262214473D

 51 50  0     1  0  0  0  0  0999 V2000
    3.4018   -1.2440   -3.0186 C   0  0  0  0  0  0  0  0  0  0  0  0
    3.2697   -2.0909   -2.1427 O   0  0  0  0  0  0  0  0  0  0  0  0
    4.6845   -1.1645   -3.7779 C   0  0  0  0  0  0  0  0  0  0  0  0
    5.4123   -0.4862   -3.3041 H   0  0  0  0  0  0  0  0  0  0  0  0
    5.1949   -2.1387   -3.8443 H   0  0  0  0  0  0  0  0  0  0  0  0
    4.5953   -0.8128   -4.8182 H   0  0  0  0  0  0  0  0  0  0  0  0
    2.4540   -0.3103   -3.4040 N   0  0  0  0  0  0  0  0  0  0  0  0
    1.1494   -0.2128   -2.8039 C   0  0  2  0  0  0  0  0  0  0  0  0
    1.3350    0.0367   -1.3130 C   0  0  0  0  0  0  0  0  0  0  0  0
    2.3625   -0.2586   -0.7063 O   0  0  0  0  0  0  0  0  0  0  0  0
    0.3331   -1.4728   -3.0467 C   0  0  0  0  0  0  0  0  0  0  0  0
    2.6924    0.3404   -4.1502 H   0  0  0  0  0  0  0  0  0  0  0  0
    0.6550    0.6514   -3.2607 H   0  0  0  0  0  0  0  0  0  0  0  0
    0.8129   -2.3494   -2.5963 H   0  0  0  0  0  0  0  0  0  0  0  0
   -0.6690   -1.3857   -2.6142 H   0  0  0  0  0  0  0  0  0  0  0  0
    0.2259   -1.6670   -4.1194 H   0  0  0  0  0  0  0  0  0  0  0  0
    0.2019    0.5893   -0.7269 N   0  0  0  0  0  0  0  0  0  0  0  0
    0.1242    0.9059    0.6756 C   0  0  2  0  0  0  0  0  0  0  0  0
   -0.8253    2.0916    0.8163 C   0  0  0  0  0  0  0  0  0  0  0  0
   -1.9594    1.9895    1.2795 O   0  0  0  0  0  0  0  0  0  0  0  0
    1.4957    1.2512    1.2697 C   0  0  0  0  0  0  0  0  0  0  0  0
    2.5007    0.0817    1.2997 C   0  0  0  0  0  0  0  0  0  0  0  0
    3.8669    0.5873    1.7717 C   0  0  0  0  0  0  0  0  0  0  0  0
    2.6455   -0.5973   -0.0629 C   0  0  0  0  0  0  0  0  0  0  0  0
   -0.5975    0.8179   -1.3140 H   0  0  0  0  0  0  0  0  0  0  0  0
   -0.3196    0.0386    1.1748 H   0  0  0  0  0  0  0  0  0  0  0  0
    1.3549    1.6200    2.2955 H   0  0  0  0  0  0  0  0  0  0  0  0
    1.9348    2.0874    0.7095 H   0  0  0  0  0  0  0  0  0  0  0  0
    2.1584   -0.6685    2.0230 H   0  0  0  0  0  0  0  0  0  0  0  0
    4.2610    1.3433    1.0843 H   0  0  0  0  0  0  0  0  0  0  0  0
    4.5916   -0.2327    1.8147 H   0  0  0  0  0  0  0  0  0  0  0  0
    3.8026    1.0362    2.7688 H   0  0  0  0  0  0  0  0  0  0  0  0
    2.9867    0.1113   -0.8253 H   0  0  0  0  0  0  0  0  0  0  0  0
    3.3722   -1.4155   -0.0135 H   0  0  0  0  0  0  0  0  0  0  0  0
    1.6971   -1.0285   -0.3966 H   0  0  0  0  0  0  0  0  0  0  0  0
   -0.2361    3.2812    0.4110 N   0  0  0  0  0  0  0  0  0  0  0  0
   -0.9098    4.5586    0.4666 C   0  0  2  0  0  0  0  0  0  0  0  0
   -1.7203    4.6071    1.7551 C   0  0  0  0  0  0  0  0  0  0  0  0
   -2.0839    3.5990    2.3572 O   0  0  0  0  0  0  0  0  0  0  0  0
   -1.8039    4.7659   -0.7461 C   0  0  0  0  0  0  0  0  0  0  0  0
    0.7188    3.2702    0.0651 H   0  0  0  0  0  0  0  0  0  0  0  0
   -0.1294    5.3267    0.4962 H   0  0  0  0  0  0  0  0  0  0  0  0
   -2.5920    4.0055   -0.7926 H   0  0  0  0  0  0  0  0  0  0  0  0
   -2.2914    5.7459   -0.7167 H   0  0  0  0  0  0  0  0  0  0  0  0
   -1.2243    4.7010   -1.6732 H   0  0  0  0  0  0  0  0  0  0  0  0
   -2.0266    5.9077    2.1302 N   0  0  0  0  0  0  0  0  0  0  0  0
   -2.7983    6.2173    3.3112 C   0  0  0  0  0  0  0  0  0  0  0  0
   -1.6676    6.6837    1.5818 H   0  0  0  0  0  0  0  0  0  0  0  0
   -3.8624    6.2966    3.0442 H   0  0  0  0  0  0  0  0  0  0  0  0
   -2.6657    5.4182    4.0555 H   0  0  0  0  0  0  0  0  0  0  0  0
   -2.4543    7.1728    3.7338 H   0  0  0  0  0  0  0  0  0  0  0  0
  1  3  1  0  0  0  0
  1  7  1  0  0  0  0
  1  2  2  0  0  0  0
 37 38  1  0  0  0  0
 38 46  1  0  0  0  0
 38 39  2  0  0  0  0
  8  9  1  0  0  0  0
  9 17  1  0  0  0  0
  9 10  2  0  0  0  0
 18 19  1  0  0  0  0
 19 36  1  0  0  0  0
 19 20  2  0  0  0  0
 37 40  1  0  0  0  0
  8 11  1  0  0  0  0
 22 23  1  0  0  0  0
 22 24  1  0  0  0  0
 46 47  1  0  0  0  0
 18 21  1  0  0  0  0
 21 22  1  0  0  0  0
 36 37  1  0  0  0  0
  7  8  1  0  0  0  0
 17 18  1  0  0  0  0
  3  4  1  0  0  0  0
  3  5  1  0  0  0  0
  3  6  1  0  0  0  0
 40 43  1  0  0  0  0
 40 44  1  0  0  0  0
 40 45  1  0  0  0  0
 11 14  1  0  0  0  0
 11 15  1  0  0  0  0
 11 16  1  0  0  0  0
 23 30  1  0  0  0  0
 23 31  1  0  0  0  0
 23 32  1  0  0  0  0
 24 33  1  0  0  0  0
 24 34  1  0  0  0  0
 24 35  1  0  0  0  0
 47 49  1  0  0  0  0
 47 50  1  0  0  0  0
 47 51  1  0  0  0  0
 21 27  1  0  0  0  0
 21 28  1  0  0  0  0
 37 42  1  0  0  0  0
  8 13  1  0  0  0  0
 18 26  1  0  0  0  0
 22 29  1  0  0  0  0
 46 48  1  0  0  0  0
  7 12  1  0  0  0  0
 36 41  1  0  0  0  0
 17 25  1  0  0  0  0
M  END
$$$$

  -OEChem-05262214473D

 51 50  0     1  0  0  0  0  0999 V2000
    3.4018   -1.2440   -3.0186 C   0  0  0  0  0  0  0  0  0  0  0  0
    3.2697   -2.0909   -2.1427 O   0  0  0  0  0  0  0  0  0  0  0  0
    4.6845   -1.1645   -3.7779 C   0  0  0  0  0  0  0  0  0  0  0  0
    5.4123   -0.4862   -3.3041 H   0  0  0  0  0  0  0  0  0  0  0  0
    5.1949   -2.1387   -3.8443 H   0  0  0  0  0  0  0  0  0  0  0  0
    4.5953   -0.8128   -4.8182 H   0  0  0  0  0  0  0  0  0  0  0  0
    2.4540   -0.3103   -3.4040 N   0  0  0  0  0  0  0  0  0  0  0  0
    1.1494   -0.2128   -2.8039 C   0  0  2  0  0  0  0  0  0  0  0  0
    1.3350    0.0367   -1.3130 C   0  0  0  0  0  0  0  0  0  0  0  0
    2.3625   -0.2586   -0.7063 O   0  0  0  0  0  0  0  0  0  0  0  0
    0.3331   -1.4728   -3.0467 C   0  0  0  0  0  0  0  0  0  0  0  0
    2.6924    0.3404   -4.1502 H   0  0  0  0  0  0  0  0  0  0  0  0
    0.6550    0.6514   -3.2607 H   0  0  0  0  0  0  0  0  0  0  0  0
    0.8129   -2.3494   -2.5963 H   0  0  0  0  0  0  0  0  0  0  0  0
   -0.6690   -1.3857   -2.6142 H   0  0  0  0  0  0  0  0  0  0  0  0
    0.2259   -1.6670   -4.1194 H   0  0  0  0  0  0  0  0  0  0  0  0
    0.2019    0.5893   -0.7269 N   0  0  0  0  0  0  0  0  0  0  0  0
    0.1242    0.9059    0.6756 C   0  0  2  0  0  0  0  0  0  0  0  0
   -0.8253    2.0916    0.8163 C   0  0  0  0  0  0  0  0  0  0  0  0
   -1.8393    2.0583    1.5104 O   0  0  0  0  0  0  0  0  0  0  0  0
    1.4957    1.2512    1.2697 C   0  0  0  0  0  0  0  0  0  0  0  0
    2.5007    0.0817    1.2997 C   0  0  0  0  0  0  0  0  0  0  0  0
    3.8669    0.5873    1.7717 C   0  0  0  0  0  0  0  0  0  0  0  0
    2.6455   -0.5973   -0.0629 C   0  0  0  0  0  0  0  0  0  0  0  0
   -0.5975    0.8179   -1.3140 H   0  0  0  0  0  0  0  0  0  0  0  0
   -0.3196    0.0386    1.1748 H   0  0  0  0  0  0  0  0  0  0  0  0
    1.3549    1.6200    2.2955 H   0  0  0  0  0  0  0  0  0  0  0  0
    1.9348    2.0874    0.7095 H   0  0  0  0  0  0  0  0  0  0  0  0
    2.1584   -0.6685    2.0230 H   0  0  0  0  0  0  0  0  0  0  0  0
    4.2610    1.3433    1.0843 H   0  0  0  0  0  0  0  0  0  0  0  0
    4.5916   -0.2327    1.8147 H   0  0  0  0  0  0  0  0  0  0  0  0
    3.8026    1.0362    2.7688 H   0  0  0  0  0  0  0  0  0  0  0  0
    2.9867    0.1113   -0.8253 H   0  0  0  0  0  0  0  0  0  0  0  0
    3.3722   -1.4155   -0.0135 H   0  0  0  0  0  0  0  0  0  0  0  0
    1.6971   -1.0285   -0.3966 H   0  0  0  0  0  0  0  0  0  0  0  0
   -0.3772    3.2032    0.1163 N   0  0  0  0  0  0  0  0  0  0  0  0
   -1.0773    4.4675    0.1042 C   0  0  2  0  0  0  0  0  0  0  0  0
   -1.6161    4.7201    1.5061 C   0  0  0  0  0  0  0  0  0  0  0  0
   -1.8115    3.8213    2.3217 O   0  0  0  0  0  0  0  0  0  0  0  0
   -2.2026    4.4671   -0.9187 C   0  0  0  0  0  0  0  0  0  0  0  0
    0.4894    3.1429   -0.4101 H   0  0  0  0  0  0  0  0  0  0  0  0
   -0.3382    5.2359   -0.1476 H   0  0  0  0  0  0  0  0  0  0  0  0
   -2.9529    3.7035   -0.6830 H   0  0  0  0  0  0  0  0  0  0  0  0
   -2.7137    5.4351   -0.9468 H   0  0  0  0  0  0  0  0  0  0  0  0
   -1.8172    4.2557   -1.9220 H   0  0  0  0  0  0  0  0  0  0  0  0
   -1.8938    6.0622    1.7245 N   0  0  0  0  0  0  0  0  0  0  0  0
   -2.4266    6.5550    2.9732 C   0  0  0  0  0  0  0  0  0  0  0  0
   -1.6829    6.7407    0.9986 H   0  0  0  0  0  0  0  0  0  0  0  0
   -3.5249    6.5817    2.9188 H   0  0  0  0  0  0  0  0  0  0  0  0
   -2.1162    5.8895    3.7922 H   0  0  0  0  0  0  0  0  0  0  0  0
   -2.0441    7.5693    3.1601 H   0  0  0  0  0  0  0  0  0  0  0  0
  1  3  1  0  0  0  0
  1  7  1  0  0  0  0
  1  2  2  0  0  0  0
 37 38  1  0  0  0  0
 38 46  1  0  0  0  0
 38 39  2  0  0  0  0
  8  9  1  0  0  0  0
  9 17  1  0  0  0  0
  9 10  2  0  0  0  0
 18 19  1  0  0  0  0
 19 36  1  0  0  0  0
 19 20  2  0  0  0  0
 37 40  1  0  0  0  0
  8 11  1  0  0  0  0
 22 23  1  0  0  0  0
 22 24  1  0  0  0  0
 46 47  1  0  0  0  0
 18 21  1  0  0  0  0
 21 22  1  0  0  0  0
 36 37  1  0  0  0  0
  7  8  1  0  0  0  0
 17 18  1  0  0  0  0
  3  4  1  0  0  0  0
  3  5  1  0  0  0  0
  3  6  1  0  0  0  0
 40 43  1  0  0  0  0
 40 44  1  0  0  0  0
 40 45  1  0  0  0  0
 11 14  1  0  0  0  0
 11 15  1  0  0  0  0
 11 16  1  0  0  0  0
 23 30  1  0  0  0  0
 23 31  1  0  0  0  0
 23 32  1  0  0  0  0
 24 33  1  0  0  0  0
 24 34  1  0  0  0  0
 24 35  1  0  0  0  0
 47 49  1  0  0  0  0
 47 50  1  0  0  0  0
 47 51  1  0  0  0  0
 21 27  1  0  0  0  0
 21 28  1  0  0  0  0
 37 42  1  0  0  0  0
  8 13  1  0  0  0  0
 18 26  1  0  0  0  0
 22 29  1  0  0  0  0
 46 48  1  0  0  0  0
  7 12  1  0  0  0  0
 36 41  1  0  0  0  0
 17 25  1  0  0  0  0
M  END
$$$$

  -OEChem-05262214473D

 51 50  0     1  0  0  0  0  0999 V2000
    3.4018   -1.2440   -3.0186 C   0  0  0  0  0  0  0  0  0  0  0  0
    3.2697   -2.0909   -2.1427 O   0  0  0  0  0  0  0  0  0  0  0  0
    4.6845   -1.1645   -3.7779 C   0  0  0  0  0  0  0  0  0  0  0  0
    5.4123   -0.4862   -3.3041 H   0  0  0  0  0  0  0  0  0  0  0  0
    5.1949   -2.1387   -3.8443 H   0  0  0  0  0  0  0  0  0  0  0  0
    4.5953   -0.8128   -4.8182 H   0  0  0  0  0  0  0  0  0  0  0  0
    2.4540   -0.3103   -3.4040 N   0  0  0  0  0  0  0  0  0  0  0  0
    1.1494   -0.2128   -2.8039 C   0  0  2  0  0  0  0  0  0  0  0  0
    1.3350    0.0367   -1.3130 C   0  0  0  0  0  0  0  0  0  0  0  0
    2.3625   -0.2586   -0.7063 O   0  0  0  0  0  0  0  0  0  0  0  0
    0.3331   -1.4728   -3.0467 C   0  0  0  0  0  0  0  0  0  0  0  0
    2.6924    0.3404   -4.1502 H   0  0  0  0  0  0  0  0  0  0  0  0
    0.6550    0.6514   -3.2607 H   0  0  0  0  0  0  0  0  0  0  0  0
    0.8129   -2.3494   -2.5963 H   0  0  0  0  0  0  0  0  0  0  0  0
   -0.6690   -1.3857   -2.6142 H   0  0  0  0  0  0  0  0  0  0  0  0
    0.2259   -1.6670   -4.1194 H   0  0  0  0  0  0  0  0  0  0  0  0
    0.2019    0.5893   -0.7269 N   0  0  0  0  0  0  0  0  0  0  0  0
    0.1242    0.9059    0.6756 C   0  0  2  0  0  0  0  0  0  0  0  0
   -0.8253    2.0916    0.8163 C   0  0  0  0  0  0  0  0  0  0  0  0
   -1.6785    2.1647    1.6982 O   0  0  0  0  0  0  0  0  0  0  0  0
    1.4957    1.2512    1.2697 C   0  0  0  0  0  0  0  0  0  0  0  0
    2.5007    0.0817    1.2997 C   0  0  0  0  0  0  0  0  0  0  0  0
    3.8669    0.5873    1.7717 C   0  0  0  0  0  0  0  0  0  0  0  0
    2.6455   -0.5973   -0.0629 C   0  0  0  0  0  0  0  0  0  0  0  0
   -0.5975    0.8179   -1.3140 H   0  0  0  0  0  0  0  0  0  0  0  0
   -0.3196    0.0386    1.1748 H   0  0  0  0  0  0  0  0  0  0  0  0
    1.3549    1.6200    2.2955 H   0  0  0  0  0  0  0  0  0  0  0  0
    1.9348    2.0874    0.7095 H   0  0  0  0  0  0  0  0  0  0  0  0
    2.1584   -0.6685    2.0230 H   0  0  0  0  0  0  0  0  0  0  0  0
    4.2610    1.3433    1.0843 H   0  0  0  0  0  0  0  0  0  0  0  0
    4.5916   -0.2327    1.8147 H   0  0  0  0  0  0  0  0  0  0  0  0
    3.8026    1.0362    2.7688 H   0  0  0  0  0  0  0  0  0  0  0  0
    2.9867    0.1113   -0.8253 H   0  0  0  0  0  0  0  0  0  0  0  0
    3.3722   -1.4155   -0.0135 H   0  0  0  0  0  0  0  0  0  0  0  0
    1.6971   -1.0285   -0.3966 H   0  0  0  0  0  0  0  0  0  0  0  0
   -0.5708    3.0771   -0.1275 N   0  0  0  0  0  0  0  0  0  0  0  0
   -1.3098    4.3171   -0.1975 C   0  0  2  0  0  0  0  0  0  0  0  0
   -1.5682    4.7916    1.2265 C   0  0  0  0  0  0  0  0  0  0  0  0
   -1.5608    4.0369    2.1967 O   0  0  0  0  0  0  0  0  0  0  0  0
   -2.6154    4.1411   -0.9572 C   0  0  0  0  0  0  0  0  0  0  0  0
    0.1752    2.9379   -0.8025 H   0  0  0  0  0  0  0  0  0  0  0  0
   -0.6673    5.0395   -0.7128 H   0  0  0  0  0  0  0  0  0  0  0  0
   -3.2722    3.4209   -0.4559 H   0  0  0  0  0  0  0  0  0  0  0  0
   -3.1604    5.0877   -1.0340 H   0  0  0  0  0  0  0  0  0  0  0  0
   -2.4293    3.7714   -1.9713 H   0  0  0  0  0  0  0  0  0  0  0  0
   -1.8508    6.1493    1.2810 N   0  0  0  0  0  0  0  0  0  0  0  0
   -2.1436    6.8357    2.5176 C   0  0  0  0  0  0  0  0  0  0  0  0
   -1.8163    6.7015    0.4291 H   0  0  0  0  0  0  0  0  0  0  0  0
   -3.2309    6.8450    2.6838 H   0  0  0  0  0  0  0  0  0  0  0  0
   -1.6497    6.3153    3.3514 H   0  0  0  0  0  0  0  0  0  0  0  0
   -1.7728    7.8697    2.4595 H   0  0  0  0  0  0  0  0  0  0  0  0
  1  3  1  0  0  0  0
  1  7  1  0  0  0  0
  1  2  2  0  0  0  0
 37 38  1  0  0  0  0
 38 46  1  0  0  0  0
 38 39  2  0  0  0  0
  8  9  1  0  0  0  0
  9 17  1  0  0  0  0
  9 10  2  0  0  0  0
 18 19  1  0  0  0  0
 19 36  1  0  0  0  0
 19 20  2  0  0  0  0
 37 40  1  0  0  0  0
  8 11  1  0  0  0  0
 22 23  1  0  0  0  0
 22 24  1  0  0  0  0
 46 47  1  0  0  0  0
 18 21  1  0  0  0  0
 21 22  1  0  0  0  0
 36 37  1  0  0  0  0
  7  8  1  0  0  0  0
 17 18  1  0  0  0  0
  3  4  1  0  0  0  0
  3  5  1  0  0  0  0
  3  6  1  0  0  0  0
 40 43  1  0  0  0  0
 40 44  1  0  0  0  0
 40 45  1  0  0  0  0
 11 14  1  0  0  0  0
 11 15  1  0  0  0  0
 11 16  1  0  0  0  0
 23 30  1  0  0  0  0
 23 31  1  0  0  0  0
 23 32  1  0  0  0  0
 24 33  1  0  0  0  0
 24 34  1  0  0  0  0
 24 35  1  0  0  0  0
 47 49  1  0  0  0  0
 47 50  1  0  0  0  0
 47 51  1  0  0  0  0
 21 27  1  0  0  0  0
 21 28  1  0  0  0  0
 37 42  1  0  0  0  0
  8 13  1  0  0  0  0
 18 26  1  0  0  0  0
 22 29  1  0  0  0  0
 46 48  1  0  0  0  0
  7 12  1  0  0  0  0
 36 41  1  0  0  0  0
 17 25  1  0  0  0  0
M  END
$$$$

  -OEChem-05262214473D

 51 50  0     1  0  0  0  0  0999 V2000
    3.4018   -1.2440   -3.0186 C   0  0  0  0  0  0  0  0  0  0  0  0
    3.2697   -2.0909   -2.1427 O   0  0  0  0  0  0  0  0  0  0  0  0
    4.6845   -1.1645   -3.7779 C   0  0  0  0  0  0  0  0  0  0  0  0
    5.4123   -0.4862   -3.3041 H   0  0  0  0  0  0  0  0  0  0  0  0
    5.1949   -2.1387   -3.8443 H   0  0  0  0  0  0  0  0  0  0  0  0
    4.5953   -0.8128   -4.8182 H   0  0  0  0  0  0  0  0  0  0  0  0
    2.4540   -0.3103   -3.4040 N   0  0  0  0  0  0  0  0  0  0  0  0
    1.1494   -0.2128   -2.8039 C   0  0  2  0  0  0  0  0  0  0  0  0
    1.3350    0.0367   -1.3130 C   0  0  0  0  0  0  0  0  0  0  0  0
    2.3625   -0.2586   -0.7063 O   0  0  0  0  0  0  0  0  0  0  0  0
    0.3331   -1.4728   -3.0467 C   0  0  0  0  0  0  0  0  0  0  0  0
    2.6924    0.3404   -4.1502 H   0  0  0  0  0  0  0  0  0  0  0  0
    0.6550    0.6514   -3.2607 H   0  0  0  0  0  0  0  0  0  0  0  0
    0.8129   -2.3494   -2.5963 H   0  0  0  0  0  0  0  0  0  0  0  0
   -0.6690   -1.3857   -2.6142 H   0  0  0  0  0  0  0  0  0  0  0  0
    0.2259   -1.6670   -4.1194 H   0  0  0  0  0  0  0  0  0  0  0  0
    0.2019    0.5893   -0.7269 N   0  0  0  0  0  0  0  0  0  0  0  0
    0.1242    0.9059    0.6756 C   0  0  2  0  0  0  0  0  0  0  0  0
   -0.8253    2.0916    0.8163 C   0  0  0  0  0  0  0  0  0  0  0  0
   -1.4880    2.3017    1.8301 O   0  0  0  0  0  0  0  0  0  0  0  0
    1.4957    1.2512    1.2697 C   0  0  0  0  0  0  0  0  0  0  0  0
    2.5007    0.0817    1.2997 C   0  0  0  0  0  0  0  0  0  0  0  0
    3.8669    0.5873    1.7717 C   0  0  0  0  0  0  0  0  0  0  0  0
    2.6455   -0.5973   -0.0629 C   0  0  0  0  0  0  0  0  0  0  0  0
   -0.5975    0.8179   -1.3140 H   0  0  0  0  0  0  0  0  0  0  0  0
   -0.3196    0.0386    1.1748 H   0  0  0  0  0  0  0  0  0  0  0  0
    1.3549    1.6200    2.2955 H   0  0  0  0  0  0  0  0  0  0  0  0
    1.9348    2.0874    0.7095 H   0  0  0  0  0  0  0  0  0  0  0  0
    2.1584   -0.6685    2.0230 H   0  0  0  0  0  0  0  0  0  0  0  0
    4.2610    1.3433    1.0843 H   0  0  0  0  0  0  0  0  0  0  0  0
    4.5916   -0.2327    1.8147 H   0  0  0  0  0  0  0  0  0  0  0  0
    3.8026    1.0362    2.7688 H   0  0  0  0  0  0  0  0  0  0  0  0
    2.9867    0.1113   -0.8253 H   0  0  0  0  0  0  0  0  0  0  0  0
    3.3722   -1.4155   -0.0135 H   0  0  0  0  0  0  0  0  0  0  0  0
    1.6971   -1.0285   -0.3966 H   0  0  0  0  0  0  0  0  0  0  0  0
   -0.8039    2.9113   -0.3036 N   0  0  0  0  0  0  0  0  0  0  0  0
   -1.5914    4.1178   -0.4178 C   0  0  2  0  0  0  0  0  0  0  0  0
   -1.5800    4.8168    0.9352 C   0  0  0  0  0  0  0  0  0  0  0  0
   -1.3489    4.2310    1.9909 O   0  0  0  0  0  0  0  0  0  0  0  0
   -3.0140    3.8103   -0.8588 C   0  0  0  0  0  0  0  0  0  0  0  0
   -0.2023    2.6692   -1.0853 H   0  0  0  0  0  0  0  0  0  0  0  0
   -1.0942    4.7508   -1.1608 H   0  0  0  0  0  0  0  0  0  0  0  0
   -3.5282    3.1769   -0.1267 H   0  0  0  0  0  0  0  0  0  0  0  0
   -3.6012    4.7275   -0.9725 H   0  0  0  0  0  0  0  0  0  0  0  0
   -3.0190    3.2811   -1.8178 H   0  0  0  0  0  0  0  0  0  0  0  0
   -1.9006    6.1630    0.8299 N   0  0  0  0  0  0  0  0  0  0  0  0
   -1.9686    7.0402    1.9753 C   0  0  0  0  0  0  0  0  0  0  0  0
   -2.0588    6.5687   -0.0878 H   0  0  0  0  0  0  0  0  0  0  0  0
   -3.0005    7.0685    2.3553 H   0  0  0  0  0  0  0  0  0  0  0  0
   -1.2979    6.6668    2.7632 H   0  0  0  0  0  0  0  0  0  0  0  0
   -1.6588    8.0535    1.6798 H   0  0  0  0  0  0  0  0  0  0  0  0
  1  3  1  0  0  0  0
  1  7  1  0  0  0  0
  1  2  2  0  0  0  0
 37 38  1  0  0  0  0
 38 46  1  0  0  0  0
 38 39  2  0  0  0  0
  8  9  1  0  0  0  0
  9 17  1  0  0  0  0
  9 10  2  0  0  0  0
 18 19  1  0  0  0  0
 19 36  1  0  0  0  0
 19 20  2  0  0  0  0
 37 40  1  0  0  0  0
  8 11  1  0  0  0  0
 22 23  1  0  0  0  0
 22 24  1  0  0  0  0
 46 47  1  0  0  0  0
 18 21  1  0  0  0  0
 21 22  1  0  0  0  0
 36 37  1  0  0  0  0
  7  8  1  0  0  0  0
 17 18  1  0  0  0  0
  3  4  1  0  0  0  0
  3  5  1  0  0  0  0
  3  6  1  0  0  0  0
 40 43  1  0  0  0  0
 40 44  1  0  0  0  0
 40 45  1  0  0  0  0
 11 14  1  0  0  0  0
 11 15  1  0  0  0  0
 11 16  1  0  0  0  0
 23 30  1  0  0  0  0
 23 31  1  0  0  0  0
 23 32  1  0  0  0  0
 24 33  1  0  0  0  0
 24 34  1  0  0  0  0
 24 35  1  0  0  0  0
 47 49  1  0  0  0  0
 47 50  1  0  0  0  0
 47 51  1  0  0  0  0
 21 27  1  0  0  0  0
 21 28  1  0  0  0  0
 37 42  1  0  0  0  0
  8 13  1  0  0  0  0
 18 26  1  0  0  0  0
 22 29  1  0  0  0  0
 46 48  1  0  0  0  0
  7 12  1  0  0  0  0
 36 41  1  0  0  0  0
 17 25  1  0  0  0  0
M  END
$$$$

  -OEChem-05262214473D

 51 50  0     1  0  0  0  0  0999 V2000
    3.4018   -1.2440   -3.0186 C   0  0  0  0  0  0  0  0  0  0  0  0
    3.2697   -2.0909   -2.1427 O   0  0  0  0  0  0  0  0  0  0  0  0
    4.6845   -1.1645   -3.7779 C   0  0  0  0  0  0  0  0  0  0  0  0
    5.4123   -0.4862   -3.3041 H   0  0  0  0  0  0  0  0  0  0  0  0
    5.1949   -2.1387   -3.8443 H   0  0  0  0  0  0  0  0  0  0  0  0
    4.5953   -0.8128   -4.8182 H   0  0  0  0  0  0  0  0  0  0  0  0
    2.4540   -0.3103   -3.4040 N   0  0  0  0  0  0  0  0  0  0  0  0
    1.1494   -0.2128   -2.8039 C   0  0  2  0  0  0  0  0  0  0  0  0
    1.3350    0.0367   -1.3130 C   0  0  0  0  0  0  0  0  0  0  0  0
    2.3625   -0.2586   -0.7063 O   0  0  0  0  0  0  0  0  0  0  0  0
    0.3331   -1.4728   -3.0467 C   0  0  0  0  0  0  0  0  0  0  0  0
    2.6924    0.3404   -4.1502 H   0  0  0  0  0  0  0  0  0  0  0  0
    0.6550    0.6514   -3.2607 H   0  0  0  0  0  0  0  0  0  0  0  0
    0.8129   -2.3494   -2.5963 H   0  0  0  0  0  0  0  0  0  0  0  0
   -0.6690   -1.3857   -2.6142 H   0  0  0  0  0  0  0  0  0  0  0  0
    0.2259   -1.6670   -4.1194 H   0  0  0  0  0  0  0  0  0  0  0  0
    0.2019    0.5893   -0.7269 N   0  0  0  0  0  0  0  0  0  0  0  0
    0.1242    0.9059    0.6756 C   0  0  2  0  0  0  0  0  0  0  0  0
   -0.8253    2.0916    0.8163 C   0  0  0  0  0  0  0  0  0  0  0  0
   -1.2806    2.4597    1.8972 O   0  0  0  0  0  0  0  0  0  0  0  0
    1.4957    1.2512    1.2697 C   0  0  0  0  0  0  0  0  0  0  0  0
    2.5007    0.0817    1.2997 C   0  0  0  0  0  0  0  0  0  0  0  0
    3.8669    0.5873    1.7717 C   0  0  0  0  0  0  0  0  0  0  0  0
    2.6455   -0.5973   -0.0629 C   0  0  0  0  0  0  0  0  0  0  0  0
   -0.5975    0.8179   -1.3140 H   0  0  0  0  0  0  0  0  0  0  0  0
   -0.3196    0.0386    1.1748 H   0  0  0  0  0  0  0  0  0  0  0  0
    1.3549    1.6200    2.2955 H   0  0  0  0  0  0  0  0  0  0  0  0
    1.9348    2.0874    0.7095 H   0  0  0  0  0  0  0  0  0  0  0  0
    2.1584   -0.6685    2.0230 H   0  0  0  0  0  0  0  0  0  0  0  0
    4.2610    1.3433    1.0843 H   0  0  0  0  0  0  0  0  0  0  0  0
    4.5916   -0.2327    1.8147 H   0  0  0  0  0  0  0  0  0  0  0  0
    3.8026    1.0362    2.7688 H   0  0  0  0  0  0  0  0  0  0  0  0
    2.9867    0.1113   -0.8253 H   0  0  0  0  0  0  0  0  0  0  0  0
    3.3722   -1.4155   -0.0135 H   0  0  0  0  0  0  0  0  0  0  0  0
    1.6971   -1.0285   -0.3966 H   0  0  0  0  0  0  0  0  0  0  0  0
   -1.0605    2.7173   -0.4001 N   0  0  0  0  0  0  0  0  0  0  0  0
   -1.9031    3.8830   -0.5419 C   0  0  2  0  0  0  0  0  0  0  0  0
   -1.6505    4.7939    0.6522 C   0  0  0  0  0  0  0  0  0  0  0  0
   -1.1903    4.3903    1.7182 O   0  0  0  0  0  0  0  0  0  0  0  0
   -3.3714    3.4970   -0.6302 C   0  0  0  0  0  0  0  0  0  0  0  0
   -0.6175    2.3550   -1.2392 H   0  0  0  0  0  0  0  0  0  0  0  0
   -1.5898    4.3897   -1.4613 H   0  0  0  0  0  0  0  0  0  0  0  0
   -3.7035    2.9880    0.2820 H   0  0  0  0  0  0  0  0  0  0  0  0
   -4.0060    4.3789   -0.7663 H   0  0  0  0  0  0  0  0  0  0  0  0
   -3.5460    2.8181   -1.4719 H   0  0  0  0  0  0  0  0  0  0  0  0
   -2.0397    6.1023    0.4020 N   0  0  0  0  0  0  0  0  0  0  0  0
   -1.9135    7.1545    1.3833 C   0  0  0  0  0  0  0  0  0  0  0  0
   -2.3938    6.3513   -0.5169 H   0  0  0  0  0  0  0  0  0  0  0  0
   -2.8493    7.2370    1.9556 H   0  0  0  0  0  0  0  0  0  0  0  0
   -1.0848    6.9200    2.0676 H   0  0  0  0  0  0  0  0  0  0  0  0
   -1.7100    8.1081    0.8742 H   0  0  0  0  0  0  0  0  0  0  0  0
  1  3  1  0  0  0  0
  1  7  1  0  0  0  0
  1  2  2  0  0  0  0
 37 38  1  0  0  0  0
 38 46  1  0  0  0  0
 38 39  2  0  0  0  0
  8  9  1  0  0  0  0
  9 17  1  0  0  0  0
  9 10  2  0  0  0  0
 18 19  1  0  0  0  0
 19 36  1  0  0  0  0
 19 20  2  0  0  0  0
 37 40  1  0  0  0  0
  8 11  1  0  0  0  0
 22 23  1  0  0  0  0
 22 24  1  0  0  0  0
 46 47  1  0  0  0  0
 18 21  1  0  0  0  0
 21 22  1  0  0  0  0
 36 37  1  0  0  0  0
  7  8  1  0  0  0  0
 17 18  1  0  0  0  0
  3  4  1  0  0  0  0
  3  5  1  0  0  0  0
  3  6  1  0  0  0  0
 40 43  1  0  0  0  0
 40 44  1  0  0  0  0
 40 45  1  0  0  0  0
 11 14  1  0  0  0  0
 11 15  1  0  0  0  0
 11 16  1  0  0  0  0
 23 30  1  0  0  0  0
 23 31  1  0  0  0  0
 23 32  1  0  0  0  0
 24 33  1  0  0  0  0
 24 34  1  0  0  0  0
 24 35  1  0  0  0  0
 47 49  1  0  0  0  0
 47 50  1  0  0  0  0
 47 51  1  0  0  0  0
 21 27  1  0  0  0  0
 21 28  1  0  0  0  0
 37 42  1  0  0  0  0
  8 13  1  0  0  0  0
 18 26  1  0  0  0  0
 22 29  1  0  0  0  0
 46 48  1  0  0  0  0
  7 12  1  0  0  0  0
 36 41  1  0  0  0  0
 17 25  1  0  0  0  0
M  END
$$$$

  -OEChem-05262214473D

 51 50  0     1  0  0  0  0  0999 V2000
    3.4018   -1.2440   -3.0186 C   0  0  0  0  0  0  0  0  0  0  0  0
    3.2697   -2.0909   -2.1427 O   0  0  0  0  0  0  0  0  0  0  0  0
    4.6845   -1.1645   -3.7779 C   0  0  0  0  0  0  0  0  0  0  0  0
    5.4123   -0.4862   -3.3041 H   0  0  0  0  0  0  0  0  0  0  0  0
    5.1949   -2.1387   -3.8443 H   0  0  0  0  0  0  0  0  0  0  0  0
    4.5953   -0.8128   -4.8182 H   0  0  0  0  0  0  0  0  0  0  0  0
    2.4540   -0.3103   -3.4040 N   0  0  0  0  0  0  0  0  0  0  0  0
    1.1494   -0.2128   -2.8039 C   0  0  2  0  0  0  0  0  0  0  0  0
    1.3350    0.0367   -1.3130 C   0  0  0  0  0  0  0  0  0  0  0  0
    2.3625   -0.2586   -0.7063 O   0  0  0  0  0  0  0  0  0  0  0  0
    0.3331   -1.4728   -3.0467 C   0  0  0  0  0  0  0  0  0  0  0  0
    2.6924    0.3404   -4.1502 H   0  0  0  0  0  0  0  0  0  0  0  0
    0.6550    0.6514   -3.2607 H   0  0  0  0  0  0  0  0  0  0  0  0
    0.8129   -2.3494   -2.5963 H   0  0  0  0  0  0  0  0  0  0  0  0
   -0.6690   -1.3857   -2.6142 H   0  0  0  0  0  0  0  0  0  0  0  0
    0.2259   -1.6670   -4.1194 H   0  0  0  0  0  0  0  0  0  0  0  0
    0.2019    0.5893   -0.7269 N   0  0  0  0  0  0  0  0  0  0  0  0
    0.1242    0.9059    0.6756 C   0  0  2  0  0  0  0  0  0  0  0  0
   -0.8253    2.0916    0.8163 C   0  0  0  0  0  0  0  0  0  0  0  0
   -1.0706    2.6281    1.8948 O   0  0  0  0  0  0  0  0  0  0  0  0
    1.4957    1.2512    1.2697 C   0  0  0  0  0  0  0  0  0  0  0  0
    2.5007    0.0817    1.2997 C   0  0  0  0  0  0  0  0  0  0  0  0
    3.8669    0.5873    1.7717 C   0  0  0  0  0  0  0  0  0  0  0  0
    2.6455   -0.5973   -0.0629 C   0  0  0  0  0  0  0  0  0  0  0  0
   -0.5975    0.8179   -1.3140 H   0  0  0  0  0  0  0  0  0  0  0  0
   -0.3196    0.0386    1.1748 H   0  0  0  0  0  0  0  0  0  0  0  0
    1.3549    1.6200    2.2955 H   0  0  0  0  0  0  0  0  0  0  0  0
    1.9348    2.0874    0.7095 H   0  0  0  0  0  0  0  0  0  0  0  0
    2.1584   -0.6685    2.0230 H   0  0  0  0  0  0  0  0  0  0  0  0
    4.2610    1.3433    1.0843 H   0  0  0  0  0  0  0  0  0  0  0  0
    4.5916   -0.2327    1.8147 H   0  0  0  0  0  0  0  0  0  0  0  0
    3.8026    1.0362    2.7688 H   0  0  0  0  0  0  0  0  0  0  0  0
    2.9867    0.1113   -0.8253 H   0  0  0  0  0  0  0  0  0  0  0  0
    3.3722   -1.4155   -0.0135 H   0  0  0  0  0  0  0  0  0  0  0  0
    1.6971   -1.0285   -0.3966 H   0  0  0  0  0  0  0  0  0  0  0  0
   -1.3232    2.5082   -0.4105 N   0  0  0  0  0  0  0  0  0  0  0  0
   -2.2234    3.6287   -0.5613 C   0  0  2  0  0  0  0  0  0  0  0  0
   -1.7750    4.7245    0.3967 C   0  0  0  0  0  0  0  0  0  0  0  0
   -1.0958    4.5041    1.3973 O   0  0  0  0  0  0  0  0  0  0  0  0
   -3.6631    3.2227   -0.2871 C   0  0  0  0  0  0  0  0  0  0  0  0
   -1.0419    2.0169   -1.2538 H   0  0  0  0  0  0  0  0  0  0  0  0
   -2.1203    3.9806   -1.5936 H   0  0  0  0  0  0  0  0  0  0  0  0
   -3.7860    2.8673    0.7425 H   0  0  0  0  0  0  0  0  0  0  0  0
   -4.3471    4.0658   -0.4296 H   0  0  0  0  0  0  0  0  0  0  0  0
   -3.9743    2.4140   -0.9572 H   0  0  0  0  0  0  0  0  0  0  0  0
   -2.2588    5.9715    0.0264 N   0  0  0  0  0  0  0  0  0  0  0  0
   -1.9822    7.1709    0.7821 C   0  0  0  0  0  0  0  0  0  0  0  0
   -2.7986    6.0642   -0.8290 H   0  0  0  0  0  0  0  0  0  0  0  0
   -2.7877    7.3389    1.5120 H   0  0  0  0  0  0  0  0  0  0  0  0
   -1.0250    7.0576    1.3121 H   0  0  0  0  0  0  0  0  0  0  0  0
   -1.9228    8.0299    0.0975 H   0  0  0  0  0  0  0  0  0  0  0  0
  1  3  1  0  0  0  0
  1  7  1  0  0  0  0
  1  2  2  0  0  0  0
 37 38  1  0  0  0  0
 38 46  1  0  0  0  0
 38 39  2  0  0  0  0
  8  9  1  0  0  0  0
  9 17  1  0  0  0  0
  9 10  2  0  0  0  0
 18 19  1  0  0  0  0
 19 36  1  0  0  0  0
 19 20  2  0  0  0  0
 37 40  1  0  0  0  0
  8 11  1  0  0  0  0
 22 23  1  0  0  0  0
 22 24  1  0  0  0  0
 46 47  1  0  0  0  0
 18 21  1  0  0  0  0
 21 22  1  0  0  0  0
 36 37  1  0  0  0  0
  7  8  1  0  0  0  0
 17 18  1  0  0  0  0
  3  4  1  0  0  0  0
  3  5  1  0  0  0  0
  3  6  1  0  0  0  0
 40 43  1  0  0  0  0
 40 44  1  0  0  0  0
 40 45  1  0  0  0  0
 11 14  1  0  0  0  0
 11 15  1  0  0  0  0
 11 16  1  0  0  0  0
 23 30  1  0  0  0  0
 23 31  1  0  0  0  0
 23 32  1  0  0  0  0
 24 33  1  0  0  0  0
 24 34  1  0  0  0  0
 24 35  1  0  0  0  0
 47 49  1  0  0  0  0
 47 50  1  0  0  0  0
 47 51  1  0  0  0  0
 21 27  1  0  0  0  0
 21 28  1  0  0  0  0
 37 42  1  0  0  0  0
  8 13  1  0  0  0  0
 18 26  1  0  0  0  0
 22 29  1  0  0  0  0
 46 48  1  0  0  0  0
  7 12  1  0  0  0  0
 36 41  1  0  0  0  0
 17 25  1  0  0  0  0
M  END
$$$$

  -OEChem-05262214473D

 51 50  0     1  0  0  0  0  0999 V2000
    3.4018   -1.2440   -3.0186 C   0  0  0  0  0  0  0  0  0  0  0  0
    3.2697   -2.0909   -2.1427 O   0  0  0  0  0  0  0  0  0  0  0  0
    4.6845   -1.1645   -3.7779 C   0  0  0  0  0  0  0  0  0  0  0  0
    5.4123   -0.4862   -3.3041 H   0  0  0  0  0  0  0  0  0  0  0  0
    5.1949   -2.1387   -3.8443 H   0  0  0  0  0  0  0  0  0  0  0  0
    4.5953   -0.8128   -4.8182 H   0  0  0  0  0  0  0  0  0  0  0  0
    2.4540   -0.3103   -3.4040 N   0  0  0  0  0  0  0  0  0  0  0  0
    1.1494   -0.2128   -2.8039 C   0  0  2  0  0  0  0  0  0  0  0  0
    1.3350    0.0367   -1.3130 C   0  0  0  0  0  0  0  0  0  0  0  0
    2.3625   -0.2586   -0.7063 O   0  0  0  0  0  0  0  0  0  0  0  0
    0.3331   -1.4728   -3.0467 C   0  0  0  0  0  0  0  0  0  0  0  0
    2.6924    0.3404   -4.1502 H   0  0  0  0  0  0  0  0  0  0  0  0
    0.6550    0.6514   -3.2607 H   0  0  0  0  0  0  0  0  0  0  0  0
    0.8129   -2.3494   -2.5963 H   0  0  0  0  0  0  0  0  0  0  0  0
   -0.6690   -1.3857   -2.6142 H   0  0  0  0  0  0  0  0  0  0  0  0
    0.2259   -1.6670   -4.1194 H   0  0  0  0  0  0  0  0  0  0  0  0
    0.2019    0.5893   -0.7269 N   0  0  0  0  0  0  0  0  0  0  0  0
    0.1242    0.9059    0.6756 C   0  0  2  0  0  0  0  0  0  0  0  0
   -0.8253    2.0916    0.8163 C   0  0  0  0  0  0  0  0  0  0  0  0
   -0.8723    2.7954    1.8231 O   0  0  0  0  0  0  0  0  0  0  0  0
    1.4957    1.2512    1.2697 C   0  0  0  0  0  0  0  0  0  0  0  0
    2.5007    0.0817    1.2997 C   0  0  0  0  0  0  0  0  0  0  0  0
    3.8669    0.5873    1.7717 C   0  0  0  0  0  0  0  0  0  0  0  0
    2.6455   -0.5973   -0.0629 C   0  0  0  0  0  0  0  0  0  0  0  0
   -0.5975    0.8179   -1.3140 H   0  0  0  0  0  0  0  0  0  0  0  0
   -0.3196    0.0386    1.1748 H   0  0  0  0  0  0  0  0  0  0  0  0
    1.3549    1.6200    2.2955 H   0  0  0  0  0  0  0  0  0  0  0  0
    1.9348    2.0874    0.7095 H   0  0  0  0  0  0  0  0  0  0  0  0
    2.1584   -0.6685    2.0230 H   0  0  0  0  0  0  0  0  0  0  0  0
    4.2610    1.3433    1.0843 H   0  0  0  0  0  0  0  0  0  0  0  0
    4.5916   -0.2327    1.8147 H   0  0  0  0  0  0  0  0  0  0  0  0
    3.8026    1.0362    2.7688 H   0  0  0  0  0  0  0  0  0  0  0  0
    2.9867    0.1113   -0.8253 H   0  0  0  0  0  0  0  0  0  0  0  0
    3.3722   -1.4155   -0.0135 H   0  0  0  0  0  0  0  0  0  0  0  0
    1.6971   -1.0285   -0.3966 H   0  0  0  0  0  0  0  0  0  0  0  0
   -1.5740    2.2983   -0.3340 N   0  0  0  0  0  0  0  0  0  0  0  0
   -2.5307    3.3724   -0.4746 C   0  0  2  0  0  0  0  0  0  0  0  0
   -1.9451    4.6134    0.1861 C   0  0  0  0  0  0  0  0  0  0  0  0
   -1.0718    4.5646    1.0499 O   0  0  0  0  0  0  0  0  0  0  0  0
   -3.8693    3.0060    0.1472 C   0  0  0  0  0  0  0  0  0  0  0  0
   -1.4468    1.6778   -1.1280 H   0  0  0  0  0  0  0  0  0  0  0  0
   -2.6496    3.5515   -1.5488 H   0  0  0  0  0  0  0  0  0  0  0  0
   -3.7702    2.8229    1.2233 H   0  0  0  0  0  0  0  0  0  0  0  0
   -4.6015    3.8094    0.0147 H   0  0  0  0  0  0  0  0  0  0  0  0
   -4.2749    2.0964   -0.3088 H   0  0  0  0  0  0  0  0  0  0  0  0
   -2.5428    5.7794   -0.2712 N   0  0  0  0  0  0  0  0  0  0  0  0
   -2.1698    7.0882    0.2125 C   0  0  0  0  0  0  0  0  0  0  0  0
   -3.2455    5.7270   -1.0028 H   0  0  0  0  0  0  0  0  0  0  0  0
   -2.8199    7.3674    1.0547 H   0  0  0  0  0  0  0  0  0  0  0  0
   -1.1224    7.0702    0.5481 H   0  0  0  0  0  0  0  0  0  0  0  0
   -2.2827    7.8241   -0.5973 H   0  0  0  0  0  0  0  0  0  0  0  0
  1  3  1  0  0  0  0
  1  7  1  0  0  0  0
  1  2  2  0  0  0  0
 37 38  1  0  0  0  0
 38 46  1  0  0  0  0
 38 39  2  0  0  0  0
  8  9  1  0  0  0  0
  9 17  1  0  0  0  0
  9 10  2  0  0  0  0
 18 19  1  0  0  0  0
 19 36  1  0  0  0  0
 19 20  2  0  0  0  0
 37 40  1  0  0  0  0
  8 11  1  0  0  0  0
 22 23  1  0  0  0  0
 22 24  1  0  0  0  0
 46 47  1  0  0  0  0
 18 21  1  0  0  0  0
 21 22  1  0  0  0  0
 36 37  1  0  0  0  0
  7  8  1  0  0  0  0
 17 18  1  0  0  0  0
  3  4  1  0  0  0  0
  3  5  1  0  0  0  0
  3  6  1  0  0  0  0
 40 43  1  0  0  0  0
 40 44  1  0  0  0  0
 40 45  1  0  0  0  0
 11 14  1  0  0  0  0
 11 15  1  0  0  0  0
 11 16  1  0  0  0  0
 23 30  1  0  0  0  0
 23 31  1  0  0  0  0
 23 32  1  0  0  0  0
 24 33  1  0  0  0  0
 24 34  1  0  0  0  0
 24 35  1  0  0  0  0
 47 49  1  0  0  0  0
 47 50  1  0  0  0  0
 47 51  1  0  0  0  0
 21 27  1  0  0  0  0
 21 28  1  0  0  0  0
 37 42  1  0  0  0  0
  8 13  1  0  0  0  0
 18 26  1  0  0  0  0
 22 29  1  0  0  0  0
 46 48  1  0  0  0  0
  7 12  1  0  0  0  0
 36 41  1  0  0  0  0
 17 25  1  0  0  0  0
M  END
$$$$

  -OEChem-05262214473D

 51 50  0     1  0  0  0  0  0999 V2000
    3.4018   -1.2440   -3.0186 C   0  0  0  0  0  0  0  0  0  0  0  0
    3.2697   -2.0909   -2.1427 O   0  0  0  0  0  0  0  0  0  0  0  0
    4.6845   -1.1645   -3.7779 C   0  0  0  0  0  0  0  0  0  0  0  0
    5.4123   -0.4862   -3.3041 H   0  0  0  0  0  0  0  0  0  0  0  0
    5.1949   -2.1387   -3.8443 H   0  0  0  0  0  0  0  0  0  0  0  0
    4.5953   -0.8128   -4.8182 H   0  0  0  0  0  0  0  0  0  0  0  0
    2.4540   -0.3103   -3.4040 N   0  0  0  0  0  0  0  0  0  0  0  0
    1.1494   -0.2128   -2.8039 C   0  0  2  0  0  0  0  0  0  0  0  0
    1.3350    0.0367   -1.3130 C   0  0  0  0  0  0  0  0  0  0  0  0
    2.3625   -0.2586   -0.7063 O   0  0  0  0  0  0  0  0  0  0  0  0
    0.3331   -1.4728   -3.0467 C   0  0  0  0  0  0  0  0  0  0  0  0
    2.6924    0.3404   -4.1502 H   0  0  0  0  0  0  0  0  0  0  0  0
    0.6550    0.6514   -3.2607 H   0  0  0  0  0  0  0  0  0  0  0  0
    0.8129   -2.3494   -2.5963 H   0  0  0  0  0  0  0  0  0  0  0  0
   -0.6690   -1.3857   -2.6142 H   0  0  0  0  0  0  0  0  0  0  0  0
    0.2259   -1.6670   -4.1194 H   0  0  0  0  0  0  0  0  0  0  0  0
    0.2019    0.5893   -0.7269 N   0  0  0  0  0  0  0  0  0  0  0  0
    0.1242    0.9059    0.6756 C   0  0  2  0  0  0  0  0  0  0  0  0
   -0.8253    2.0916    0.8163 C   0  0  0  0  0  0  0  0  0  0  0  0
   -0.6992    2.9502    1.6869 O   0  0  0  0  0  0  0  0  0  0  0  0
    1.4957    1.2512    1.2697 C   0  0  0  0  0  0  0  0  0  0  0  0
    2.5007    0.0817    1.2997 C   0  0  0  0  0  0  0  0  0  0  0  0
    3.8669    0.5873    1.7717 C   0  0  0  0  0  0  0  0  0  0  0  0
    2.6455   -0.5973   -0.0629 C   0  0  0  0  0  0  0  0  0  0  0  0
   -0.5975    0.8179   -1.3140 H   0  0  0  0  0  0  0  0  0  0  0  0
   -0.3196    0.0386    1.1748 H   0  0  0  0  0  0  0  0  0  0  0  0
    1.3549    1.6200    2.2955 H   0  0  0  0  0  0  0  0  0  0  0  0
    1.9348    2.0874    0.7095 H   0  0  0  0  0  0  0  0  0  0  0  0
    2.1584   -0.6685    2.0230 H   0  0  0  0  0  0  0  0  0  0  0  0
    4.2610    1.3433    1.0843 H   0  0  0  0  0  0  0  0  0  0  0  0
    4.5916   -0.2327    1.8147 H   0  0  0  0  0  0  0  0  0  0  0  0
    3.8026    1.0362    2.7688 H   0  0  0  0  0  0  0  0  0  0  0  0
    2.9867    0.1113   -0.8253 H   0  0  0  0  0  0  0  0  0  0  0  0
    3.3722   -1.4155   -0.0135 H   0  0  0  0  0  0  0  0  0  0  0  0
    1.6971   -1.0285   -0.3966 H   0  0  0  0  0  0  0  0  0  0  0  0
   -1.7959    2.1019   -0.1758 N   0  0  0  0  0  0  0  0  0  0  0  0
   -2.8040    3.1314   -0.2878 C   0  0  2  0  0  0  0  0  0  0  0  0
   -2.1490    4.4680    0.0348 C   0  0  0  0  0  0  0  0  0  0  0  0
   -1.1199    4.5676    0.6997 O   0  0  0  0  0  0  0  0  0  0  0  0
   -3.9760    2.8618    0.6431 C   0  0  0  0  0  0  0  0  0  0  0  0
   -1.8044    1.3609   -0.8704 H   0  0  0  0  0  0  0  0  0  0  0  0
   -3.1415    3.1316   -1.3299 H   0  0  0  0  0  0  0  0  0  0  0  0
   -3.6571    2.8578    1.6918 H   0  0  0  0  0  0  0  0  0  0  0  0
   -4.7517    3.6272    0.5363 H   0  0  0  0  0  0  0  0  0  0  0  0
   -4.4272    1.8869    0.4292 H   0  0  0  0  0  0  0  0  0  0  0  0
   -2.8724    5.5392   -0.4706 N   0  0  0  0  0  0  0  0  0  0  0  0
   -2.4637    6.9121   -0.2867 C   0  0  0  0  0  0  0  0  0  0  0  0
   -3.7040    5.3626   -1.0265 H   0  0  0  0  0  0  0  0  0  0  0  0
   -2.9437    7.3205    0.6149 H   0  0  0  0  0  0  0  0  0  0  0  0
   -1.3706    6.9570   -0.1722 H   0  0  0  0  0  0  0  0  0  0  0  0
   -2.7652    7.5049   -1.1629 H   0  0  0  0  0  0  0  0  0  0  0  0
  1  3  1  0  0  0  0
  1  7  1  0  0  0  0
  1  2  2  0  0  0  0
 37 38  1  0  0  0  0
 38 46  1  0  0  0  0
 38 39  2  0  0  0  0
  8  9  1  0  0  0  0
  9 17  1  0  0  0  0
  9 10  2  0  0  0  0
 18 19  1  0  0  0  0
 19 36  1  0  0  0  0
 19 20  2  0  0  0  0
 37 40  1  0  0  0  0
  8 11  1  0  0  0  0
 22 23  1  0  0  0  0
 22 24  1  0  0  0  0
 46 47  1  0  0  0  0
 18 21  1  0  0  0  0
 21 22  1  0  0  0  0
 36 37  1  0  0  0  0
  7  8  1  0  0  0  0
 17 18  1  0  0  0  0
  3  4  1  0  0  0  0
  3  5  1  0  0  0  0
  3  6  1  0  0  0  0
 40 43  1  0  0  0  0
 40 44  1  0  0  0  0
 40 45  1  0  0  0  0
 11 14  1  0  0  0  0
 11 15  1  0  0  0  0
 11 16  1  0  0  0  0
 23 30  1  0  0  0  0
 23 31  1  0  0  0  0
 23 32  1  0  0  0  0
 24 33  1  0  0  0  0
 24 34  1  0  0  0  0
 24 35  1  0  0  0  0
 47 49  1  0  0  0  0
 47 50  1  0  0  0  0
 47 51  1  0  0  0  0
 21 27  1  0  0  0  0
 21 28  1  0  0  0  0
 37 42  1  0  0  0  0
  8 13  1  0  0  0  0
 18 26  1  0  0  0  0
 22 29  1  0  0  0  0
 46 48  1  0  0  0  0
  7 12  1  0  0  0  0
 36 41  1  0  0  0  0
 17 25  1  0  0  0  0
M  END
$$$$

  -OEChem-05262214473D

 51 50  0     1  0  0  0  0  0999 V2000
    3.4018   -1.2440   -3.0186 C   0  0  0  0  0  0  0  0  0  0  0  0
    3.2697   -2.0909   -2.1427 O   0  0  0  0  0  0  0  0  0  0  0  0
    4.6845   -1.1645   -3.7779 C   0  0  0  0  0  0  0  0  0  0  0  0
    5.4123   -0.4862   -3.3041 H   0  0  0  0  0  0  0  0  0  0  0  0
    5.1949   -2.1387   -3.8443 H   0  0  0  0  0  0  0  0  0  0  0  0
    4.5953   -0.8128   -4.8182 H   0  0  0  0  0  0  0  0  0  0  0  0
    2.4540   -0.3103   -3.4040 N   0  0  0  0  0  0  0  0  0  0  0  0
    1.1494   -0.2128   -2.8039 C   0  0  2  0  0  0  0  0  0  0  0  0
    1.3350    0.0367   -1.3130 C   0  0  0  0  0  0  0  0  0  0  0  0
    2.3625   -0.2586   -0.7063 O   0  0  0  0  0  0  0  0  0  0  0  0
    0.3331   -1.4728   -3.0467 C   0  0  0  0  0  0  0  0  0  0  0  0
    2.6924    0.3404   -4.1502 H   0  0  0  0  0  0  0  0  0  0  0  0
    0.6550    0.6514   -3.2607 H   0  0  0  0  0  0  0  0  0  0  0  0
    0.8129   -2.3494   -2.5963 H   0  0  0  0  0  0  0  0  0  0  0  0
   -0.6690   -1.3857   -2.6142 H   0  0  0  0  0  0  0  0  0  0  0  0
    0.2259   -1.6670   -4.1194 H   0  0  0  0  0  0  0  0  0  0  0  0
    0.2019    0.5893   -0.7269 N   0  0  0  0  0  0  0  0  0  0  0  0
    0.1242    0.9059    0.6756 C   0  0  2  0  0  0  0  0  0  0  0  0
   -0.8253    2.0916    0.8163 C   0  0  0  0  0  0  0  0  0  0  0  0
   -0.5630    3.0820    1.4957 O   0  0  0  0  0  0  0  0  0  0  0  0
    1.4957    1.2512    1.2697 C   0  0  0  0  0  0  0  0  0  0  0  0
    2.5007    0.0817    1.2997 C   0  0  0  0  0  0  0  0  0  0  0  0
    3.8669    0.5873    1.7717 C   0  0  0  0  0  0  0  0  0  0  0  0
    2.6455   -0.5973   -0.0629 C   0  0  0  0  0  0  0  0  0  0  0  0
   -0.5975    0.8179   -1.3140 H   0  0  0  0  0  0  0  0  0  0  0  0
   -0.3196    0.0386    1.1748 H   0  0  0  0  0  0  0  0  0  0  0  0
    1.3549    1.6200    2.2955 H   0  0  0  0  0  0  0  0  0  0  0  0
    1.9348    2.0874    0.7095 H   0  0  0  0  0  0  0  0  0  0  0  0
    2.1584   -0.6685    2.0230 H   0  0  0  0  0  0  0  0  0  0  0  0
    4.2610    1.3433    1.0843 H   0  0  0  0  0  0  0  0  0  0  0  0
    4.5916   -0.2327    1.8147 H   0  0  0  0  0  0  0  0  0  0  0  0
    3.8026    1.0362    2.7688 H   0  0  0  0  0  0  0  0  0  0  0  0
    2.9867    0.1113   -0.8253 H   0  0  0  0  0  0  0  0  0  0  0  0
    3.3722   -1.4155   -0.0135 H   0  0  0  0  0  0  0  0  0  0  0  0
    1.6971   -1.0285   -0.3966 H   0  0  0  0  0  0  0  0  0  0  0  0
   -1.9737    1.9324    0.0532 N   0  0  0  0  0  0  0  0  0  0  0  0
   -3.0246    2.9222   -0.0135 C   0  0  2  0  0  0  0  0  0  0  0  0
   -2.3729    4.2984   -0.0469 C   0  0  0  0  0  0  0  0  0  0  0  0
   -1.2369    4.5130    0.3708 O   0  0  0  0  0  0  0  0  0  0  0  0
   -3.9758    2.7998    1.1667 C   0  0  0  0  0  0  0  0  0  0  0  0
   -2.0905    1.0877   -0.4986 H   0  0  0  0  0  0  0  0  0  0  0  0
   -3.5627    2.7495   -0.9519 H   0  0  0  0  0  0  0  0  0  0  0  0
   -3.4545    2.9697    2.1159 H   0  0  0  0  0  0  0  0  0  0  0  0
   -4.7874    3.5317    1.0998 H   0  0  0  0  0  0  0  0  0  0  0  0
   -4.4208    1.7997    1.2064 H   0  0  0  0  0  0  0  0  0  0  0  0
   -3.2252    5.2671   -0.5582 N   0  0  0  0  0  0  0  0  0  0  0  0
   -2.8438    6.6547   -0.6813 C   0  0  0  0  0  0  0  0  0  0  0  0
   -4.1431    4.9959   -0.8984 H   0  0  0  0  0  0  0  0  0  0  0  0
   -3.1506    7.2014    0.2225 H   0  0  0  0  0  0  0  0  0  0  0  0
   -1.7525    6.7257   -0.7999 H   0  0  0  0  0  0  0  0  0  0  0  0
   -3.3375    7.0939   -1.5607 H   0  0  0  0  0  0  0  0  0  0  0  0
  1  3  1  0  0  0  0
  1  7  1  0  0  0  0
  1  2  2  0  0  0  0
 37 38  1  0  0  0  0
 38 46  1  0  0  0  0
 38 39  2  0  0  0  0
  8  9  1  0  0  0  0
  9 17  1  0  0  0  0
  9 10  2  0  0  0  0
 18 19  1  0  0  0  0
 19 36  1  0  0  0  0
 19 20  2  0  0  0  0
 37 40  1  0  0  0  0
  8 11  1  0  0  0  0
 22 23  1  0  0  0  0
 22 24  1  0  0  0  0
 46 47  1  0  0  0  0
 18 21  1  0  0  0  0
 21 22  1  0  0  0  0
 36 37  1  0  0  0  0
  7  8  1  0  0  0  0
 17 18  1  0  0  0  0
  3  4  1  0  0  0  0
  3  5  1  0  0  0  0
  3  6  1  0  0  0  0
 40 43  1  0  0  0  0
 40 44  1  0  0  0  0
 40 45  1  0  0  0  0
 11 14  1  0  0  0  0
 11 15  1  0  0  0  0
 11 16  1  0  0  0  0
 23 30  1  0  0  0  0
 23 31  1  0  0  0  0
 23 32  1  0  0  0  0
 24 33  1  0  0  0  0
 24 34  1  0  0  0  0
 24 35  1  0  0  0  0
 47 49  1  0  0  0  0
 47 50  1  0  0  0  0
 47 51  1  0  0  0  0
 21 27  1  0  0  0  0
 21 28  1  0  0  0  0
 37 42  1  0  0  0  0
  8 13  1  0  0  0  0
 18 26  1  0  0  0  0
 22 29  1  0  0  0  0
 46 48  1  0  0  0  0
  7 12  1  0  0  0  0
 36 41  1  0  0  0  0
 17 25  1  0  0  0  0
M  END
$$$$

  -OEChem-05262214473D

 51 50  0     1  0  0  0  0  0999 V2000
    3.4018   -1.2440   -3.0186 C   0  0  0  0  0  0  0  0  0  0  0  0
    3.2697   -2.0909   -2.1427 O   0  0  0  0  0  0  0  0  0  0  0  0
    4.6845   -1.1645   -3.7779 C   0  0  0  0  0  0  0  0  0  0  0  0
    5.4123   -0.4862   -3.3041 H   0  0  0  0  0  0  0  0  0  0  0  0
    5.1949   -2.1387   -3.8443 H   0  0  0  0  0  0  0  0  0  0  0  0
    4.5953   -0.8128   -4.8182 H   0  0  0  0  0  0  0  0  0  0  0  0
    2.4540   -0.3103   -3.4040 N   0  0  0  0  0  0  0  0  0  0  0  0
    1.1494   -0.2128   -2.8039 C   0  0  2  0  0  0  0  0  0  0  0  0
    1.3350    0.0367   -1.3130 C   0  0  0  0  0  0  0  0  0  0  0  0
    2.3625   -0.2586   -0.7063 O   0  0  0  0  0  0  0  0  0  0  0  0
    0.3331   -1.4728   -3.0467 C   0  0  0  0  0  0  0  0  0  0  0  0
    2.6924    0.3404   -4.1502 H   0  0  0  0  0  0  0  0  0  0  0  0
    0.6550    0.6514   -3.2607 H   0  0  0  0  0  0  0  0  0  0  0  0
    0.8129   -2.3494   -2.5963 H   0  0  0  0  0  0  0  0  0  0  0  0
   -0.6690   -1.3857   -2.6142 H   0  0  0  0  0  0  0  0  0  0  0  0
    0.2259   -1.6670   -4.1194 H   0  0  0  0  0  0  0  0  0  0  0  0
    0.2019    0.5893   -0.7269 N   0  0  0  0  0  0  0  0  0  0  0  0
    0.1242    0.9059    0.6756 C   0  0  2  0  0  0  0  0  0  0  0  0
   -0.8253    2.0916    0.8163 C   0  0  0  0  0  0  0  0  0  0  0  0
   -0.4731    3.1816    1.2624 O   0  0  0  0  0  0  0  0  0  0  0  0
    1.4957    1.2512    1.2697 C   0  0  0  0  0  0  0  0  0  0  0  0
    2.5007    0.0817    1.2997 C   0  0  0  0  0  0  0  0  0  0  0  0
    3.8669    0.5873    1.7717 C   0  0  0  0  0  0  0  0  0  0  0  0
    2.6455   -0.5973   -0.0629 C   0  0  0  0  0  0  0  0  0  0  0  0
   -0.5975    0.8179   -1.3140 H   0  0  0  0  0  0  0  0  0  0  0  0
   -0.3196    0.0386    1.1748 H   0  0  0  0  0  0  0  0  0  0  0  0
    1.3549    1.6200    2.2955 H   0  0  0  0  0  0  0  0  0  0  0  0
    1.9348    2.0874    0.7095 H   0  0  0  0  0  0  0  0  0  0  0  0
    2.1584   -0.6685    2.0230 H   0  0  0  0  0  0  0  0  0  0  0  0
    4.2610    1.3433    1.0843 H   0  0  0  0  0  0  0  0  0  0  0  0
    4.5916   -0.2327    1.8147 H   0  0  0  0  0  0  0  0  0  0  0  0
    3.8026    1.0362    2.7688 H   0  0  0  0  0  0  0  0  0  0  0  0
    2.9867    0.1113   -0.8253 H   0  0  0  0  0  0  0  0  0  0  0  0
    3.3722   -1.4155   -0.0135 H   0  0  0  0  0  0  0  0  0  0  0  0
    1.6971   -1.0285   -0.3966 H   0  0  0  0  0  0  0  0  0  0  0  0
   -2.0953    1.8012    0.3375 N   0  0  0  0  0  0  0  0  0  0  0  0
   -3.1775    2.7591    0.3295 C   0  0  2  0  0  0  0  0  0  0  0  0
   -2.6016    4.1160   -0.0534 C   0  0  0  0  0  0  0  0  0  0  0  0
   -1.4148    4.4044    0.0853 O   0  0  0  0  0  0  0  0  0  0  0  0
   -3.8688    2.8242    1.6825 C   0  0  0  0  0  0  0  0  0  0  0  0
   -2.2855    0.8769   -0.0379 H   0  0  0  0  0  0  0  0  0  0  0  0
   -3.8844    2.4312   -0.4404 H   0  0  0  0  0  0  0  0  0  0  0  0
   -3.1762    3.1510    2.4667 H   0  0  0  0  0  0  0  0  0  0  0  0
   -4.7064    3.5294    1.6666 H   0  0  0  0  0  0  0  0  0  0  0  0
   -4.2563    1.8409    1.9699 H   0  0  0  0  0  0  0  0  0  0  0  0
   -3.5771    4.9818   -0.5281 N   0  0  0  0  0  0  0  0  0  0  0  0
   -3.2841    6.3333   -0.9446 C   0  0  0  0  0  0  0  0  0  0  0  0
   -4.5326    4.6518   -0.6272 H   0  0  0  0  0  0  0  0  0  0  0  0
   -3.4265    7.0182   -0.0957 H   0  0  0  0  0  0  0  0  0  0  0  0
   -2.2421    6.3920   -1.2921 H   0  0  0  0  0  0  0  0  0  0  0  0
   -3.9604    6.6192   -1.7636 H   0  0  0  0  0  0  0  0  0  0  0  0
  1  3  1  0  0  0  0
  1  7  1  0  0  0  0
  1  2  2  0  0  0  0
 37 38  1  0  0  0  0
 38 46  1  0  0  0  0
 38 39  2  0  0  0  0
  8  9  1  0  0  0  0
  9 17  1  0  0  0  0
  9 10  2  0  0  0  0
 18 19  1  0  0  0  0
 19 36  1  0  0  0  0
 19 20  2  0  0  0  0
 37 40  1  0  0  0  0
  8 11  1  0  0  0  0
 22 23  1  0  0  0  0
 22 24  1  0  0  0  0
 46 47  1  0  0  0  0
 18 21  1  0  0  0  0
 21 22  1  0  0  0  0
 36 37  1  0  0  0  0
  7  8  1  0  0  0  0
 17 18  1  0  0  0  0
  3  4  1  0  0  0  0
  3  5  1  0  0  0  0
  3  6  1  0  0  0  0
 40 43  1  0  0  0  0
 40 44  1  0  0  0  0
 40 45  1  0  0  0  0
 11 14  1  0  0  0  0
 11 15  1  0  0  0  0
 11 16  1  0  0  0  0
 23 30  1  0  0  0  0
 23 31  1  0  0  0  0
 23 32  1  0  0  0  0
 24 33  1  0  0  0  0
 24 34  1  0  0  0  0
 24 35  1  0  0  0  0
 47 49  1  0  0  0  0
 47 50  1  0  0  0  0
 47 51  1  0  0  0  0
 21 27  1  0  0  0  0
 21 28  1  0  0  0  0
 37 42  1  0  0  0  0
  8 13  1  0  0  0  0
 18 26  1  0  0  0  0
 22 29  1  0  0  0  0
 46 48  1  0  0  0  0
  7 12  1  0  0  0  0
 36 41  1  0  0  0  0
 17 25  1  0  0  0  0
M  END
$$$$

  -OEChem-05262214473D

 51 50  0     1  0  0  0  0  0999 V2000
    3.4018   -1.2440   -3.0186 C   0  0  0  0  0  0  0  0  0  0  0  0
    3.2697   -2.0909   -2.1427 O   0  0  0  0  0  0  0  0  0  0  0  0
    4.6845   -1.1645   -3.7779 C   0  0  0  0  0  0  0  0  0  0  0  0
    5.4123   -0.4862   -3.3041 H   0  0  0  0  0  0  0  0  0  0  0  0
    5.1949   -2.1387   -3.8443 H   0  0  0  0  0  0  0  0  0  0  0  0
    4.5953   -0.8128   -4.8182 H   0  0  0  0  0  0  0  0  0  0  0  0
    2.4540   -0.3103   -3.4040 N   0  0  0  0  0  0  0  0  0  0  0  0
    1.1494   -0.2128   -2.8039 C   0  0  2  0  0  0  0  0  0  0  0  0
    1.3350    0.0367   -1.3130 C   0  0  0  0  0  0  0  0  0  0  0  0
    2.3625   -0.2586   -0.7063 O   0  0  0  0  0  0  0  0  0  0  0  0
    0.3331   -1.4728   -3.0467 C   0  0  0  0  0  0  0  0  0  0  0  0
    2.6924    0.3404   -4.1502 H   0  0  0  0  0  0  0  0  0  0  0  0
    0.6550    0.6514   -3.2607 H   0  0  0  0  0  0  0  0  0  0  0  0
    0.8129   -2.3494   -2.5963 H   0  0  0  0  0  0  0  0  0  0  0  0
   -0.6690   -1.3857   -2.6142 H   0  0  0  0  0  0  0  0  0  0  0  0
    0.2259   -1.6670   -4.1194 H   0  0  0  0  0  0  0  0  0  0  0  0
    0.2019    0.5893   -0.7269 N   0  0  0  0  0  0  0  0  0  0  0  0
    0.1242    0.9059    0.6756 C   0  0  2  0  0  0  0  0  0  0  0  0
   -0.8253    2.0916    0.8163 C   0  0  0  0  0  0  0  0  0  0  0  0
   -0.4356    3.2425    1.0029 O   0  0  0  0  0  0  0  0  0  0  0  0
    1.4957    1.2512    1.2697 C   0  0  0  0  0  0  0  0  0  0  0  0
    2.5007    0.0817    1.2997 C   0  0  0  0  0  0  0  0  0  0  0  0
    3.8669    0.5873    1.7717 C   0  0  0  0  0  0  0  0  0  0  0  0
    2.6455   -0.5973   -0.0629 C   0  0  0  0  0  0  0  0  0  0  0  0
   -0.5975    0.8179   -1.3140 H   0  0  0  0  0  0  0  0  0  0  0  0
   -0.3196    0.0386    1.1748 H   0  0  0  0  0  0  0  0  0  0  0  0
    1.3549    1.6200    2.2955 H   0  0  0  0  0  0  0  0  0  0  0  0
    1.9348    2.0874    0.7095 H   0  0  0  0  0  0  0  0  0  0  0  0
    2.1584   -0.6685    2.0230 H   0  0  0  0  0  0  0  0  0  0  0  0
    4.2610    1.3433    1.0843 H   0  0  0  0  0  0  0  0  0  0  0  0
    4.5916   -0.2327    1.8147 H   0  0  0  0  0  0  0  0  0  0  0  0
    3.8026    1.0362    2.7688 H   0  0  0  0  0  0  0  0  0  0  0  0
    2.9867    0.1113   -0.8253 H   0  0  0  0  0  0  0  0  0  0  0  0
    3.3722   -1.4155   -0.0135 H   0  0  0  0  0  0  0  0  0  0  0  0
    1.6971   -1.0285   -0.3966 H   0  0  0  0  0  0  0  0  0  0  0  0
   -2.1524    1.7175    0.6578 N   0  0  0  0  0  0  0  0  0  0  0  0
   -3.2523    2.6531    0.7179 C   0  0  2  0  0  0  0  0  0  0  0  0
   -2.8195    3.9334    0.0156 C   0  0  0  0  0  0  0  0  0  0  0  0
   -1.6414    4.2493   -0.1372 O   0  0  0  0  0  0  0  0  0  0  0  0
   -3.6622    2.9335    2.1552 C   0  0  0  0  0  0  0  0  0  0  0  0
   -2.3762    0.7428    0.4803 H   0  0  0  0  0  0  0  0  0  0  0  0
   -4.0846    2.1985    0.1695 H   0  0  0  0  0  0  0  0  0  0  0  0
   -2.8410    3.3892    2.7205 H   0  0  0  0  0  0  0  0  0  0  0  0
   -4.5140    3.6203    2.1981 H   0  0  0  0  0  0  0  0  0  0  0  0
   -3.9447    2.0075    2.6677 H   0  0  0  0  0  0  0  0  0  0  0  0
   -3.9041    4.7026   -0.3822 N   0  0  0  0  0  0  0  0  0  0  0  0
   -3.7548    5.9700   -1.0585 C   0  0  0  0  0  0  0  0  0  0  0  0
   -4.8461    4.3539   -0.2315 H   0  0  0  0  0  0  0  0  0  0  0  0
   -3.7527    6.7834   -0.3180 H   0  0  0  0  0  0  0  0  0  0  0  0
   -2.8061    5.9788   -1.6153 H   0  0  0  0  0  0  0  0  0  0  0  0
   -4.5917    6.1131   -1.7579 H   0  0  0  0  0  0  0  0  0  0  0  0
  1  3  1  0  0  0  0
  1  7  1  0  0  0  0
  1  2  2  0  0  0  0
 37 38  1  0  0  0  0
 38 46  1  0  0  0  0
 38 39  2  0  0  0  0
  8  9  1  0  0  0  0
  9 17  1  0  0  0  0
  9 10  2  0  0  0  0
 18 19  1  0  0  0  0
 19 36  1  0  0  0  0
 19 20  2  0  0  0  0
 37 40  1  0  0  0  0
  8 11  1  0  0  0  0
 22 23  1  0  0  0  0
 22 24  1  0  0  0  0
 46 47  1  0  0  0  0
 18 21  1  0  0  0  0
 21 22  1  0  0  0  0
 36 37  1  0  0  0  0
  7  8  1  0  0  0  0
 17 18  1  0  0  0  0
  3  4  1  0  0  0  0
  3  5  1  0  0  0  0
  3  6  1  0  0  0  0
 40 43  1  0  0  0  0
 40 44  1  0  0  0  0
 40 45  1  0  0  0  0
 11 14  1  0  0  0  0
 11 15  1  0  0  0  0
 11 16  1  0  0  0  0
 23 30  1  0  0  0  0
 23 31  1  0  0  0  0
 23 32  1  0  0  0  0
 24 33  1  0  0  0  0
 24 34  1  0  0  0  0
 24 35  1  0  0  0  0
 47 49  1  0  0  0  0
 47 50  1  0  0  0  0
 47 51  1  0  0  0  0
 21 27  1  0  0  0  0
 21 28  1  0  0  0  0
 37 42  1  0  0  0  0
  8 13  1  0  0  0  0
 18 26  1  0  0  0  0
 22 29  1  0  0  0  0
 46 48  1  0  0  0  0
  7 12  1  0  0  0  0
 36 41  1  0  0  0  0
 17 25  1  0  0  0  0
M  END
$$$$

  -OEChem-05262214473D

 51 50  0     1  0  0  0  0  0999 V2000
    3.4018   -1.2440   -3.0186 C   0  0  0  0  0  0  0  0  0  0  0  0
    3.2697   -2.0909   -2.1427 O   0  0  0  0  0  0  0  0  0  0  0  0
    4.6845   -1.1645   -3.7779 C   0  0  0  0  0  0  0  0  0  0  0  0
    5.4123   -0.4862   -3.3041 H   0  0  0  0  0  0  0  0  0  0  0  0
    5.1949   -2.1387   -3.8443 H   0  0  0  0  0  0  0  0  0  0  0  0
    4.5953   -0.8128   -4.8182 H   0  0  0  0  0  0  0  0  0  0  0  0
    2.4540   -0.3103   -3.4040 N   0  0  0  0  0  0  0  0  0  0  0  0
    1.1494   -0.2128   -2.8039 C   0  0  2  0  0  0  0  0  0  0  0  0
    1.3350    0.0367   -1.3130 C   0  0  0  0  0  0  0  0  0  0  0  0
    2.3625   -0.2586   -0.7063 O   0  0  0  0  0  0  0  0  0  0  0  0
    0.3331   -1.4728   -3.0467 C   0  0  0  0  0  0  0  0  0  0  0  0
    2.6924    0.3404   -4.1502 H   0  0  0  0  0  0  0  0  0  0  0  0
    0.6550    0.6514   -3.2607 H   0  0  0  0  0  0  0  0  0  0  0  0
    0.8129   -2.3494   -2.5963 H   0  0  0  0  0  0  0  0  0  0  0  0
   -0.6690   -1.3857   -2.6142 H   0  0  0  0  0  0  0  0  0  0  0  0
    0.2259   -1.6670   -4.1194 H   0  0  0  0  0  0  0  0  0  0  0  0
    0.2019    0.5893   -0.7269 N   0  0  0  0  0  0  0  0  0  0  0  0
    0.1242    0.9059    0.6756 C   0  0  2  0  0  0  0  0  0  0  0  0
   -0.8253    2.0916    0.8163 C   0  0  0  0  0  0  0  0  0  0  0  0
   -0.4530    3.2604    0.7348 O   0  0  0  0  0  0  0  0  0  0  0  0
    1.4957    1.2512    1.2697 C   0  0  0  0  0  0  0  0  0  0  0  0
    2.5007    0.0817    1.2997 C   0  0  0  0  0  0  0  0  0  0  0  0
    3.8669    0.5873    1.7717 C   0  0  0  0  0  0  0  0  0  0  0  0
    2.6455   -0.5973   -0.0629 C   0  0  0  0  0  0  0  0  0  0  0  0
   -0.5975    0.8179   -1.3140 H   0  0  0  0  0  0  0  0  0  0  0  0
   -0.3196    0.0386    1.1748 H   0  0  0  0  0  0  0  0  0  0  0  0
    1.3549    1.6200    2.2955 H   0  0  0  0  0  0  0  0  0  0  0  0
    1.9348    2.0874    0.7095 H   0  0  0  0  0  0  0  0  0  0  0  0
    2.1584   -0.6685    2.0230 H   0  0  0  0  0  0  0  0  0  0  0  0
    4.2610    1.3433    1.0843 H   0  0  0  0  0  0  0  0  0  0  0  0
    4.5916   -0.2327    1.8147 H   0  0  0  0  0  0  0  0  0  0  0  0
    3.8026    1.0362    2.7688 H   0  0  0  0  0  0  0  0  0  0  0  0
    2.9867    0.1113   -0.8253 H   0  0  0  0  0  0  0  0  0  0  0  0
    3.3722   -1.4155   -0.0135 H   0  0  0  0  0  0  0  0  0  0  0  0
    1.6971   -1.0285   -0.3966 H   0  0  0  0  0  0  0  0  0  0  0  0
   -2.1412    1.6868    0.9920 N   0  0  0  0  0  0  0  0  0  0  0  0
   -3.2439    2.6115    1.1251 C   0  0  2  0  0  0  0  0  0  0  0  0
   -3.0117    3.7629    0.1556 C   0  0  0  0  0  0  0  0  0  0  0  0
   -1.9014    4.0583   -0.2814 O   0  0  0  0  0  0  0  0  0  0  0  0
   -3.3703    3.1201    2.5527 C   0  0  0  0  0  0  0  0  0  0  0  0
   -2.3563    0.6946    1.0206 H   0  0  0  0  0  0  0  0  0  0  0  0
   -4.1497    2.0673    0.8365 H   0  0  0  0  0  0  0  0  0  0  0  0
   -2.4720    3.6682    2.8597 H   0  0  0  0  0  0  0  0  0  0  0  0
   -4.2234    3.7984    2.6582 H   0  0  0  0  0  0  0  0  0  0  0  0
   -3.5074    2.2884    3.2521 H   0  0  0  0  0  0  0  0  0  0  0  0
   -4.1839    4.4487   -0.1305 N   0  0  0  0  0  0  0  0  0  0  0  0
   -4.2236    5.5894   -1.0154 C   0  0  0  0  0  0  0  0  0  0  0  0
   -5.0622    4.1223    0.2617 H   0  0  0  0  0  0  0  0  0  0  0  0
   -4.1069    6.5130   -0.4293 H   0  0  0  0  0  0  0  0  0  0  0  0
   -3.4060    5.5141   -1.7474 H   0  0  0  0  0  0  0  0  0  0  0  0
   -5.1882    5.6100   -1.5438 H   0  0  0  0  0  0  0  0  0  0  0  0
  1  3  1  0  0  0  0
  1  7  1  0  0  0  0
  1  2  2  0  0  0  0
 37 38  1  0  0  0  0
 38 46  1  0  0  0  0
 38 39  2  0  0  0  0
  8  9  1  0  0  0  0
  9 17  1  0  0  0  0
  9 10  2  0  0  0  0
 18 19  1  0  0  0  0
 19 36  1  0  0  0  0
 19 20  2  0  0  0  0
 37 40  1  0  0  0  0
  8 11  1  0  0  0  0
 22 23  1  0  0  0  0
 22 24  1  0  0  0  0
 46 47  1  0  0  0  0
 18 21  1  0  0  0  0
 21 22  1  0  0  0  0
 36 37  1  0  0  0  0
  7  8  1  0  0  0  0
 17 18  1  0  0  0  0
  3  4  1  0  0  0  0
  3  5  1  0  0  0  0
  3  6  1  0  0  0  0
 40 43  1  0  0  0  0
 40 44  1  0  0  0  0
 40 45  1  0  0  0  0
 11 14  1  0  0  0  0
 11 15  1  0  0  0  0
 11 16  1  0  0  0  0
 23 30  1  0  0  0  0
 23 31  1  0  0  0  0
 23 32  1  0  0  0  0
 24 33  1  0  0  0  0
 24 34  1  0  0  0  0
 24 35  1  0  0  0  0
 47 49  1  0  0  0  0
 47 50  1  0  0  0  0
 47 51  1  0  0  0  0
 21 27  1  0  0  0  0
 21 28  1  0  0  0  0
 37 42  1  0  0  0  0
  8 13  1  0  0  0  0
 18 26  1  0  0  0  0
 22 29  1  0  0  0  0
 46 48  1  0  0  0  0
  7 12  1  0  0  0  0
 36 41  1  0  0  0  0
 17 25  1  0  0  0  0
M  END
$$$$

  -OEChem-05262214473D

 51 50  0     1  0  0  0  0  0999 V2000
    3.4018   -1.2440   -3.0186 C   0  0  0  0  0  0  0  0  0  0  0  0
    3.2697   -2.0909   -2.1427 O   0  0  0  0  0  0  0  0  0  0  0  0
    4.6845   -1.1645   -3.7779 C   0  0  0  0  0  0  0  0  0  0  0  0
    5.4123   -0.4862   -3.3041 H   0  0  0  0  0  0  0  0  0  0  0  0
    5.1949   -2.1387   -3.8443 H   0  0  0  0  0  0  0  0  0  0  0  0
    4.5953   -0.8128   -4.8182 H   0  0  0  0  0  0  0  0  0  0  0  0
    2.4540   -0.3103   -3.4040 N   0  0  0  0  0  0  0  0  0  0  0  0
    1.1494   -0.2128   -2.8039 C   0  0  2  0  0  0  0  0  0  0  0  0
    1.3350    0.0367   -1.3130 C   0  0  0  0  0  0  0  0  0  0  0  0
    2.3625   -0.2586   -0.7063 O   0  0  0  0  0  0  0  0  0  0  0  0
    0.3331   -1.4728   -3.0467 C   0  0  0  0  0  0  0  0  0  0  0  0
    2.6924    0.3404   -4.1502 H   0  0  0  0  0  0  0  0  0  0  0  0
    0.6550    0.6514   -3.2607 H   0  0  0  0  0  0  0  0  0  0  0  0
    0.8129   -2.3494   -2.5963 H   0  0  0  0  0  0  0  0  0  0  0  0
   -0.6690   -1.3857   -2.6142 H   0  0  0  0  0  0  0  0  0  0  0  0
    0.2259   -1.6670   -4.1194 H   0  0  0  0  0  0  0  0  0  0  0  0
    0.2019    0.5893   -0.7269 N   0  0  0  0  0  0  0  0  0  0  0  0
    0.1242    0.9059    0.6756 C   0  0  2  0  0  0  0  0  0  0  0  0
   -0.8253    2.0916    0.8163 C   0  0  0  0  0  0  0  0  0  0  0  0
   -0.5242    3.2340    0.4765 O   0  0  0  0  0  0  0  0  0  0  0  0
    1.4957    1.2512    1.2697 C   0  0  0  0  0  0  0  0  0  0  0  0
    2.5007    0.0817    1.2997 C   0  0  0  0  0  0  0  0  0  0  0  0
    3.8669    0.5873    1.7717 C   0  0  0  0  0  0  0  0  0  0  0  0
    2.6455   -0.5973   -0.0629 C   0  0  0  0  0  0  0  0  0  0  0  0
   -0.5975    0.8179   -1.3140 H   0  0  0  0  0  0  0  0  0  0  0  0
   -0.3196    0.0386    1.1748 H   0  0  0  0  0  0  0  0  0  0  0  0
    1.3549    1.6200    2.2955 H   0  0  0  0  0  0  0  0  0  0  0  0
    1.9348    2.0874    0.7095 H   0  0  0  0  0  0  0  0  0  0  0  0
    2.1584   -0.6685    2.0230 H   0  0  0  0  0  0  0  0  0  0  0  0
    4.2610    1.3433    1.0843 H   0  0  0  0  0  0  0  0  0  0  0  0
    4.5916   -0.2327    1.8147 H   0  0  0  0  0  0  0  0  0  0  0  0
    3.8026    1.0362    2.7688 H   0  0  0  0  0  0  0  0  0  0  0  0
    2.9867    0.1113   -0.8253 H   0  0  0  0  0  0  0  0  0  0  0  0
    3.3722   -1.4155   -0.0135 H   0  0  0  0  0  0  0  0  0  0  0  0
    1.6971   -1.0285   -0.3966 H   0  0  0  0  0  0  0  0  0  0  0  0
   -2.0624    1.7113    1.3176 N   0  0  0  0  0  0  0  0  0  0  0  0
   -3.1528    2.6371    1.5235 C   0  0  2  0  0  0  0  0  0  0  0  0
   -3.1651    3.6161    0.3569 C   0  0  0  0  0  0  0  0  0  0  0  0
   -2.1770    3.8443   -0.3378 O   0  0  0  0  0  0  0  0  0  0  0  0
   -3.0127    3.3714    2.8479 C   0  0  0  0  0  0  0  0  0  0  0  0
   -2.2272    0.7355    1.5464 H   0  0  0  0  0  0  0  0  0  0  0  0
   -4.0753    2.0463    1.5150 H   0  0  0  0  0  0  0  0  0  0  0  0
   -2.0941    3.9689    2.8751 H   0  0  0  0  0  0  0  0  0  0  0  0
   -3.8544    4.0515    3.0155 H   0  0  0  0  0  0  0  0  0  0  0  0
   -2.9741    2.6642    3.6834 H   0  0  0  0  0  0  0  0  0  0  0  0
   -4.3975    4.2372    0.2098 N   0  0  0  0  0  0  0  0  0  0  0  0
   -4.6587    5.2176   -0.8181 C   0  0  0  0  0  0  0  0  0  0  0  0
   -5.1662    3.9729    0.8190 H   0  0  0  0  0  0  0  0  0  0  0  0
   -4.4650    6.2254   -0.4220 H   0  0  0  0  0  0  0  0  0  0  0  0
   -4.0010    5.0297   -1.6795 H   0  0  0  0  0  0  0  0  0  0  0  0
   -5.7092    5.1444   -1.1360 H   0  0  0  0  0  0  0  0  0  0  0  0
  1  3  1  0  0  0  0
  1  7  1  0  0  0  0
  1  2  2  0  0  0  0
 37 38  1  0  0  0  0
 38 46  1  0  0  0  0
 38 39  2  0  0  0  0
  8  9  1  0  0  0  0
  9 17  1  0  0  0  0
  9 10  2  0  0  0  0
 18 19  1  0  0  0  0
 19 36  1  0  0  0  0
 19 20  2  0  0  0  0
 37 40  1  0  0  0  0
  8 11  1  0  0  0  0
 22 23  1  0  0  0  0
 22 24  1  0  0  0  0
 46 47  1  0  0  0  0
 18 21  1  0  0  0  0
 21 22  1  0  0  0  0
 36 37  1  0  0  0  0
  7  8  1  0  0  0  0
 17 18  1  0  0  0  0
  3  4  1  0  0  0  0
  3  5  1  0  0  0  0
  3  6  1  0  0  0  0
 40 43  1  0  0  0  0
 40 44  1  0  0  0  0
 40 45  1  0  0  0  0
 11 14  1  0  0  0  0
 11 15  1  0  0  0  0
 11 16  1  0  0  0  0
 23 30  1  0  0  0  0
 23 31  1  0  0  0  0
 23 32  1  0  0  0  0
 24 33  1  0  0  0  0
 24 34  1  0  0  0  0
 24 35  1  0  0  0  0
 47 49  1  0  0  0  0
 47 50  1  0  0  0  0
 47 51  1  0  0  0  0
 21 27  1  0  0  0  0
 21 28  1  0  0  0  0
 37 42  1  0  0  0  0
  8 13  1  0  0  0  0
 18 26  1  0  0  0  0
 22 29  1  0  0  0  0
 46 48  1  0  0  0  0
  7 12  1  0  0  0  0
 36 41  1  0  0  0  0
 17 25  1  0  0  0  0
M  END
$$$$

  -OEChem-05262214473D

 51 50  0     1  0  0  0  0  0999 V2000
    3.4018   -1.2440   -3.0186 C   0  0  0  0  0  0  0  0  0  0  0  0
    3.2697   -2.0909   -2.1427 O   0  0  0  0  0  0  0  0  0  0  0  0
    4.6845   -1.1645   -3.7779 C   0  0  0  0  0  0  0  0  0  0  0  0
    5.4123   -0.4862   -3.3041 H   0  0  0  0  0  0  0  0  0  0  0  0
    5.1949   -2.1387   -3.8443 H   0  0  0  0  0  0  0  0  0  0  0  0
    4.5953   -0.8128   -4.8182 H   0  0  0  0  0  0  0  0  0  0  0  0
    2.4540   -0.3103   -3.4040 N   0  0  0  0  0  0  0  0  0  0  0  0
    1.1494   -0.2128   -2.8039 C   0  0  2  0  0  0  0  0  0  0  0  0
    1.3350    0.0367   -1.3130 C   0  0  0  0  0  0  0  0  0  0  0  0
    2.3625   -0.2586   -0.7063 O   0  0  0  0  0  0  0  0  0  0  0  0
    0.3331   -1.4728   -3.0467 C   0  0  0  0  0  0  0  0  0  0  0  0
    2.6924    0.3404   -4.1502 H   0  0  0  0  0  0  0  0  0  0  0  0
    0.6550    0.6514   -3.2607 H   0  0  0  0  0  0  0  0  0  0  0  0
    0.8129   -2.3494   -2.5963 H   0  0  0  0  0  0  0  0  0  0  0  0
   -0.6690   -1.3857   -2.6142 H   0  0  0  0  0  0  0  0  0  0  0  0
    0.2259   -1.6670   -4.1194 H   0  0  0  0  0  0  0  0  0  0  0  0
    0.2019    0.5893   -0.7269 N   0  0  0  0  0  0  0  0  0  0  0  0
    0.1242    0.9059    0.6756 C   0  0  2  0  0  0  0  0  0  0  0  0
   -0.8253    2.0916    0.8163 C   0  0  0  0  0  0  0  0  0  0  0  0
   -0.6442    3.1653    0.2456 O   0  0  0  0  0  0  0  0  0  0  0  0
    1.4957    1.2512    1.2697 C   0  0  0  0  0  0  0  0  0  0  0  0
    2.5007    0.0817    1.2997 C   0  0  0  0  0  0  0  0  0  0  0  0
    3.8669    0.5873    1.7717 C   0  0  0  0  0  0  0  0  0  0  0  0
    2.6455   -0.5973   -0.0629 C   0  0  0  0  0  0  0  0  0  0  0  0
   -0.5975    0.8179   -1.3140 H   0  0  0  0  0  0  0  0  0  0  0  0
   -0.3196    0.0386    1.1748 H   0  0  0  0  0  0  0  0  0  0  0  0
    1.3549    1.6200    2.2955 H   0  0  0  0  0  0  0  0  0  0  0  0
    1.9348    2.0874    0.7095 H   0  0  0  0  0  0  0  0  0  0  0  0
    2.1584   -0.6685    2.0230 H   0  0  0  0  0  0  0  0  0  0  0  0
    4.2610    1.3433    1.0843 H   0  0  0  0  0  0  0  0  0  0  0  0
    4.5916   -0.2327    1.8147 H   0  0  0  0  0  0  0  0  0  0  0  0
    3.8026    1.0362    2.7688 H   0  0  0  0  0  0  0  0  0  0  0  0
    2.9867    0.1113   -0.8253 H   0  0  0  0  0  0  0  0  0  0  0  0
    3.3722   -1.4155   -0.0135 H   0  0  0  0  0  0  0  0  0  0  0  0
    1.6971   -1.0285   -0.3966 H   0  0  0  0  0  0  0  0  0  0  0  0
   -1.9213    1.7892    1.6123 N   0  0  0  0  0  0  0  0  0  0  0  0
   -2.9854    2.7282    1.8859 C   0  0  2  0  0  0  0  0  0  0  0  0
   -3.2693    3.5032    0.6059 C   0  0  0  0  0  0  0  0  0  0  0  0
   -2.4494    3.6219   -0.3022 O   0  0  0  0  0  0  0  0  0  0  0  0
   -2.6140    3.6702    3.0205 C   0  0  0  0  0  0  0  0  0  0  0  0
   -1.9978    0.8628    2.0216 H   0  0  0  0  0  0  0  0  0  0  0  0
   -3.8664    2.1372    2.1587 H   0  0  0  0  0  0  0  0  0  0  0  0
   -1.7333    4.2709    2.7655 H   0  0  0  0  0  0  0  0  0  0  0  0
   -3.4321    4.3623    3.2456 H   0  0  0  0  0  0  0  0  0  0  0  0
   -2.3811    3.1094    3.9322 H   0  0  0  0  0  0  0  0  0  0  0  0
   -4.5304    4.0827    0.6156 N   0  0  0  0  0  0  0  0  0  0  0  0
   -5.0304    4.8799   -0.4801 C   0  0  0  0  0  0  0  0  0  0  0  0
   -5.1509    3.9159    1.4022 H   0  0  0  0  0  0  0  0  0  0  0  0
   -4.8025    5.9402   -0.2966 H   0  0  0  0  0  0  0  0  0  0  0  0
   -4.5505    4.5584   -1.4162 H   0  0  0  0  0  0  0  0  0  0  0  0
   -6.1194    4.7479   -0.5622 H   0  0  0  0  0  0  0  0  0  0  0  0
  1  3  1  0  0  0  0
  1  7  1  0  0  0  0
  1  2  2  0  0  0  0
 37 38  1  0  0  0  0
 38 46  1  0  0  0  0
 38 39  2  0  0  0  0
  8  9  1  0  0  0  0
  9 17  1  0  0  0  0
  9 10  2  0  0  0  0
 18 19  1  0  0  0  0
 19 36  1  0  0  0  0
 19 20  2  0  0  0  0
 37 40  1  0  0  0  0
  8 11  1  0  0  0  0
 22 23  1  0  0  0  0
 22 24  1  0  0  0  0
 46 47  1  0  0  0  0
 18 21  1  0  0  0  0
 21 22  1  0  0  0  0
 36 37  1  0  0  0  0
  7  8  1  0  0  0  0
 17 18  1  0  0  0  0
  3  4  1  0  0  0  0
  3  5  1  0  0  0  0
  3  6  1  0  0  0  0
 40 43  1  0  0  0  0
 40 44  1  0  0  0  0
 40 45  1  0  0  0  0
 11 14  1  0  0  0  0
 11 15  1  0  0  0  0
 11 16  1  0  0  0  0
 23 30  1  0  0  0  0
 23 31  1  0  0  0  0
 23 32  1  0  0  0  0
 24 33  1  0  0  0  0
 24 34  1  0  0  0  0
 24 35  1  0  0  0  0
 47 49  1  0  0  0  0
 47 50  1  0  0  0  0
 47 51  1  0  0  0  0
 21 27  1  0  0  0  0
 21 28  1  0  0  0  0
 37 42  1  0  0  0  0
  8 13  1  0  0  0  0
 18 26  1  0  0  0  0
 22 29  1  0  0  0  0
 46 48  1  0  0  0  0
  7 12  1  0  0  0  0
 36 41  1  0  0  0  0
 17 25  1  0  0  0  0
M  END
$$$$

  -OEChem-05262214473D

 51 50  0     1  0  0  0  0  0999 V2000
    3.4018   -1.2440   -3.0186 C   0  0  0  0  0  0  0  0  0  0  0  0
    3.2697   -2.0909   -2.1427 O   0  0  0  0  0  0  0  0  0  0  0  0
    4.6845   -1.1645   -3.7779 C   0  0  0  0  0  0  0  0  0  0  0  0
    5.4123   -0.4862   -3.3041 H   0  0  0  0  0  0  0  0  0  0  0  0
    5.1949   -2.1387   -3.8443 H   0  0  0  0  0  0  0  0  0  0  0  0
    4.5953   -0.8128   -4.8182 H   0  0  0  0  0  0  0  0  0  0  0  0
    2.4540   -0.3103   -3.4040 N   0  0  0  0  0  0  0  0  0  0  0  0
    1.1494   -0.2128   -2.8039 C   0  0  2  0  0  0  0  0  0  0  0  0
    1.3350    0.0367   -1.3130 C   0  0  0  0  0  0  0  0  0  0  0  0
    2.3625   -0.2586   -0.7063 O   0  0  0  0  0  0  0  0  0  0  0  0
    0.3331   -1.4728   -3.0467 C   0  0  0  0  0  0  0  0  0  0  0  0
    2.6924    0.3404   -4.1502 H   0  0  0  0  0  0  0  0  0  0  0  0
    0.6550    0.6514   -3.2607 H   0  0  0  0  0  0  0  0  0  0  0  0
    0.8129   -2.3494   -2.5963 H   0  0  0  0  0  0  0  0  0  0  0  0
   -0.6690   -1.3857   -2.6142 H   0  0  0  0  0  0  0  0  0  0  0  0
    0.2259   -1.6670   -4.1194 H   0  0  0  0  0  0  0  0  0  0  0  0
    0.2019    0.5893   -0.7269 N   0  0  0  0  0  0  0  0  0  0  0  0
    0.1242    0.9059    0.6756 C   0  0  2  0  0  0  0  0  0  0  0  0
   -0.8253    2.0916    0.8163 C   0  0  0  0  0  0  0  0  0  0  0  0
   -0.8050    3.0588    0.0578 O   0  0  0  0  0  0  0  0  0  0  0  0
    1.4957    1.2512    1.2697 C   0  0  0  0  0  0  0  0  0  0  0  0
    2.5007    0.0817    1.2997 C   0  0  0  0  0  0  0  0  0  0  0  0
    3.8669    0.5873    1.7717 C   0  0  0  0  0  0  0  0  0  0  0  0
    2.6455   -0.5973   -0.0629 C   0  0  0  0  0  0  0  0  0  0  0  0
   -0.5975    0.8179   -1.3140 H   0  0  0  0  0  0  0  0  0  0  0  0
   -0.3196    0.0386    1.1748 H   0  0  0  0  0  0  0  0  0  0  0  0
    1.3549    1.6200    2.2955 H   0  0  0  0  0  0  0  0  0  0  0  0
    1.9348    2.0874    0.7095 H   0  0  0  0  0  0  0  0  0  0  0  0
    2.1584   -0.6685    2.0230 H   0  0  0  0  0  0  0  0  0  0  0  0
    4.2610    1.3433    1.0843 H   0  0  0  0  0  0  0  0  0  0  0  0
    4.5916   -0.2327    1.8147 H   0  0  0  0  0  0  0  0  0  0  0  0
    3.8026    1.0362    2.7688 H   0  0  0  0  0  0  0  0  0  0  0  0
    2.9867    0.1113   -0.8253 H   0  0  0  0  0  0  0  0  0  0  0  0
    3.3722   -1.4155   -0.0135 H   0  0  0  0  0  0  0  0  0  0  0  0
    1.6971   -1.0285   -0.3966 H   0  0  0  0  0  0  0  0  0  0  0  0
   -1.7277    1.9154    1.8561 N   0  0  0  0  0  0  0  0  0  0  0  0
   -2.7529    2.8786    2.1875 C   0  0  2  0  0  0  0  0  0  0  0  0
   -3.3172    3.4317    0.8855 C   0  0  0  0  0  0  0  0  0  0  0  0
   -2.7001    3.4064   -0.1773 O   0  0  0  0  0  0  0  0  0  0  0  0
   -2.2012    3.9961    3.0590 C   0  0  0  0  0  0  0  0  0  0  0  0
   -1.6836    1.0678    2.4140 H   0  0  0  0  0  0  0  0  0  0  0  0
   -3.5373    2.3336    2.7239 H   0  0  0  0  0  0  0  0  0  0  0  0
   -1.4139    4.5535    2.5384 H   0  0  0  0  0  0  0  0  0  0  0  0
   -2.9854    4.7096    3.3328 H   0  0  0  0  0  0  0  0  0  0  0  0
   -1.7690    3.5937    3.9815 H   0  0  0  0  0  0  0  0  0  0  0  0
   -4.5734    3.9956    1.0591 N   0  0  0  0  0  0  0  0  0  0  0  0
   -5.3134    4.5992   -0.0244 C   0  0  0  0  0  0  0  0  0  0  0  0
   -5.0175    3.9551    1.9717 H   0  0  0  0  0  0  0  0  0  0  0  0
   -5.0966    5.6770   -0.0617 H   0  0  0  0  0  0  0  0  0  0  0  0
   -5.0170    4.1326   -0.9754 H   0  0  0  0  0  0  0  0  0  0  0  0
   -6.3907    4.4475    0.1383 H   0  0  0  0  0  0  0  0  0  0  0  0
  1  3  1  0  0  0  0
  1  7  1  0  0  0  0
  1  2  2  0  0  0  0
 37 38  1  0  0  0  0
 38 46  1  0  0  0  0
 38 39  2  0  0  0  0
  8  9  1  0  0  0  0
  9 17  1  0  0  0  0
  9 10  2  0  0  0  0
 18 19  1  0  0  0  0
 19 36  1  0  0  0  0
 19 20  2  0  0  0  0
 37 40  1  0  0  0  0
  8 11  1  0  0  0  0
 22 23  1  0  0  0  0
 22 24  1  0  0  0  0
 46 47  1  0  0  0  0
 18 21  1  0  0  0  0
 21 22  1  0  0  0  0
 36 37  1  0  0  0  0
  7  8  1  0  0  0  0
 17 18  1  0  0  0  0
  3  4  1  0  0  0  0
  3  5  1  0  0  0  0
  3  6  1  0  0  0  0
 40 43  1  0  0  0  0
 40 44  1  0  0  0  0
 40 45  1  0  0  0  0
 11 14  1  0  0  0  0
 11 15  1  0  0  0  0
 11 16  1  0  0  0  0
 23 30  1  0  0  0  0
 23 31  1  0  0  0  0
 23 32  1  0  0  0  0
 24 33  1  0  0  0  0
 24 34  1  0  0  0  0
 24 35  1  0  0  0  0
 47 49  1  0  0  0  0
 47 50  1  0  0  0  0
 47 51  1  0  0  0  0
 21 27  1  0  0  0  0
 21 28  1  0  0  0  0
 37 42  1  0  0  0  0
  8 13  1  0  0  0  0
 18 26  1  0  0  0  0
 22 29  1  0  0  0  0
 46 48  1  0  0  0  0
  7 12  1  0  0  0  0
 36 41  1  0  0  0  0
 17 25  1  0  0  0  0
M  END
$$$$

  -OEChem-05262214473D

 51 50  0     1  0  0  0  0  0999 V2000
    3.4018   -1.2440   -3.0186 C   0  0  0  0  0  0  0  0  0  0  0  0
    3.2697   -2.0909   -2.1427 O   0  0  0  0  0  0  0  0  0  0  0  0
    4.6845   -1.1645   -3.7779 C   0  0  0  0  0  0  0  0  0  0  0  0
    5.4123   -0.4862   -3.3041 H   0  0  0  0  0  0  0  0  0  0  0  0
    5.1949   -2.1387   -3.8443 H   0  0  0  0  0  0  0  0  0  0  0  0
    4.5953   -0.8128   -4.8182 H   0  0  0  0  0  0  0  0  0  0  0  0
    2.4540   -0.3103   -3.4040 N   0  0  0  0  0  0  0  0  0  0  0  0
    1.1494   -0.2128   -2.8039 C   0  0  2  0  0  0  0  0  0  0  0  0
    1.3350    0.0367   -1.3130 C   0  0  0  0  0  0  0  0  0  0  0  0
    2.3625   -0.2586   -0.7063 O   0  0  0  0  0  0  0  0  0  0  0  0
    0.3331   -1.4728   -3.0467 C   0  0  0  0  0  0  0  0  0  0  0  0
    2.6924    0.3404   -4.1502 H   0  0  0  0  0  0  0  0  0  0  0  0
    0.6550    0.6514   -3.2607 H   0  0  0  0  0  0  0  0  0  0  0  0
    0.8129   -2.3494   -2.5963 H   0  0  0  0  0  0  0  0  0  0  0  0
   -0.6690   -1.3857   -2.6142 H   0  0  0  0  0  0  0  0  0  0  0  0
    0.2259   -1.6670   -4.1194 H   0  0  0  0  0  0  0  0  0  0  0  0
    0.2019    0.5893   -0.7269 N   0  0  0  0  0  0  0  0  0  0  0  0
    0.1242    0.9059    0.6756 C   0  0  2  0  0  0  0  0  0  0  0  0
   -0.8253    2.0916    0.8163 C   0  0  0  0  0  0  0  0  0  0  0  0
   -0.9956    2.9219   -0.0741 O   0  0  0  0  0  0  0  0  0  0  0  0
    1.4957    1.2512    1.2697 C   0  0  0  0  0  0  0  0  0  0  0  0
    2.5007    0.0817    1.2997 C   0  0  0  0  0  0  0  0  0  0  0  0
    3.8669    0.5873    1.7717 C   0  0  0  0  0  0  0  0  0  0  0  0
    2.6455   -0.5973   -0.0629 C   0  0  0  0  0  0  0  0  0  0  0  0
   -0.5975    0.8179   -1.3140 H   0  0  0  0  0  0  0  0  0  0  0  0
   -0.3196    0.0386    1.1748 H   0  0  0  0  0  0  0  0  0  0  0  0
    1.3549    1.6200    2.2955 H   0  0  0  0  0  0  0  0  0  0  0  0
    1.9348    2.0874    0.7095 H   0  0  0  0  0  0  0  0  0  0  0  0
    2.1584   -0.6685    2.0230 H   0  0  0  0  0  0  0  0  0  0  0  0
    4.2610    1.3433    1.0843 H   0  0  0  0  0  0  0  0  0  0  0  0
    4.5916   -0.2327    1.8147 H   0  0  0  0  0  0  0  0  0  0  0  0
    3.8026    1.0362    2.7688 H   0  0  0  0  0  0  0  0  0  0  0  0
    2.9867    0.1113   -0.8253 H   0  0  0  0  0  0  0  0  0  0  0  0
    3.3722   -1.4155   -0.0135 H   0  0  0  0  0  0  0  0  0  0  0  0
    1.6971   -1.0285   -0.3966 H   0  0  0  0  0  0  0  0  0  0  0  0
   -1.4946    2.0811    2.0322 N   0  0  0  0  0  0  0  0  0  0  0  0
   -2.4712    3.0779    2.4079 C   0  0  2  0  0  0  0  0  0  0  0  0
   -3.3054    3.4065    1.1768 C   0  0  0  0  0  0  0  0  0  0  0  0
   -2.9119    3.2123    0.0285 O   0  0  0  0  0  0  0  0  0  0  0  0
   -1.8026    4.3270    2.9606 C   0  0  0  0  0  0  0  0  0  0  0  0
   -1.3061    1.3366    2.6968 H   0  0  0  0  0  0  0  0  0  0  0  0
   -3.1105    2.6222    3.1719 H   0  0  0  0  0  0  0  0  0  0  0  0
   -1.1579    4.7975    2.2092 H   0  0  0  0  0  0  0  0  0  0  0  0
   -2.5446    5.0699    3.2713 H   0  0  0  0  0  0  0  0  0  0  0  0
   -1.1793    4.0841    3.8280 H   0  0  0  0  0  0  0  0  0  0  0  0
   -4.5236    3.9820    1.5102 N   0  0  0  0  0  0  0  0  0  0  0  0
   -5.4884    4.3947    0.5179 C   0  0  0  0  0  0  0  0  0  0  0  0
   -4.7751    4.0879    2.4886 H   0  0  0  0  0  0  0  0  0  0  0  0
   -5.3270    5.4535    0.2668 H   0  0  0  0  0  0  0  0  0  0  0  0
   -5.3688    3.7811   -0.3872 H   0  0  0  0  0  0  0  0  0  0  0  0
   -6.5047    4.2637    0.9180 H   0  0  0  0  0  0  0  0  0  0  0  0
  1  3  1  0  0  0  0
  1  7  1  0  0  0  0
  1  2  2  0  0  0  0
 37 38  1  0  0  0  0
 38 46  1  0  0  0  0
 38 39  2  0  0  0  0
  8  9  1  0  0  0  0
  9 17  1  0  0  0  0
  9 10  2  0  0  0  0
 18 19  1  0  0  0  0
 19 36  1  0  0  0  0
 19 20  2  0  0  0  0
 37 40  1  0  0  0  0
  8 11  1  0  0  0  0
 22 23  1  0  0  0  0
 22 24  1  0  0  0  0
 46 47  1  0  0  0  0
 18 21  1  0  0  0  0
 21 22  1  0  0  0  0
 36 37  1  0  0  0  0
  7  8  1  0  0  0  0
 17 18  1  0  0  0  0
  3  4  1  0  0  0  0
  3  5  1  0  0  0  0
  3  6  1  0  0  0  0
 40 43  1  0  0  0  0
 40 44  1  0  0  0  0
 40 45  1  0  0  0  0
 11 14  1  0  0  0  0
 11 15  1  0  0  0  0
 11 16  1  0  0  0  0
 23 30  1  0  0  0  0
 23 31  1  0  0  0  0
 23 32  1  0  0  0  0
 24 33  1  0  0  0  0
 24 34  1  0  0  0  0
 24 35  1  0  0  0  0
 47 49  1  0  0  0  0
 47 50  1  0  0  0  0
 47 51  1  0  0  0  0
 21 27  1  0  0  0  0
 21 28  1  0  0  0  0
 37 42  1  0  0  0  0
  8 13  1  0  0  0  0
 18 26  1  0  0  0  0
 22 29  1  0  0  0  0
 46 48  1  0  0  0  0
  7 12  1  0  0  0  0
 36 41  1  0  0  0  0
 17 25  1  0  0  0  0
M  END
$$$$

  -OEChem-05262214473D

 51 50  0     1  0  0  0  0  0999 V2000
    3.4018   -1.2440   -3.0186 C   0  0  0  0  0  0  0  0  0  0  0  0
    3.2697   -2.0909   -2.1427 O   0  0  0  0  0  0  0  0  0  0  0  0
    4.6845   -1.1645   -3.7779 C   0  0  0  0  0  0  0  0  0  0  0  0
    5.4123   -0.4862   -3.3041 H   0  0  0  0  0  0  0  0  0  0  0  0
    5.1949   -2.1387   -3.8443 H   0  0  0  0  0  0  0  0  0  0  0  0
    4.5953   -0.8128   -4.8182 H   0  0  0  0  0  0  0  0  0  0  0  0
    2.4540   -0.3103   -3.4040 N   0  0  0  0  0  0  0  0  0  0  0  0
    1.1494   -0.2128   -2.8039 C   0  0  2  0  0  0  0  0  0  0  0  0
    1.3350    0.0367   -1.3130 C   0  0  0  0  0  0  0  0  0  0  0  0
    2.3625   -0.2586   -0.7063 O   0  0  0  0  0  0  0  0  0  0  0  0
    0.3331   -1.4728   -3.0467 C   0  0  0  0  0  0  0  0  0  0  0  0
    2.6924    0.3404   -4.1502 H   0  0  0  0  0  0  0  0  0  0  0  0
    0.6550    0.6514   -3.2607 H   0  0  0  0  0  0  0  0  0  0  0  0
    0.8129   -2.3494   -2.5963 H   0  0  0  0  0  0  0  0  0  0  0  0
   -0.6690   -1.3857   -2.6142 H   0  0  0  0  0  0  0  0  0  0  0  0
    0.2259   -1.6670   -4.1194 H   0  0  0  0  0  0  0  0  0  0  0  0
    0.2019    0.5893   -0.7269 N   0  0  0  0  0  0  0  0  0  0  0  0
    0.1242    0.9059    0.6756 C   0  0  2  0  0  0  0  0  0  0  0  0
   -0.8253    2.0916    0.8163 C   0  0  0  0  0  0  0  0  0  0  0  0
   -1.2029    2.7638   -0.1412 O   0  0  0  0  0  0  0  0  0  0  0  0
    1.4957    1.2512    1.2697 C   0  0  0  0  0  0  0  0  0  0  0  0
    2.5007    0.0817    1.2997 C   0  0  0  0  0  0  0  0  0  0  0  0
    3.8669    0.5873    1.7717 C   0  0  0  0  0  0  0  0  0  0  0  0
    2.6455   -0.5973   -0.0629 C   0  0  0  0  0  0  0  0  0  0  0  0
   -0.5975    0.8179   -1.3140 H   0  0  0  0  0  0  0  0  0  0  0  0
   -0.3196    0.0386    1.1748 H   0  0  0  0  0  0  0  0  0  0  0  0
    1.3549    1.6200    2.2955 H   0  0  0  0  0  0  0  0  0  0  0  0
    1.9348    2.0874    0.7095 H   0  0  0  0  0  0  0  0  0  0  0  0
    2.1584   -0.6685    2.0230 H   0  0  0  0  0  0  0  0  0  0  0  0
    4.2610    1.3433    1.0843 H   0  0  0  0  0  0  0  0  0  0  0  0
    4.5916   -0.2327    1.8147 H   0  0  0  0  0  0  0  0  0  0  0  0
    3.8026    1.0362    2.7688 H   0  0  0  0  0  0  0  0  0  0  0  0
    2.9867    0.1113   -0.8253 H   0  0  0  0  0  0  0  0  0  0  0  0
    3.3722   -1.4155   -0.0135 H   0  0  0  0  0  0  0  0  0  0  0  0
    1.6971   -1.0285   -0.3966 H   0  0  0  0  0  0  0  0  0  0  0  0
   -1.2380    2.2752    2.1287 N   0  0  0  0  0  0  0  0  0  0  0  0
   -2.1596    3.3128    2.5320 C   0  0  2  0  0  0  0  0  0  0  0  0
   -3.2349    3.4294    1.4598 C   0  0  0  0  0  0  0  0  0  0  0  0
   -3.0705    3.0530    0.3012 O   0  0  0  0  0  0  0  0  0  0  0  0
   -1.4452    4.6403    2.7320 C   0  0  0  0  0  0  0  0  0  0  0  0
   -0.8909    1.6507    2.8507 H   0  0  0  0  0  0  0  0  0  0  0  0
   -2.6149    2.9834    3.4724 H   0  0  0  0  0  0  0  0  0  0  0  0
   -0.9827    4.9864    1.8005 H   0  0  0  0  0  0  0  0  0  0  0  0
   -2.1399    5.4184    3.0651 H   0  0  0  0  0  0  0  0  0  0  0  0
   -0.6524    4.5471    3.4821 H   0  0  0  0  0  0  0  0  0  0  0  0
   -4.3844    4.0426    1.9381 N   0  0  0  0  0  0  0  0  0  0  0  0
   -5.5435    4.2804    1.1098 C   0  0  0  0  0  0  0  0  0  0  0  0
   -4.4400    4.3053    2.9177 H   0  0  0  0  0  0  0  0  0  0  0  0
   -5.4781    5.2850    0.6665 H   0  0  0  0  0  0  0  0  0  0  0  0
   -5.5819    3.5279    0.3084 H   0  0  0  0  0  0  0  0  0  0  0  0
   -6.4535    4.2091    1.7236 H   0  0  0  0  0  0  0  0  0  0  0  0
  1  3  1  0  0  0  0
  1  7  1  0  0  0  0
  1  2  2  0  0  0  0
 37 38  1  0  0  0  0
 38 46  1  0  0  0  0
 38 39  2  0  0  0  0
  8  9  1  0  0  0  0
  9 17  1  0  0  0  0
  9 10  2  0  0  0  0
 18 19  1  0  0  0  0
 19 36  1  0  0  0  0
 19 20  2  0  0  0  0
 37 40  1  0  0  0  0
  8 11  1  0  0  0  0
 22 23  1  0  0  0  0
 22 24  1  0  0  0  0
 46 47  1  0  0  0  0
 18 21  1  0  0  0  0
 21 22  1  0  0  0  0
 36 37  1  0  0  0  0
  7  8  1  0  0  0  0
 17 18  1  0  0  0  0
  3  4  1  0  0  0  0
  3  5  1  0  0  0  0
  3  6  1  0  0  0  0
 40 43  1  0  0  0  0
 40 44  1  0  0  0  0
 40 45  1  0  0  0  0
 11 14  1  0  0  0  0
 11 15  1  0  0  0  0
 11 16  1  0  0  0  0
 23 30  1  0  0  0  0
 23 31  1  0  0  0  0
 23 32  1  0  0  0  0
 24 33  1  0  0  0  0
 24 34  1  0  0  0  0
 24 35  1  0  0  0  0
 47 49  1  0  0  0  0
 47 50  1  0  0  0  0
 47 51  1  0  0  0  0
 21 27  1  0  0  0  0
 21 28  1  0  0  0  0
 37 42  1  0  0  0  0
  8 13  1  0  0  0  0
 18 26  1  0  0  0  0
 22 29  1  0  0  0  0
 46 48  1  0  0  0  0
  7 12  1  0  0  0  0
 36 41  1  0  0  0  0
 17 25  1  0  0  0  0
M  END
$$$$

  -OEChem-05262214473D

 51 50  0     1  0  0  0  0  0999 V2000
    3.4018   -1.2440   -3.0186 C   0  0  0  0  0  0  0  0  0  0  0  0
    3.2697   -2.0909   -2.1427 O   0  0  0  0  0  0  0  0  0  0  0  0
    4.6845   -1.1645   -3.7779 C   0  0  0  0  0  0  0  0  0  0  0  0
    5.4123   -0.4862   -3.3041 H   0  0  0  0  0  0  0  0  0  0  0  0
    5.1949   -2.1387   -3.8443 H   0  0  0  0  0  0  0  0  0  0  0  0
    4.5953   -0.8128   -4.8182 H   0  0  0  0  0  0  0  0  0  0  0  0
    2.4540   -0.3103   -3.4040 N   0  0  0  0  0  0  0  0  0  0  0  0
    1.1494   -0.2128   -2.8039 C   0  0  2  0  0  0  0  0  0  0  0  0
    1.3350    0.0367   -1.3130 C   0  0  0  0  0  0  0  0  0  0  0  0
    2.3625   -0.2586   -0.7063 O   0  0  0  0  0  0  0  0  0  0  0  0
    0.3331   -1.4728   -3.0467 C   0  0  0  0  0  0  0  0  0  0  0  0
    2.6924    0.3404   -4.1502 H   0  0  0  0  0  0  0  0  0  0  0  0
    0.6550    0.6514   -3.2607 H   0  0  0  0  0  0  0  0  0  0  0  0
    0.8129   -2.3494   -2.5963 H   0  0  0  0  0  0  0  0  0  0  0  0
   -0.6690   -1.3857   -2.6142 H   0  0  0  0  0  0  0  0  0  0  0  0
    0.2259   -1.6670   -4.1194 H   0  0  0  0  0  0  0  0  0  0  0  0
    0.2019    0.5893   -0.7269 N   0  0  0  0  0  0  0  0  0  0  0  0
    0.1242    0.9059    0.6756 C   0  0  2  0  0  0  0  0  0  0  0  0
   -1.0846    1.8172    0.8639 C   0  0  0  0  0  0  0  0  0  0  0  0
   -1.8322    2.1365   -0.0584 O   0  0  0  0  0  0  0  0  0  0  0  0
    1.3946    1.5978    1.1859 C   0  0  0  0  0  0  0  0  0  0  0  0
    2.6625    0.7199    1.1646 C   0  0  0  0  0  0  0  0  0  0  0  0
    3.8806    1.5629    1.5522 C   0  0  0  0  0  0  0  0  0  0  0  0
    2.8987    0.0704   -0.1996 C   0  0  0  0  0  0  0  0  0  0  0  0
   -0.5975    0.8179   -1.3140 H   0  0  0  0  0  0  0  0  0  0  0  0
   -0.0581   -0.0343    1.2058 H   0  0  0  0  0  0  0  0  0  0  0  0
    1.2220    1.9411    2.2156 H   0  0  0  0  0  0  0  0  0  0  0  0
    1.5768    2.5055    0.5953 H   0  0  0  0  0  0  0  0  0  0  0  0
    2.5611   -0.0768    1.9117 H   0  0  0  0  0  0  0  0  0  0  0  0
    4.0325    2.3790    0.8378 H   0  0  0  0  0  0  0  0  0  0  0  0
    4.7901    0.9529    1.5580 H   0  0  0  0  0  0  0  0  0  0  0  0
    3.7601    2.0023    2.5483 H   0  0  0  0  0  0  0  0  0  0  0  0
    3.0073    0.8256   -0.9854 H   0  0  0  0  0  0  0  0  0  0  0  0
    3.8100   -0.5374   -0.1874 H   0  0  0  0  0  0  0  0  0  0  0  0
    2.0730   -0.5926   -0.4741 H   0  0  0  0  0  0  0  0  0  0  0  0
   -1.2558    2.1875    2.1905 N   0  0  0  0  0  0  0  0  0  0  0  0
   -2.3411    3.0264    2.6456 C   0  0  2  0  0  0  0  0  0  0  0  0
   -3.5979    2.6227    1.8861 C   0  0  0  0  0  0  0  0  0  0  0  0
   -3.5697    2.0442    0.8018 O   0  0  0  0  0  0  0  0  0  0  0  0
   -2.0278    4.4995    2.4342 C   0  0  0  0  0  0  0  0  0  0  0  0
   -0.5992    1.8516    2.8889 H   0  0  0  0  0  0  0  0  0  0  0  0
   -2.4757    2.8183    3.7126 H   0  0  0  0  0  0  0  0  0  0  0  0
   -1.8896    4.7272    1.3709 H   0  0  0  0  0  0  0  0  0  0  0  0
   -2.8387    5.1348    2.8055 H   0  0  0  0  0  0  0  0  0  0  0  0
   -1.1073    4.7811    2.9568 H   0  0  0  0  0  0  0  0  0  0  0  0
   -4.7544    3.0227    2.5408 N   0  0  0  0  0  0  0  0  0  0  0  0
   -6.0755    2.7679    2.0155 C   0  0  0  0  0  0  0  0  0  0  0  0
   -4.6840    3.4802    3.4449 H   0  0  0  0  0  0  0  0  0  0  0  0
   -6.4033    3.6280    1.4133 H   0  0  0  0  0  0  0  0  0  0  0  0
   -6.0518    1.8668    1.3851 H   0  0  0  0  0  0  0  0  0  0  0  0
   -6.7777    2.6145    2.8482 H   0  0  0  0  0  0  0  0  0  0  0  0
  1  3  1  0  0  0  0
  1  7  1  0  0  0  0
  1  2  2  0  0  0  0
 37 38  1  0  0  0  0
 38 46  1  0  0  0  0
 38 39  2  0  0  0  0
  8  9  1  0  0  0  0
  9 17  1  0  0  0  0
  9 10  2  0  0  0  0
 18 19  1  0  0  0  0
 19 36  1  0  0  0  0
 19 20  2  0  0  0  0
 37 40  1  0  0  0  0
  8 11  1  0  0  0  0
 22 23  1  0  0  0  0
 22 24  1  0  0  0  0
 46 47  1  0  0  0  0
 18 21  1  0  0  0  0
 21 22  1  0  0  0  0
 36 37  1  0  0  0  0
  7  8  1  0  0  0  0
 17 18  1  0  0  0  0
  3  4  1  0  0  0  0
  3  5  1  0  0  0  0
  3  6  1  0  0  0  0
 40 43  1  0  0  0  0
 40 44  1  0  0  0  0
 40 45  1  0  0  0  0
 11 14  1  0  0  0  0
 11 15  1  0  0  0  0
 11 16  1  0  0  0  0
 23 30  1  0  0  0  0
 23 31  1  0  0  0  0
 23 32  1  0  0  0  0
 24 33  1  0  0  0  0
 24 34  1  0  0  0  0
 24 35  1  0  0  0  0
 47 49  1  0  0  0  0
 47 50  1  0  0  0  0
 47 51  1  0  0  0  0
 21 27  1  0  0  0  0
 21 28  1  0  0  0  0
 37 42  1  0  0  0  0
  8 13  1  0  0  0  0
 18 26  1  0  0  0  0
 22 29  1  0  0  0  0
 46 48  1  0  0  0  0
  7 12  1  0  0  0  0
 36 41  1  0  0  0  0
 17 25  1  0  0  0  0
M  END
$$$$

  -OEChem-05262214473D

 51 50  0     1  0  0  0  0  0999 V2000
    3.4018   -1.2440   -3.0186 C   0  0  0  0  0  0  0  0  0  0  0  0
    3.2697   -2.0909   -2.1427 O   0  0  0  0  0  0  0  0  0  0  0  0
    4.6845   -1.1645   -3.7779 C   0  0  0  0  0  0  0  0  0  0  0  0
    5.4123   -0.4862   -3.3041 H   0  0  0  0  0  0  0  0  0  0  0  0
    5.1949   -2.1387   -3.8443 H   0  0  0  0  0  0  0  0  0  0  0  0
    4.5953   -0.8128   -4.8182 H   0  0  0  0  0  0  0  0  0  0  0  0
    2.4540   -0.3103   -3.4040 N   0  0  0  0  0  0  0  0  0  0  0  0
    1.1494   -0.2128   -2.8039 C   0  0  2  0  0  0  0  0  0  0  0  0
    1.3350    0.0367   -1.3130 C   0  0  0  0  0  0  0  0  0  0  0  0
    2.3625   -0.2586   -0.7063 O   0  0  0  0  0  0  0  0  0  0  0  0
    0.3331   -1.4728   -3.0467 C   0  0  0  0  0  0  0  0  0  0  0  0
    2.6924    0.3404   -4.1502 H   0  0  0  0  0  0  0  0  0  0  0  0
    0.6550    0.6514   -3.2607 H   0  0  0  0  0  0  0  0  0  0  0  0
    0.8129   -2.3494   -2.5963 H   0  0  0  0  0  0  0  0  0  0  0  0
   -0.6690   -1.3857   -2.6142 H   0  0  0  0  0  0  0  0  0  0  0  0
    0.2259   -1.6670   -4.1194 H   0  0  0  0  0  0  0  0  0  0  0  0
    0.2019    0.5893   -0.7269 N   0  0  0  0  0  0  0  0  0  0  0  0
    0.1242    0.9059    0.6756 C   0  0  2  0  0  0  0  0  0  0  0  0
   -1.0846    1.8172    0.8639 C   0  0  0  0  0  0  0  0  0  0  0  0
   -1.9775    1.9262    0.0260 O   0  0  0  0  0  0  0  0  0  0  0  0
    1.3946    1.5978    1.1859 C   0  0  0  0  0  0  0  0  0  0  0  0
    2.6625    0.7199    1.1646 C   0  0  0  0  0  0  0  0  0  0  0  0
    3.8806    1.5629    1.5522 C   0  0  0  0  0  0  0  0  0  0  0  0
    2.8987    0.0704   -0.1996 C   0  0  0  0  0  0  0  0  0  0  0  0
   -0.5975    0.8179   -1.3140 H   0  0  0  0  0  0  0  0  0  0  0  0
   -0.0581   -0.0343    1.2058 H   0  0  0  0  0  0  0  0  0  0  0  0
    1.2220    1.9411    2.2156 H   0  0  0  0  0  0  0  0  0  0  0  0
    1.5768    2.5055    0.5953 H   0  0  0  0  0  0  0  0  0  0  0  0
    2.5611   -0.0768    1.9117 H   0  0  0  0  0  0  0  0  0  0  0  0
    4.0325    2.3790    0.8378 H   0  0  0  0  0  0  0  0  0  0  0  0
    4.7901    0.9529    1.5580 H   0  0  0  0  0  0  0  0  0  0  0  0
    3.7601    2.0023    2.5483 H   0  0  0  0  0  0  0  0  0  0  0  0
    3.0073    0.8256   -0.9854 H   0  0  0  0  0  0  0  0  0  0  0  0
    3.8100   -0.5374   -0.1874 H   0  0  0  0  0  0  0  0  0  0  0  0
    2.0730   -0.5926   -0.4741 H   0  0  0  0  0  0  0  0  0  0  0  0
   -1.0707    2.4521    2.0981 N   0  0  0  0  0  0  0  0  0  0  0  0
   -2.1137    3.3499    2.5393 C   0  0  2  0  0  0  0  0  0  0  0  0
   -3.4501    2.7775    2.0856 C   0  0  0  0  0  0  0  0  0  0  0  0
   -3.5585    1.9871    1.1504 O   0  0  0  0  0  0  0  0  0  0  0  0
   -1.9073    4.7518    1.9871 C   0  0  0  0  0  0  0  0  0  0  0  0
   -0.3006    2.2790    2.7373 H   0  0  0  0  0  0  0  0  0  0  0  0
   -2.0753    3.3657    3.6340 H   0  0  0  0  0  0  0  0  0  0  0  0
   -1.9425    4.7559    0.8915 H   0  0  0  0  0  0  0  0  0  0  0  0
   -2.6822    5.4375    2.3453 H   0  0  0  0  0  0  0  0  0  0  0  0
   -0.9329    5.1503    2.2897 H   0  0  0  0  0  0  0  0  0  0  0  0
   -4.5121    3.2864    2.8200 N   0  0  0  0  0  0  0  0  0  0  0  0
   -5.8837    2.9072    2.5726 C   0  0  0  0  0  0  0  0  0  0  0  0
   -4.3278    3.9227    3.5899 H   0  0  0  0  0  0  0  0  0  0  0  0
   -6.3398    3.6183    1.8681 H   0  0  0  0  0  0  0  0  0  0  0  0
   -5.9123    1.8954    2.1421 H   0  0  0  0  0  0  0  0  0  0  0  0
   -6.4436    2.9189    3.5193 H   0  0  0  0  0  0  0  0  0  0  0  0
  1  3  1  0  0  0  0
  1  7  1  0  0  0  0
  1  2  2  0  0  0  0
 37 38  1  0  0  0  0
 38 46  1  0  0  0  0
 38 39  2  0  0  0  0
  8  9  1  0  0  0  0
  9 17  1  0  0  0  0
  9 10  2  0  0  0  0
 18 19  1  0  0  0  0
 19 36  1  0  0  0  0
 19 20  2  0  0  0  0
 37 40  1  0  0  0  0
  8 11  1  0  0  0  0
 22 23  1  0  0  0  0
 22 24  1  0  0  0  0
 46 47  1  0  0  0  0
 18 21  1  0  0  0  0
 21 22  1  0  0  0  0
 36 37  1  0  0  0  0
  7  8  1  0  0  0  0
 17 18  1  0  0  0  0
  3  4  1  0  0  0  0
  3  5  1  0  0  0  0
  3  6  1  0  0  0  0
 40 43  1  0  0  0  0
 40 44  1  0  0  0  0
 40 45  1  0  0  0  0
 11 14  1  0  0  0  0
 11 15  1  0  0  0  0
 11 16  1  0  0  0  0
 23 30  1  0  0  0  0
 23 31  1  0  0  0  0
 23 32  1  0  0  0  0
 24 33  1  0  0  0  0
 24 34  1  0  0  0  0
 24 35  1  0  0  0  0
 47 49  1  0  0  0  0
 47 50  1  0  0  0  0
 47 51  1  0  0  0  0
 21 27  1  0  0  0  0
 21 28  1  0  0  0  0
 37 42  1  0  0  0  0
  8 13  1  0  0  0  0
 18 26  1  0  0  0  0
 22 29  1  0  0  0  0
 46 48  1  0  0  0  0
  7 12  1  0  0  0  0
 36 41  1  0  0  0  0
 17 25  1  0  0  0  0
M  END
$$$$

  -OEChem-05262214473D

 51 50  0     1  0  0  0  0  0999 V2000
    3.4018   -1.2440   -3.0186 C   0  0  0  0  0  0  0  0  0  0  0  0
    3.2697   -2.0909   -2.1427 O   0  0  0  0  0  0  0  0  0  0  0  0
    4.6845   -1.1645   -3.7779 C   0  0  0  0  0  0  0  0  0  0  0  0
    5.4123   -0.4862   -3.3041 H   0  0  0  0  0  0  0  0  0  0  0  0
    5.1949   -2.1387   -3.8443 H   0  0  0  0  0  0  0  0  0  0  0  0
    4.5953   -0.8128   -4.8182 H   0  0  0  0  0  0  0  0  0  0  0  0
    2.4540   -0.3103   -3.4040 N   0  0  0  0  0  0  0  0  0  0  0  0
    1.1494   -0.2128   -2.8039 C   0  0  2  0  0  0  0  0  0  0  0  0
    1.3350    0.0367   -1.3130 C   0  0  0  0  0  0  0  0  0  0  0  0
    2.3625   -0.2586   -0.7063 O   0  0  0  0  0  0  0  0  0  0  0  0
    0.3331   -1.4728   -3.0467 C   0  0  0  0  0  0  0  0  0  0  0  0
    2.6924    0.3404   -4.1502 H   0  0  0  0  0  0  0  0  0  0  0  0
    0.6550    0.6514   -3.2607 H   0  0  0  0  0  0  0  0  0  0  0  0
    0.8129   -2.3494   -2.5963 H   0  0  0  0  0  0  0  0  0  0  0  0
   -0.6690   -1.3857   -2.6142 H   0  0  0  0  0  0  0  0  0  0  0  0
    0.2259   -1.6670   -4.1194 H   0  0  0  0  0  0  0  0  0  0  0  0
    0.2019    0.5893   -0.7269 N   0  0  0  0  0  0  0  0  0  0  0  0
    0.1242    0.9059    0.6756 C   0  0  2  0  0  0  0  0  0  0  0  0
   -1.0846    1.8172    0.8639 C   0  0  0  0  0  0  0  0  0  0  0  0
   -2.0982    1.7357    0.1730 O   0  0  0  0  0  0  0  0  0  0  0  0
    1.3946    1.5978    1.1859 C   0  0  0  0  0  0  0  0  0  0  0  0
    2.6625    0.7199    1.1646 C   0  0  0  0  0  0  0  0  0  0  0  0
    3.8806    1.5629    1.5522 C   0  0  0  0  0  0  0  0  0  0  0  0
    2.8987    0.0704   -0.1996 C   0  0  0  0  0  0  0  0  0  0  0  0
   -0.5975    0.8179   -1.3140 H   0  0  0  0  0  0  0  0  0  0  0  0
   -0.0581   -0.0343    1.2058 H   0  0  0  0  0  0  0  0  0  0  0  0
    1.2220    1.9411    2.2156 H   0  0  0  0  0  0  0  0  0  0  0  0
    1.5768    2.5055    0.5953 H   0  0  0  0  0  0  0  0  0  0  0  0
    2.5611   -0.0768    1.9117 H   0  0  0  0  0  0  0  0  0  0  0  0
    4.0325    2.3790    0.8378 H   0  0  0  0  0  0  0  0  0  0  0  0
    4.7901    0.9529    1.5580 H   0  0  0  0  0  0  0  0  0  0  0  0
    3.7601    2.0023    2.5483 H   0  0  0  0  0  0  0  0  0  0  0  0
    3.0073    0.8256   -0.9854 H   0  0  0  0  0  0  0  0  0  0  0  0
    3.8100   -0.5374   -0.1874 H   0  0  0  0  0  0  0  0  0  0  0  0
    2.0730   -0.5926   -0.4741 H   0  0  0  0  0  0  0  0  0  0  0  0
   -0.9147    2.6946    1.9258 N   0  0  0  0  0  0  0  0  0  0  0  0
   -1.9209    3.6479    2.3351 C   0  0  2  0  0  0  0  0  0  0  0  0
   -3.2815    2.9727    2.2237 C   0  0  0  0  0  0  0  0  0  0  0  0
   -3.4919    2.0037    1.4971 O   0  0  0  0  0  0  0  0  0  0  0  0
   -1.8680    4.9076    1.4848 C   0  0  0  0  0  0  0  0  0  0  0  0
   -0.0494    2.6702    2.4570 H   0  0  0  0  0  0  0  0  0  0  0  0
   -1.7181    3.8912    3.3838 H   0  0  0  0  0  0  0  0  0  0  0  0
   -2.0688    4.6837    0.4308 H   0  0  0  0  0  0  0  0  0  0  0  0
   -2.6119    5.6404    1.8145 H   0  0  0  0  0  0  0  0  0  0  0  0
   -0.8793    5.3757    1.5427 H   0  0  0  0  0  0  0  0  0  0  0  0
   -4.2434    3.6060    2.9981 N   0  0  0  0  0  0  0  0  0  0  0  0
   -5.6167    3.1622    3.0524 C   0  0  0  0  0  0  0  0  0  0  0  0
   -3.9755    4.3912    3.5842 H   0  0  0  0  0  0  0  0  0  0  0  0
   -6.2079    3.7042    2.2996 H   0  0  0  0  0  0  0  0  0  0  0  0
   -5.6615    2.0827    2.8459 H   0  0  0  0  0  0  0  0  0  0  0  0
   -6.0269    3.3613    4.0534 H   0  0  0  0  0  0  0  0  0  0  0  0
  1  3  1  0  0  0  0
  1  7  1  0  0  0  0
  1  2  2  0  0  0  0
 37 38  1  0  0  0  0
 38 46  1  0  0  0  0
 38 39  2  0  0  0  0
  8  9  1  0  0  0  0
  9 17  1  0  0  0  0
  9 10  2  0  0  0  0
 18 19  1  0  0  0  0
 19 36  1  0  0  0  0
 19 20  2  0  0  0  0
 37 40  1  0  0  0  0
  8 11  1  0  0  0  0
 22 23  1  0  0  0  0
 22 24  1  0  0  0  0
 46 47  1  0  0  0  0
 18 21  1  0  0  0  0
 21 22  1  0  0  0  0
 36 37  1  0  0  0  0
  7  8  1  0  0  0  0
 17 18  1  0  0  0  0
  3  4  1  0  0  0  0
  3  5  1  0  0  0  0
  3  6  1  0  0  0  0
 40 43  1  0  0  0  0
 40 44  1  0  0  0  0
 40 45  1  0  0  0  0
 11 14  1  0  0  0  0
 11 15  1  0  0  0  0
 11 16  1  0  0  0  0
 23 30  1  0  0  0  0
 23 31  1  0  0  0  0
 23 32  1  0  0  0  0
 24 33  1  0  0  0  0
 24 34  1  0  0  0  0
 24 35  1  0  0  0  0
 47 49  1  0  0  0  0
 47 50  1  0  0  0  0
 47 51  1  0  0  0  0
 21 27  1  0  0  0  0
 21 28  1  0  0  0  0
 37 42  1  0  0  0  0
  8 13  1  0  0  0  0
 18 26  1  0  0  0  0
 22 29  1  0  0  0  0
 46 48  1  0  0  0  0
  7 12  1  0  0  0  0
 36 41  1  0  0  0  0
 17 25  1  0  0  0  0
M  END
$$$$

  -OEChem-05262214473D

 51 50  0     1  0  0  0  0  0999 V2000
    3.4018   -1.2440   -3.0186 C   0  0  0  0  0  0  0  0  0  0  0  0
    3.2697   -2.0909   -2.1427 O   0  0  0  0  0  0  0  0  0  0  0  0
    4.6845   -1.1645   -3.7779 C   0  0  0  0  0  0  0  0  0  0  0  0
    5.4123   -0.4862   -3.3041 H   0  0  0  0  0  0  0  0  0  0  0  0
    5.1949   -2.1387   -3.8443 H   0  0  0  0  0  0  0  0  0  0  0  0
    4.5953   -0.8128   -4.8182 H   0  0  0  0  0  0  0  0  0  0  0  0
    2.4540   -0.3103   -3.4040 N   0  0  0  0  0  0  0  0  0  0  0  0
    1.1494   -0.2128   -2.8039 C   0  0  2  0  0  0  0  0  0  0  0  0
    1.3350    0.0367   -1.3130 C   0  0  0  0  0  0  0  0  0  0  0  0
    2.3625   -0.2586   -0.7063 O   0  0  0  0  0  0  0  0  0  0  0  0
    0.3331   -1.4728   -3.0467 C   0  0  0  0  0  0  0  0  0  0  0  0
    2.6924    0.3404   -4.1502 H   0  0  0  0  0  0  0  0  0  0  0  0
    0.6550    0.6514   -3.2607 H   0  0  0  0  0  0  0  0  0  0  0  0
    0.8129   -2.3494   -2.5963 H   0  0  0  0  0  0  0  0  0  0  0  0
   -0.6690   -1.3857   -2.6142 H   0  0  0  0  0  0  0  0  0  0  0  0
    0.2259   -1.6670   -4.1194 H   0  0  0  0  0  0  0  0  0  0  0  0
    0.2019    0.5893   -0.7269 N   0  0  0  0  0  0  0  0  0  0  0  0
    0.1242    0.9059    0.6756 C   0  0  2  0  0  0  0  0  0  0  0  0
   -1.0846    1.8172    0.8639 C   0  0  0  0  0  0  0  0  0  0  0  0
   -2.1860    1.5781    0.3728 O   0  0  0  0  0  0  0  0  0  0  0  0
    1.3946    1.5978    1.1859 C   0  0  0  0  0  0  0  0  0  0  0  0
    2.6625    0.7199    1.1646 C   0  0  0  0  0  0  0  0  0  0  0  0
    3.8806    1.5629    1.5522 C   0  0  0  0  0  0  0  0  0  0  0  0
    2.8987    0.0704   -0.1996 C   0  0  0  0  0  0  0  0  0  0  0  0
   -0.5975    0.8179   -1.3140 H   0  0  0  0  0  0  0  0  0  0  0  0
   -0.0581   -0.0343    1.2058 H   0  0  0  0  0  0  0  0  0  0  0  0
    1.2220    1.9411    2.2156 H   0  0  0  0  0  0  0  0  0  0  0  0
    1.5768    2.5055    0.5953 H   0  0  0  0  0  0  0  0  0  0  0  0
    2.5611   -0.0768    1.9117 H   0  0  0  0  0  0  0  0  0  0  0  0
    4.0325    2.3790    0.8378 H   0  0  0  0  0  0  0  0  0  0  0  0
    4.7901    0.9529    1.5580 H   0  0  0  0  0  0  0  0  0  0  0  0
    3.7601    2.0023    2.5483 H   0  0  0  0  0  0  0  0  0  0  0  0
    3.0073    0.8256   -0.9854 H   0  0  0  0  0  0  0  0  0  0  0  0
    3.8100   -0.5374   -0.1874 H   0  0  0  0  0  0  0  0  0  0  0  0
    2.0730   -0.5926   -0.4741 H   0  0  0  0  0  0  0  0  0  0  0  0
   -0.7984    2.8985    1.6856 N   0  0  0  0  0  0  0  0  0  0  0  0
   -1.7757    3.9000    2.0470 C   0  0  2  0  0  0  0  0  0  0  0  0
   -3.1034    3.1949    2.2909 C   0  0  0  0  0  0  0  0  0  0  0  0
   -3.3746    2.0930    1.8183 O   0  0  0  0  0  0  0  0  0  0  0  0
   -1.9127    4.9564    0.9617 C   0  0  0  0  0  0  0  0  0  0  0  0
    0.1375    2.9986    2.0673 H   0  0  0  0  0  0  0  0  0  0  0  0
   -1.4285    4.3589    2.9791 H   0  0  0  0  0  0  0  0  0  0  0  0
   -2.2596    4.5154    0.0201 H   0  0  0  0  0  0  0  0  0  0  0  0
   -2.6325    5.7298    1.2494 H   0  0  0  0  0  0  0  0  0  0  0  0
   -0.9503    5.4419    0.7666 H   0  0  0  0  0  0  0  0  0  0  0  0
   -3.9665    3.9599    3.0630 N   0  0  0  0  0  0  0  0  0  0  0  0
   -5.2928    3.5154    3.4223 C   0  0  0  0  0  0  0  0  0  0  0  0
   -3.6511    4.8538    3.4281 H   0  0  0  0  0  0  0  0  0  0  0  0
   -6.0164    3.8799    2.6783 H   0  0  0  0  0  0  0  0  0  0  0  0
   -5.3164    2.4159    3.4485 H   0  0  0  0  0  0  0  0  0  0  0  0
   -5.5560    3.9115    4.4142 H   0  0  0  0  0  0  0  0  0  0  0  0
  1  3  1  0  0  0  0
  1  7  1  0  0  0  0
  1  2  2  0  0  0  0
 37 38  1  0  0  0  0
 38 46  1  0  0  0  0
 38 39  2  0  0  0  0
  8  9  1  0  0  0  0
  9 17  1  0  0  0  0
  9 10  2  0  0  0  0
 18 19  1  0  0  0  0
 19 36  1  0  0  0  0
 19 20  2  0  0  0  0
 37 40  1  0  0  0  0
  8 11  1  0  0  0  0
 22 23  1  0  0  0  0
 22 24  1  0  0  0  0
 46 47  1  0  0  0  0
 18 21  1  0  0  0  0
 21 22  1  0  0  0  0
 36 37  1  0  0  0  0
  7  8  1  0  0  0  0
 17 18  1  0  0  0  0
  3  4  1  0  0  0  0
  3  5  1  0  0  0  0
  3  6  1  0  0  0  0
 40 43  1  0  0  0  0
 40 44  1  0  0  0  0
 40 45  1  0  0  0  0
 11 14  1  0  0  0  0
 11 15  1  0  0  0  0
 11 16  1  0  0  0  0
 23 30  1  0  0  0  0
 23 31  1  0  0  0  0
 23 32  1  0  0  0  0
 24 33  1  0  0  0  0
 24 34  1  0  0  0  0
 24 35  1  0  0  0  0
 47 49  1  0  0  0  0
 47 50  1  0  0  0  0
 47 51  1  0  0  0  0
 21 27  1  0  0  0  0
 21 28  1  0  0  0  0
 37 42  1  0  0  0  0
  8 13  1  0  0  0  0
 18 26  1  0  0  0  0
 22 29  1  0  0  0  0
 46 48  1  0  0  0  0
  7 12  1  0  0  0  0
 36 41  1  0  0  0  0
 17 25  1  0  0  0  0
M  END
$$$$

  -OEChem-05262214473D

 51 50  0     1  0  0  0  0  0999 V2000
    3.4018   -1.2440   -3.0186 C   0  0  0  0  0  0  0  0  0  0  0  0
    3.2697   -2.0909   -2.1427 O   0  0  0  0  0  0  0  0  0  0  0  0
    4.6845   -1.1645   -3.7779 C   0  0  0  0  0  0  0  0  0  0  0  0
    5.4123   -0.4862   -3.3041 H   0  0  0  0  0  0  0  0  0  0  0  0
    5.1949   -2.1387   -3.8443 H   0  0  0  0  0  0  0  0  0  0  0  0
    4.5953   -0.8128   -4.8182 H   0  0  0  0  0  0  0  0  0  0  0  0
    2.4540   -0.3103   -3.4040 N   0  0  0  0  0  0  0  0  0  0  0  0
    1.1494   -0.2128   -2.8039 C   0  0  2  0  0  0  0  0  0  0  0  0
    1.3350    0.0367   -1.3130 C   0  0  0  0  0  0  0  0  0  0  0  0
    2.3625   -0.2586   -0.7063 O   0  0  0  0  0  0  0  0  0  0  0  0
    0.3331   -1.4728   -3.0467 C   0  0  0  0  0  0  0  0  0  0  0  0
    2.6924    0.3404   -4.1502 H   0  0  0  0  0  0  0  0  0  0  0  0
    0.6550    0.6514   -3.2607 H   0  0  0  0  0  0  0  0  0  0  0  0
    0.8129   -2.3494   -2.5963 H   0  0  0  0  0  0  0  0  0  0  0  0
   -0.6690   -1.3857   -2.6142 H   0  0  0  0  0  0  0  0  0  0  0  0
    0.2259   -1.6670   -4.1194 H   0  0  0  0  0  0  0  0  0  0  0  0
    0.2019    0.5893   -0.7269 N   0  0  0  0  0  0  0  0  0  0  0  0
    0.1242    0.9059    0.6756 C   0  0  2  0  0  0  0  0  0  0  0  0
   -1.0846    1.8172    0.8639 C   0  0  0  0  0  0  0  0  0  0  0  0
   -2.2348    1.4639    0.6117 O   0  0  0  0  0  0  0  0  0  0  0  0
    1.3946    1.5978    1.1859 C   0  0  0  0  0  0  0  0  0  0  0  0
    2.6625    0.7199    1.1646 C   0  0  0  0  0  0  0  0  0  0  0  0
    3.8806    1.5629    1.5522 C   0  0  0  0  0  0  0  0  0  0  0  0
    2.8987    0.0704   -0.1996 C   0  0  0  0  0  0  0  0  0  0  0  0
   -0.5975    0.8179   -1.3140 H   0  0  0  0  0  0  0  0  0  0  0  0
   -0.0581   -0.0343    1.2058 H   0  0  0  0  0  0  0  0  0  0  0  0
    1.2220    1.9411    2.2156 H   0  0  0  0  0  0  0  0  0  0  0  0
    1.5768    2.5055    0.5953 H   0  0  0  0  0  0  0  0  0  0  0  0
    2.5611   -0.0768    1.9117 H   0  0  0  0  0  0  0  0  0  0  0  0
    4.0325    2.3790    0.8378 H   0  0  0  0  0  0  0  0  0  0  0  0
    4.7901    0.9529    1.5580 H   0  0  0  0  0  0  0  0  0  0  0  0
    3.7601    2.0023    2.5483 H   0  0  0  0  0  0  0  0  0  0  0  0
    3.0073    0.8256   -0.9854 H   0  0  0  0  0  0  0  0  0  0  0  0
    3.8100   -0.5374   -0.1874 H   0  0  0  0  0  0  0  0  0  0  0  0
    2.0730   -0.5926   -0.4741 H   0  0  0  0  0  0  0  0  0  0  0  0
   -0.7297    3.0500    1.3938 N   0  0  0  0  0  0  0  0  0  0  0  0
   -1.6881    4.0890    1.6945 C   0  0  2  0  0  0  0  0  0  0  0  0
   -2.9282    3.4291    2.2828 C   0  0  0  0  0  0  0  0  0  0  0  0
   -3.2144    2.2489    2.0921 O   0  0  0  0  0  0  0  0  0  0  0  0
   -2.0383    4.8949    0.4532 C   0  0  0  0  0  0  0  0  0  0  0  0
    0.2473    3.2419    1.5945 H   0  0  0  0  0  0  0  0  0  0  0  0
   -1.2264    4.7369    2.4476 H   0  0  0  0  0  0  0  0  0  0  0  0
   -2.5021    4.2626   -0.3126 H   0  0  0  0  0  0  0  0  0  0  0  0
   -2.7426    5.6996    0.6883 H   0  0  0  0  0  0  0  0  0  0  0  0
   -1.1410    5.3444    0.0144 H   0  0  0  0  0  0  0  0  0  0  0  0
   -3.7003    4.3240    3.0103 N   0  0  0  0  0  0  0  0  0  0  0  0
   -4.9341    3.9428    3.6571 C   0  0  0  0  0  0  0  0  0  0  0  0
   -3.3766    5.2790    3.1322 H   0  0  0  0  0  0  0  0  0  0  0  0
   -5.7786    4.1334    2.9785 H   0  0  0  0  0  0  0  0  0  0  0  0
   -4.9005    2.8725    3.9089 H   0  0  0  0  0  0  0  0  0  0  0  0
   -5.0629    4.5319    4.5771 H   0  0  0  0  0  0  0  0  0  0  0  0
  1  3  1  0  0  0  0
  1  7  1  0  0  0  0
  1  2  2  0  0  0  0
 37 38  1  0  0  0  0
 38 46  1  0  0  0  0
 38 39  2  0  0  0  0
  8  9  1  0  0  0  0
  9 17  1  0  0  0  0
  9 10  2  0  0  0  0
 18 19  1  0  0  0  0
 19 36  1  0  0  0  0
 19 20  2  0  0  0  0
 37 40  1  0  0  0  0
  8 11  1  0  0  0  0
 22 23  1  0  0  0  0
 22 24  1  0  0  0  0
 46 47  1  0  0  0  0
 18 21  1  0  0  0  0
 21 22  1  0  0  0  0
 36 37  1  0  0  0  0
  7  8  1  0  0  0  0
 17 18  1  0  0  0  0
  3  4  1  0  0  0  0
  3  5  1  0  0  0  0
  3  6  1  0  0  0  0
 40 43  1  0  0  0  0
 40 44  1  0  0  0  0
 40 45  1  0  0  0  0
 11 14  1  0  0  0  0
 11 15  1  0  0  0  0
 11 16  1  0  0  0  0
 23 30  1  0  0  0  0
 23 31  1  0  0  0  0
 23 32  1  0  0  0  0
 24 33  1  0  0  0  0
 24 34  1  0  0  0  0
 24 35  1  0  0  0  0
 47 49  1  0  0  0  0
 47 50  1  0  0  0  0
 47 51  1  0  0  0  0
 21 27  1  0  0  0  0
 21 28  1  0  0  0  0
 37 42  1  0  0  0  0
  8 13  1  0  0  0  0
 18 26  1  0  0  0  0
 22 29  1  0  0  0  0
 46 48  1  0  0  0  0
  7 12  1  0  0  0  0
 36 41  1  0  0  0  0
 17 25  1  0  0  0  0
M  END
$$$$

  -OEChem-05262214473D

 51 50  0     1  0  0  0  0  0999 V2000
    3.4018   -1.2440   -3.0186 C   0  0  0  0  0  0  0  0  0  0  0  0
    3.2697   -2.0909   -2.1427 O   0  0  0  0  0  0  0  0  0  0  0  0
    4.6845   -1.1645   -3.7779 C   0  0  0  0  0  0  0  0  0  0  0  0
    5.4123   -0.4862   -3.3041 H   0  0  0  0  0  0  0  0  0  0  0  0
    5.1949   -2.1387   -3.8443 H   0  0  0  0  0  0  0  0  0  0  0  0
    4.5953   -0.8128   -4.8182 H   0  0  0  0  0  0  0  0  0  0  0  0
    2.4540   -0.3103   -3.4040 N   0  0  0  0  0  0  0  0  0  0  0  0
    1.1494   -0.2128   -2.8039 C   0  0  2  0  0  0  0  0  0  0  0  0
    1.3350    0.0367   -1.3130 C   0  0  0  0  0  0  0  0  0  0  0  0
    2.3625   -0.2586   -0.7063 O   0  0  0  0  0  0  0  0  0  0  0  0
    0.3331   -1.4728   -3.0467 C   0  0  0  0  0  0  0  0  0  0  0  0
    2.6924    0.3404   -4.1502 H   0  0  0  0  0  0  0  0  0  0  0  0
    0.6550    0.6514   -3.2607 H   0  0  0  0  0  0  0  0  0  0  0  0
    0.8129   -2.3494   -2.5963 H   0  0  0  0  0  0  0  0  0  0  0  0
   -0.6690   -1.3857   -2.6142 H   0  0  0  0  0  0  0  0  0  0  0  0
    0.2259   -1.6670   -4.1194 H   0  0  0  0  0  0  0  0  0  0  0  0
    0.2019    0.5893   -0.7269 N   0  0  0  0  0  0  0  0  0  0  0  0
    0.1242    0.9059    0.6756 C   0  0  2  0  0  0  0  0  0  0  0  0
   -1.0846    1.8172    0.8639 C   0  0  0  0  0  0  0  0  0  0  0  0
   -2.2414    1.4011    0.8734 O   0  0  0  0  0  0  0  0  0  0  0  0
    1.3946    1.5978    1.1859 C   0  0  0  0  0  0  0  0  0  0  0  0
    2.6625    0.7199    1.1646 C   0  0  0  0  0  0  0  0  0  0  0  0
    3.8806    1.5629    1.5522 C   0  0  0  0  0  0  0  0  0  0  0  0
    2.8987    0.0704   -0.1996 C   0  0  0  0  0  0  0  0  0  0  0  0
   -0.5975    0.8179   -1.3140 H   0  0  0  0  0  0  0  0  0  0  0  0
   -0.0581   -0.0343    1.2058 H   0  0  0  0  0  0  0  0  0  0  0  0
    1.2220    1.9411    2.2156 H   0  0  0  0  0  0  0  0  0  0  0  0
    1.5768    2.5055    0.5953 H   0  0  0  0  0  0  0  0  0  0  0  0
    2.5611   -0.0768    1.9117 H   0  0  0  0  0  0  0  0  0  0  0  0
    4.0325    2.3790    0.8378 H   0  0  0  0  0  0  0  0  0  0  0  0
    4.7901    0.9529    1.5580 H   0  0  0  0  0  0  0  0  0  0  0  0
    3.7601    2.0023    2.5483 H   0  0  0  0  0  0  0  0  0  0  0  0
    3.0073    0.8256   -0.9854 H   0  0  0  0  0  0  0  0  0  0  0  0
    3.8100   -0.5374   -0.1874 H   0  0  0  0  0  0  0  0  0  0  0  0
    2.0730   -0.5926   -0.4741 H   0  0  0  0  0  0  0  0  0  0  0  0
   -0.7133    3.1386    1.0702 N   0  0  0  0  0  0  0  0  0  0  0  0
   -1.6640    4.2021    1.3017 C   0  0  2  0  0  0  0  0  0  0  0  0
   -2.7676    3.6592    2.1999 C   0  0  0  0  0  0  0  0  0  0  0  0
   -3.0224    2.4607    2.2998 O   0  0  0  0  0  0  0  0  0  0  0  0
   -2.2363    4.7271   -0.0058 C   0  0  0  0  0  0  0  0  0  0  0  0
    0.2724    3.3834    1.0710 H   0  0  0  0  0  0  0  0  0  0  0  0
   -1.1254    4.9994    1.8254 H   0  0  0  0  0  0  0  0  0  0  0  0
   -2.7796    3.9423   -0.5447 H   0  0  0  0  0  0  0  0  0  0  0  0
   -2.9348    5.5519    0.1696 H   0  0  0  0  0  0  0  0  0  0  0  0
   -1.4383    5.0898   -0.6627 H   0  0  0  0  0  0  0  0  0  0  0  0
   -3.4629    4.6733    2.8436 N   0  0  0  0  0  0  0  0  0  0  0  0
   -4.5649    4.4152    3.7408 C   0  0  0  0  0  0  0  0  0  0  0  0
   -3.1708    5.6378    2.7168 H   0  0  0  0  0  0  0  0  0  0  0  0
   -5.5105    4.4474    3.1798 H   0  0  0  0  0  0  0  0  0  0  0  0
   -4.4422    3.4211    4.1956 H   0  0  0  0  0  0  0  0  0  0  0  0
   -4.5812    5.1804    4.5309 H   0  0  0  0  0  0  0  0  0  0  0  0
  1  3  1  0  0  0  0
  1  7  1  0  0  0  0
  1  2  2  0  0  0  0
 37 38  1  0  0  0  0
 38 46  1  0  0  0  0
 38 39  2  0  0  0  0
  8  9  1  0  0  0  0
  9 17  1  0  0  0  0
  9 10  2  0  0  0  0
 18 19  1  0  0  0  0
 19 36  1  0  0  0  0
 19 20  2  0  0  0  0
 37 40  1  0  0  0  0
  8 11  1  0  0  0  0
 22 23  1  0  0  0  0
 22 24  1  0  0  0  0
 46 47  1  0  0  0  0
 18 21  1  0  0  0  0
 21 22  1  0  0  0  0
 36 37  1  0  0  0  0
  7  8  1  0  0  0  0
 17 18  1  0  0  0  0
  3  4  1  0  0  0  0
  3  5  1  0  0  0  0
  3  6  1  0  0  0  0
 40 43  1  0  0  0  0
 40 44  1  0  0  0  0
 40 45  1  0  0  0  0
 11 14  1  0  0  0  0
 11 15  1  0  0  0  0
 11 16  1  0  0  0  0
 23 30  1  0  0  0  0
 23 31  1  0  0  0  0
 23 32  1  0  0  0  0
 24 33  1  0  0  0  0
 24 34  1  0  0  0  0
 24 35  1  0  0  0  0
 47 49  1  0  0  0  0
 47 50  1  0  0  0  0
 47 51  1  0  0  0  0
 21 27  1  0  0  0  0
 21 28  1  0  0  0  0
 37 42  1  0  0  0  0
  8 13  1  0  0  0  0
 18 26  1  0  0  0  0
 22 29  1  0  0  0  0
 46 48  1  0  0  0  0
  7 12  1  0  0  0  0
 36 41  1  0  0  0  0
 17 25  1  0  0  0  0
M  END
$$$$

  -OEChem-05262214473D

 51 50  0     1  0  0  0  0  0999 V2000
    3.4018   -1.2440   -3.0186 C   0  0  0  0  0  0  0  0  0  0  0  0
    3.2697   -2.0909   -2.1427 O   0  0  0  0  0  0  0  0  0  0  0  0
    4.6845   -1.1645   -3.7779 C   0  0  0  0  0  0  0  0  0  0  0  0
    5.4123   -0.4862   -3.3041 H   0  0  0  0  0  0  0  0  0  0  0  0
    5.1949   -2.1387   -3.8443 H   0  0  0  0  0  0  0  0  0  0  0  0
    4.5953   -0.8128   -4.8182 H   0  0  0  0  0  0  0  0  0  0  0  0
    2.4540   -0.3103   -3.4040 N   0  0  0  0  0  0  0  0  0  0  0  0
    1.1494   -0.2128   -2.8039 C   0  0  2  0  0  0  0  0  0  0  0  0
    1.3350    0.0367   -1.3130 C   0  0  0  0  0  0  0  0  0  0  0  0
    2.3625   -0.2586   -0.7063 O   0  0  0  0  0  0  0  0  0  0  0  0
    0.3331   -1.4728   -3.0467 C   0  0  0  0  0  0  0  0  0  0  0  0
    2.6924    0.3404   -4.1502 H   0  0  0  0  0  0  0  0  0  0  0  0
    0.6550    0.6514   -3.2607 H   0  0  0  0  0  0  0  0  0  0  0  0
    0.8129   -2.3494   -2.5963 H   0  0  0  0  0  0  0  0  0  0  0  0
   -0.6690   -1.3857   -2.6142 H   0  0  0  0  0  0  0  0  0  0  0  0
    0.2259   -1.6670   -4.1194 H   0  0  0  0  0  0  0  0  0  0  0  0
    0.2019    0.5893   -0.7269 N   0  0  0  0  0  0  0  0  0  0  0  0
    0.1242    0.9059    0.6756 C   0  0  2  0  0  0  0  0  0  0  0  0
   -1.0846    1.8172    0.8639 C   0  0  0  0  0  0  0  0  0  0  0  0
   -2.2053    1.3939    1.1400 O   0  0  0  0  0  0  0  0  0  0  0  0
    1.3946    1.5978    1.1859 C   0  0  0  0  0  0  0  0  0  0  0  0
    2.6625    0.7199    1.1646 C   0  0  0  0  0  0  0  0  0  0  0  0
    3.8806    1.5629    1.5522 C   0  0  0  0  0  0  0  0  0  0  0  0
    2.8987    0.0704   -0.1996 C   0  0  0  0  0  0  0  0  0  0  0  0
   -0.5975    0.8179   -1.3140 H   0  0  0  0  0  0  0  0  0  0  0  0
   -0.0581   -0.0343    1.2058 H   0  0  0  0  0  0  0  0  0  0  0  0
    1.2220    1.9411    2.2156 H   0  0  0  0  0  0  0  0  0  0  0  0
    1.5768    2.5055    0.5953 H   0  0  0  0  0  0  0  0  0  0  0  0
    2.5611   -0.0768    1.9117 H   0  0  0  0  0  0  0  0  0  0  0  0
    4.0325    2.3790    0.8378 H   0  0  0  0  0  0  0  0  0  0  0  0
    4.7901    0.9529    1.5580 H   0  0  0  0  0  0  0  0  0  0  0  0
    3.7601    2.0023    2.5483 H   0  0  0  0  0  0  0  0  0  0  0  0
    3.0073    0.8256   -0.9854 H   0  0  0  0  0  0  0  0  0  0  0  0
    3.8100   -0.5374   -0.1874 H   0  0  0  0  0  0  0  0  0  0  0  0
    2.0730   -0.5926   -0.4741 H   0  0  0  0  0  0  0  0  0  0  0  0
   -0.7503    3.1583    0.7369 N   0  0  0  0  0  0  0  0  0  0  0  0
   -1.7051    4.2316    0.8954 C   0  0  2  0  0  0  0  0  0  0  0  0
   -2.6327    3.8695    2.0477 C   0  0  0  0  0  0  0  0  0  0  0  0
   -2.8115    2.7141    2.4273 O   0  0  0  0  0  0  0  0  0  0  0  0
   -2.4931    4.4646   -0.3842 C   0  0  0  0  0  0  0  0  0  0  0  0
    0.2113    3.4135    0.5324 H   0  0  0  0  0  0  0  0  0  0  0  0
   -1.1324    5.1287    1.1549 H   0  0  0  0  0  0  0  0  0  0  0  0
   -3.0734    3.5765   -0.6602 H   0  0  0  0  0  0  0  0  0  0  0  0
   -3.1959    5.2967   -0.2714 H   0  0  0  0  0  0  0  0  0  0  0  0
   -1.8221    4.6956   -1.2186 H   0  0  0  0  0  0  0  0  0  0  0  0
   -3.2706    4.9840    2.5742 N   0  0  0  0  0  0  0  0  0  0  0  0
   -4.2104    4.9005    3.6677 C   0  0  0  0  0  0  0  0  0  0  0  0
   -3.0477    5.9058    2.2102 H   0  0  0  0  0  0  0  0  0  0  0  0
   -5.2305    4.8005    3.2683 H   0  0  0  0  0  0  0  0  0  0  0  0
   -3.9727    4.0246    4.2892 H   0  0  0  0  0  0  0  0  0  0  0  0
   -4.1438    5.8127    4.2788 H   0  0  0  0  0  0  0  0  0  0  0  0
  1  3  1  0  0  0  0
  1  7  1  0  0  0  0
  1  2  2  0  0  0  0
 37 38  1  0  0  0  0
 38 46  1  0  0  0  0
 38 39  2  0  0  0  0
  8  9  1  0  0  0  0
  9 17  1  0  0  0  0
  9 10  2  0  0  0  0
 18 19  1  0  0  0  0
 19 36  1  0  0  0  0
 19 20  2  0  0  0  0
 37 40  1  0  0  0  0
  8 11  1  0  0  0  0
 22 23  1  0  0  0  0
 22 24  1  0  0  0  0
 46 47  1  0  0  0  0
 18 21  1  0  0  0  0
 21 22  1  0  0  0  0
 36 37  1  0  0  0  0
  7  8  1  0  0  0  0
 17 18  1  0  0  0  0
  3  4  1  0  0  0  0
  3  5  1  0  0  0  0
  3  6  1  0  0  0  0
 40 43  1  0  0  0  0
 40 44  1  0  0  0  0
 40 45  1  0  0  0  0
 11 14  1  0  0  0  0
 11 15  1  0  0  0  0
 11 16  1  0  0  0  0
 23 30  1  0  0  0  0
 23 31  1  0  0  0  0
 23 32  1  0  0  0  0
 24 33  1  0  0  0  0
 24 34  1  0  0  0  0
 24 35  1  0  0  0  0
 47 49  1  0  0  0  0
 47 50  1  0  0  0  0
 47 51  1  0  0  0  0
 21 27  1  0  0  0  0
 21 28  1  0  0  0  0
 37 42  1  0  0  0  0
  8 13  1  0  0  0  0
 18 26  1  0  0  0  0
 22 29  1  0  0  0  0
 46 48  1  0  0  0  0
  7 12  1  0  0  0  0
 36 41  1  0  0  0  0
 17 25  1  0  0  0  0
M  END
$$$$

  -OEChem-05262214473D

 51 50  0     1  0  0  0  0  0999 V2000
    3.4018   -1.2440   -3.0186 C   0  0  0  0  0  0  0  0  0  0  0  0
    3.2697   -2.0909   -2.1427 O   0  0  0  0  0  0  0  0  0  0  0  0
    4.6845   -1.1645   -3.7779 C   0  0  0  0  0  0  0  0  0  0  0  0
    5.4123   -0.4862   -3.3041 H   0  0  0  0  0  0  0  0  0  0  0  0
    5.1949   -2.1387   -3.8443 H   0  0  0  0  0  0  0  0  0  0  0  0
    4.5953   -0.8128   -4.8182 H   0  0  0  0  0  0  0  0  0  0  0  0
    2.4540   -0.3103   -3.4040 N   0  0  0  0  0  0  0  0  0  0  0  0
    1.1494   -0.2128   -2.8039 C   0  0  2  0  0  0  0  0  0  0  0  0
    1.3350    0.0367   -1.3130 C   0  0  0  0  0  0  0  0  0  0  0  0
    2.3625   -0.2586   -0.7063 O   0  0  0  0  0  0  0  0  0  0  0  0
    0.3331   -1.4728   -3.0467 C   0  0  0  0  0  0  0  0  0  0  0  0
    2.6924    0.3404   -4.1502 H   0  0  0  0  0  0  0  0  0  0  0  0
    0.6550    0.6514   -3.2607 H   0  0  0  0  0  0  0  0  0  0  0  0
    0.8129   -2.3494   -2.5963 H   0  0  0  0  0  0  0  0  0  0  0  0
   -0.6690   -1.3857   -2.6142 H   0  0  0  0  0  0  0  0  0  0  0  0
    0.2259   -1.6670   -4.1194 H   0  0  0  0  0  0  0  0  0  0  0  0
    0.2019    0.5893   -0.7269 N   0  0  0  0  0  0  0  0  0  0  0  0
    0.1242    0.9059    0.6756 C   0  0  2  0  0  0  0  0  0  0  0  0
   -1.0846    1.8172    0.8639 C   0  0  0  0  0  0  0  0  0  0  0  0
   -2.1289    1.4428    1.3935 O   0  0  0  0  0  0  0  0  0  0  0  0
    1.3946    1.5978    1.1859 C   0  0  0  0  0  0  0  0  0  0  0  0
    2.6625    0.7199    1.1646 C   0  0  0  0  0  0  0  0  0  0  0  0
    3.8806    1.5629    1.5522 C   0  0  0  0  0  0  0  0  0  0  0  0
    2.8987    0.0704   -0.1996 C   0  0  0  0  0  0  0  0  0  0  0  0
   -0.5975    0.8179   -1.3140 H   0  0  0  0  0  0  0  0  0  0  0  0
   -0.0581   -0.0343    1.2058 H   0  0  0  0  0  0  0  0  0  0  0  0
    1.2220    1.9411    2.2156 H   0  0  0  0  0  0  0  0  0  0  0  0
    1.5768    2.5055    0.5953 H   0  0  0  0  0  0  0  0  0  0  0  0
    2.5611   -0.0768    1.9117 H   0  0  0  0  0  0  0  0  0  0  0  0
    4.0325    2.3790    0.8378 H   0  0  0  0  0  0  0  0  0  0  0  0
    4.7901    0.9529    1.5580 H   0  0  0  0  0  0  0  0  0  0  0  0
    3.7601    2.0023    2.5483 H   0  0  0  0  0  0  0  0  0  0  0  0
    3.0073    0.8256   -0.9854 H   0  0  0  0  0  0  0  0  0  0  0  0
    3.8100   -0.5374   -0.1874 H   0  0  0  0  0  0  0  0  0  0  0  0
    2.0730   -0.5926   -0.4741 H   0  0  0  0  0  0  0  0  0  0  0  0
   -0.8382    3.1079    0.4167 N   0  0  0  0  0  0  0  0  0  0  0  0
   -1.8085    4.1754    0.5032 C   0  0  2  0  0  0  0  0  0  0  0  0
   -2.5327    4.0458    1.8368 C   0  0  0  0  0  0  0  0  0  0  0  0
   -2.5962    2.9917    2.4659 O   0  0  0  0  0  0  0  0  0  0  0  0
   -2.7914    4.1252   -0.6562 C   0  0  0  0  0  0  0  0  0  0  0  0
    0.0680    3.3303    0.0155 H   0  0  0  0  0  0  0  0  0  0  0  0
   -1.2469    5.1158    0.4818 H   0  0  0  0  0  0  0  0  0  0  0  0
   -3.3633    3.1901   -0.6513 H   0  0  0  0  0  0  0  0  0  0  0  0
   -3.5082    4.9513   -0.6047 H   0  0  0  0  0  0  0  0  0  0  0  0
   -2.2662    4.1886   -1.6153 H   0  0  0  0  0  0  0  0  0  0  0  0
   -3.1363    5.2352    2.2206 N   0  0  0  0  0  0  0  0  0  0  0  0
   -3.8948    5.3655    3.4427 C   0  0  0  0  0  0  0  0  0  0  0  0
   -3.0157    6.0646    1.6468 H   0  0  0  0  0  0  0  0  0  0  0  0
   -4.9576    5.1687    3.2381 H   0  0  0  0  0  0  0  0  0  0  0  0
   -3.5240    4.6416    4.1833 H   0  0  0  0  0  0  0  0  0  0  0  0
   -3.7805    6.3857    3.8380 H   0  0  0  0  0  0  0  0  0  0  0  0
  1  3  1  0  0  0  0
  1  7  1  0  0  0  0
  1  2  2  0  0  0  0
 37 38  1  0  0  0  0
 38 46  1  0  0  0  0
 38 39  2  0  0  0  0
  8  9  1  0  0  0  0
  9 17  1  0  0  0  0
  9 10  2  0  0  0  0
 18 19  1  0  0  0  0
 19 36  1  0  0  0  0
 19 20  2  0  0  0  0
 37 40  1  0  0  0  0
  8 11  1  0  0  0  0
 22 23  1  0  0  0  0
 22 24  1  0  0  0  0
 46 47  1  0  0  0  0
 18 21  1  0  0  0  0
 21 22  1  0  0  0  0
 36 37  1  0  0  0  0
  7  8  1  0  0  0  0
 17 18  1  0  0  0  0
  3  4  1  0  0  0  0
  3  5  1  0  0  0  0
  3  6  1  0  0  0  0
 40 43  1  0  0  0  0
 40 44  1  0  0  0  0
 40 45  1  0  0  0  0
 11 14  1  0  0  0  0
 11 15  1  0  0  0  0
 11 16  1  0  0  0  0
 23 30  1  0  0  0  0
 23 31  1  0  0  0  0
 23 32  1  0  0  0  0
 24 33  1  0  0  0  0
 24 34  1  0  0  0  0
 24 35  1  0  0  0  0
 47 49  1  0  0  0  0
 47 50  1  0  0  0  0
 47 51  1  0  0  0  0
 21 27  1  0  0  0  0
 21 28  1  0  0  0  0
 37 42  1  0  0  0  0
  8 13  1  0  0  0  0
 18 26  1  0  0  0  0
 22 29  1  0  0  0  0
 46 48  1  0  0  0  0
  7 12  1  0  0  0  0
 36 41  1  0  0  0  0
 17 25  1  0  0  0  0
M  END
$$$$

  -OEChem-05262214473D

 51 50  0     1  0  0  0  0  0999 V2000
    3.4018   -1.2440   -3.0186 C   0  0  0  0  0  0  0  0  0  0  0  0
    3.2697   -2.0909   -2.1427 O   0  0  0  0  0  0  0  0  0  0  0  0
    4.6845   -1.1645   -3.7779 C   0  0  0  0  0  0  0  0  0  0  0  0
    5.4123   -0.4862   -3.3041 H   0  0  0  0  0  0  0  0  0  0  0  0
    5.1949   -2.1387   -3.8443 H   0  0  0  0  0  0  0  0  0  0  0  0
    4.5953   -0.8128   -4.8182 H   0  0  0  0  0  0  0  0  0  0  0  0
    2.4540   -0.3103   -3.4040 N   0  0  0  0  0  0  0  0  0  0  0  0
    1.1494   -0.2128   -2.8039 C   0  0  2  0  0  0  0  0  0  0  0  0
    1.3350    0.0367   -1.3130 C   0  0  0  0  0  0  0  0  0  0  0  0
    2.3625   -0.2586   -0.7063 O   0  0  0  0  0  0  0  0  0  0  0  0
    0.3331   -1.4728   -3.0467 C   0  0  0  0  0  0  0  0  0  0  0  0
    2.6924    0.3404   -4.1502 H   0  0  0  0  0  0  0  0  0  0  0  0
    0.6550    0.6514   -3.2607 H   0  0  0  0  0  0  0  0  0  0  0  0
    0.8129   -2.3494   -2.5963 H   0  0  0  0  0  0  0  0  0  0  0  0
   -0.6690   -1.3857   -2.6142 H   0  0  0  0  0  0  0  0  0  0  0  0
    0.2259   -1.6670   -4.1194 H   0  0  0  0  0  0  0  0  0  0  0  0
    0.2019    0.5893   -0.7269 N   0  0  0  0  0  0  0  0  0  0  0  0
    0.1242    0.9059    0.6756 C   0  0  2  0  0  0  0  0  0  0  0  0
   -1.0846    1.8172    0.8639 C   0  0  0  0  0  0  0  0  0  0  0  0
   -2.0176    1.5445    1.6165 O   0  0  0  0  0  0  0  0  0  0  0  0
    1.3946    1.5978    1.1859 C   0  0  0  0  0  0  0  0  0  0  0  0
    2.6625    0.7199    1.1646 C   0  0  0  0  0  0  0  0  0  0  0  0
    3.8806    1.5629    1.5522 C   0  0  0  0  0  0  0  0  0  0  0  0
    2.8987    0.0704   -0.1996 C   0  0  0  0  0  0  0  0  0  0  0  0
   -0.5975    0.8179   -1.3140 H   0  0  0  0  0  0  0  0  0  0  0  0
   -0.0581   -0.0343    1.2058 H   0  0  0  0  0  0  0  0  0  0  0  0
    1.2220    1.9411    2.2156 H   0  0  0  0  0  0  0  0  0  0  0  0
    1.5768    2.5055    0.5953 H   0  0  0  0  0  0  0  0  0  0  0  0
    2.5611   -0.0768    1.9117 H   0  0  0  0  0  0  0  0  0  0  0  0
    4.0325    2.3790    0.8378 H   0  0  0  0  0  0  0  0  0  0  0  0
    4.7901    0.9529    1.5580 H   0  0  0  0  0  0  0  0  0  0  0  0
    3.7601    2.0023    2.5483 H   0  0  0  0  0  0  0  0  0  0  0  0
    3.0073    0.8256   -0.9854 H   0  0  0  0  0  0  0  0  0  0  0  0
    3.8100   -0.5374   -0.1874 H   0  0  0  0  0  0  0  0  0  0  0  0
    2.0730   -0.5926   -0.4741 H   0  0  0  0  0  0  0  0  0  0  0  0
   -0.9710    2.9907    0.1313 N   0  0  0  0  0  0  0  0  0  0  0  0
   -1.9673    4.0374    0.1519 C   0  0  2  0  0  0  0  0  0  0  0  0
   -2.4743    4.1761    1.5813 C   0  0  0  0  0  0  0  0  0  0  0  0
   -2.3911    3.2746    2.4130 O   0  0  0  0  0  0  0  0  0  0  0  0
   -3.1106    3.7320   -0.8031 C   0  0  0  0  0  0  0  0  0  0  0  0
   -0.1477    3.1392   -0.4446 H   0  0  0  0  0  0  0  0  0  0  0  0
   -1.4612    4.9616   -0.1479 H   0  0  0  0  0  0  0  0  0  0  0  0
   -3.6296    2.8094   -0.5187 H   0  0  0  0  0  0  0  0  0  0  0  0
   -3.8503    4.5394   -0.8076 H   0  0  0  0  0  0  0  0  0  0  0  0
   -2.7403    3.6032   -1.8259 H   0  0  0  0  0  0  0  0  0  0  0  0
   -3.0694    5.4095    1.8067 N   0  0  0  0  0  0  0  0  0  0  0  0
   -3.6397    5.7787    3.0812 C   0  0  0  0  0  0  0  0  0  0  0  0
   -3.0770    6.1036    1.0651 H   0  0  0  0  0  0  0  0  0  0  0  0
   -4.7104    5.5269    3.0912 H   0  0  0  0  0  0  0  0  0  0  0  0
   -3.1267    5.2303    3.8850 H   0  0  0  0  0  0  0  0  0  0  0  0
   -3.5160    6.8604    3.2386 H   0  0  0  0  0  0  0  0  0  0  0  0
  1  3  1  0  0  0  0
  1  7  1  0  0  0  0
  1  2  2  0  0  0  0
 37 38  1  0  0  0  0
 38 46  1  0  0  0  0
 38 39  2  0  0  0  0
  8  9  1  0  0  0  0
  9 17  1  0  0  0  0
  9 10  2  0  0  0  0
 18 19  1  0  0  0  0
 19 36  1  0  0  0  0
 19 20  2  0  0  0  0
 37 40  1  0  0  0  0
  8 11  1  0  0  0  0
 22 23  1  0  0  0  0
 22 24  1  0  0  0  0
 46 47  1  0  0  0  0
 18 21  1  0  0  0  0
 21 22  1  0  0  0  0
 36 37  1  0  0  0  0
  7  8  1  0  0  0  0
 17 18  1  0  0  0  0
  3  4  1  0  0  0  0
  3  5  1  0  0  0  0
  3  6  1  0  0  0  0
 40 43  1  0  0  0  0
 40 44  1  0  0  0  0
 40 45  1  0  0  0  0
 11 14  1  0  0  0  0
 11 15  1  0  0  0  0
 11 16  1  0  0  0  0
 23 30  1  0  0  0  0
 23 31  1  0  0  0  0
 23 32  1  0  0  0  0
 24 33  1  0  0  0  0
 24 34  1  0  0  0  0
 24 35  1  0  0  0  0
 47 49  1  0  0  0  0
 47 50  1  0  0  0  0
 47 51  1  0  0  0  0
 21 27  1  0  0  0  0
 21 28  1  0  0  0  0
 37 42  1  0  0  0  0
  8 13  1  0  0  0  0
 18 26  1  0  0  0  0
 22 29  1  0  0  0  0
 46 48  1  0  0  0  0
  7 12  1  0  0  0  0
 36 41  1  0  0  0  0
 17 25  1  0  0  0  0
M  END
$$$$

  -OEChem-05262214473D

 51 50  0     1  0  0  0  0  0999 V2000
    3.4018   -1.2440   -3.0186 C   0  0  0  0  0  0  0  0  0  0  0  0
    3.2697   -2.0909   -2.1427 O   0  0  0  0  0  0  0  0  0  0  0  0
    4.6845   -1.1645   -3.7779 C   0  0  0  0  0  0  0  0  0  0  0  0
    5.4123   -0.4862   -3.3041 H   0  0  0  0  0  0  0  0  0  0  0  0
    5.1949   -2.1387   -3.8443 H   0  0  0  0  0  0  0  0  0  0  0  0
    4.5953   -0.8128   -4.8182 H   0  0  0  0  0  0  0  0  0  0  0  0
    2.4540   -0.3103   -3.4040 N   0  0  0  0  0  0  0  0  0  0  0  0
    1.1494   -0.2128   -2.8039 C   0  0  2  0  0  0  0  0  0  0  0  0
    1.3350    0.0367   -1.3130 C   0  0  0  0  0  0  0  0  0  0  0  0
    2.3625   -0.2586   -0.7063 O   0  0  0  0  0  0  0  0  0  0  0  0
    0.3331   -1.4728   -3.0467 C   0  0  0  0  0  0  0  0  0  0  0  0
    2.6924    0.3404   -4.1502 H   0  0  0  0  0  0  0  0  0  0  0  0
    0.6550    0.6514   -3.2607 H   0  0  0  0  0  0  0  0  0  0  0  0
    0.8129   -2.3494   -2.5963 H   0  0  0  0  0  0  0  0  0  0  0  0
   -0.6690   -1.3857   -2.6142 H   0  0  0  0  0  0  0  0  0  0  0  0
    0.2259   -1.6670   -4.1194 H   0  0  0  0  0  0  0  0  0  0  0  0
    0.2019    0.5893   -0.7269 N   0  0  0  0  0  0  0  0  0  0  0  0
    0.1242    0.9059    0.6756 C   0  0  2  0  0  0  0  0  0  0  0  0
   -1.0846    1.8172    0.8639 C   0  0  0  0  0  0  0  0  0  0  0  0
   -1.8788    1.6919    1.7938 O   0  0  0  0  0  0  0  0  0  0  0  0
    1.3946    1.5978    1.1859 C   0  0  0  0  0  0  0  0  0  0  0  0
    2.6625    0.7199    1.1646 C   0  0  0  0  0  0  0  0  0  0  0  0
    3.8806    1.5629    1.5522 C   0  0  0  0  0  0  0  0  0  0  0  0
    2.8987    0.0704   -0.1996 C   0  0  0  0  0  0  0  0  0  0  0  0
   -0.5975    0.8179   -1.3140 H   0  0  0  0  0  0  0  0  0  0  0  0
   -0.0581   -0.0343    1.2058 H   0  0  0  0  0  0  0  0  0  0  0  0
    1.2220    1.9411    2.2156 H   0  0  0  0  0  0  0  0  0  0  0  0
    1.5768    2.5055    0.5953 H   0  0  0  0  0  0  0  0  0  0  0  0
    2.5611   -0.0768    1.9117 H   0  0  0  0  0  0  0  0  0  0  0  0
    4.0325    2.3790    0.8378 H   0  0  0  0  0  0  0  0  0  0  0  0
    4.7901    0.9529    1.5580 H   0  0  0  0  0  0  0  0  0  0  0  0
    3.7601    2.0023    2.5483 H   0  0  0  0  0  0  0  0  0  0  0  0
    3.0073    0.8256   -0.9854 H   0  0  0  0  0  0  0  0  0  0  0  0
    3.8100   -0.5374   -0.1874 H   0  0  0  0  0  0  0  0  0  0  0  0
    2.0730   -0.5926   -0.4741 H   0  0  0  0  0  0  0  0  0  0  0  0
   -1.1397    2.8147   -0.0998 N   0  0  0  0  0  0  0  0  0  0  0  0
   -2.1705    3.8270   -0.1345 C   0  0  2  0  0  0  0  0  0  0  0  0
   -2.4615    4.2514    1.2989 C   0  0  0  0  0  0  0  0  0  0  0  0
   -2.2103    3.5436    2.2721 O   0  0  0  0  0  0  0  0  0  0  0  0
   -3.4292    3.3120   -0.8151 C   0  0  0  0  0  0  0  0  0  0  0  0
   -0.4211    2.8534   -0.8165 H   0  0  0  0  0  0  0  0  0  0  0  0
   -1.7607    4.6767   -0.6915 H   0  0  0  0  0  0  0  0  0  0  0  0
   -3.8542    2.4604   -0.2713 H   0  0  0  0  0  0  0  0  0  0  0  0
   -4.1990    4.0890   -0.8661 H   0  0  0  0  0  0  0  0  0  0  0  0
   -3.2120    2.9795   -1.8359 H   0  0  0  0  0  0  0  0  0  0  0  0
   -3.0743    5.4951    1.3608 N   0  0  0  0  0  0  0  0  0  0  0  0
   -3.4623    6.1118    2.6079 C   0  0  0  0  0  0  0  0  0  0  0  0
   -3.2273    6.0199    0.5048 H   0  0  0  0  0  0  0  0  0  0  0  0
   -4.5058    5.8507    2.8376 H   0  0  0  0  0  0  0  0  0  0  0  0
   -2.8078    5.7504    3.4148 H   0  0  0  0  0  0  0  0  0  0  0  0
   -3.3684    7.2044    2.5213 H   0  0  0  0  0  0  0  0  0  0  0  0
  1  3  1  0  0  0  0
  1  7  1  0  0  0  0
  1  2  2  0  0  0  0
 37 38  1  0  0  0  0
 38 46  1  0  0  0  0
 38 39  2  0  0  0  0
  8  9  1  0  0  0  0
  9 17  1  0  0  0  0
  9 10  2  0  0  0  0
 18 19  1  0  0  0  0
 19 36  1  0  0  0  0
 19 20  2  0  0  0  0
 37 40  1  0  0  0  0
  8 11  1  0  0  0  0
 22 23  1  0  0  0  0
 22 24  1  0  0  0  0
 46 47  1  0  0  0  0
 18 21  1  0  0  0  0
 21 22  1  0  0  0  0
 36 37  1  0  0  0  0
  7  8  1  0  0  0  0
 17 18  1  0  0  0  0
  3  4  1  0  0  0  0
  3  5  1  0  0  0  0
  3  6  1  0  0  0  0
 40 43  1  0  0  0  0
 40 44  1  0  0  0  0
 40 45  1  0  0  0  0
 11 14  1  0  0  0  0
 11 15  1  0  0  0  0
 11 16  1  0  0  0  0
 23 30  1  0  0  0  0
 23 31  1  0  0  0  0
 23 32  1  0  0  0  0
 24 33  1  0  0  0  0
 24 34  1  0  0  0  0
 24 35  1  0  0  0  0
 47 49  1  0  0  0  0
 47 50  1  0  0  0  0
 47 51  1  0  0  0  0
 21 27  1  0  0  0  0
 21 28  1  0  0  0  0
 37 42  1  0  0  0  0
  8 13  1  0  0  0  0
 18 26  1  0  0  0  0
 22 29  1  0  0  0  0
 46 48  1  0  0  0  0
  7 12  1  0  0  0  0
 36 41  1  0  0  0  0
 17 25  1  0  0  0  0
M  END
$$$$

  -OEChem-05262214473D

 51 50  0     1  0  0  0  0  0999 V2000
    3.4018   -1.2440   -3.0186 C   0  0  0  0  0  0  0  0  0  0  0  0
    3.2697   -2.0909   -2.1427 O   0  0  0  0  0  0  0  0  0  0  0  0
    4.6845   -1.1645   -3.7779 C   0  0  0  0  0  0  0  0  0  0  0  0
    5.4123   -0.4862   -3.3041 H   0  0  0  0  0  0  0  0  0  0  0  0
    5.1949   -2.1387   -3.8443 H   0  0  0  0  0  0  0  0  0  0  0  0
    4.5953   -0.8128   -4.8182 H   0  0  0  0  0  0  0  0  0  0  0  0
    2.4540   -0.3103   -3.4040 N   0  0  0  0  0  0  0  0  0  0  0  0
    1.1494   -0.2128   -2.8039 C   0  0  2  0  0  0  0  0  0  0  0  0
    1.3350    0.0367   -1.3130 C   0  0  0  0  0  0  0  0  0  0  0  0
    2.3625   -0.2586   -0.7063 O   0  0  0  0  0  0  0  0  0  0  0  0
    0.3331   -1.4728   -3.0467 C   0  0  0  0  0  0  0  0  0  0  0  0
    2.6924    0.3404   -4.1502 H   0  0  0  0  0  0  0  0  0  0  0  0
    0.6550    0.6514   -3.2607 H   0  0  0  0  0  0  0  0  0  0  0  0
    0.8129   -2.3494   -2.5963 H   0  0  0  0  0  0  0  0  0  0  0  0
   -0.6690   -1.3857   -2.6142 H   0  0  0  0  0  0  0  0  0  0  0  0
    0.2259   -1.6670   -4.1194 H   0  0  0  0  0  0  0  0  0  0  0  0
    0.2019    0.5893   -0.7269 N   0  0  0  0  0  0  0  0  0  0  0  0
    0.1242    0.9059    0.6756 C   0  0  2  0  0  0  0  0  0  0  0  0
   -1.0846    1.8172    0.8639 C   0  0  0  0  0  0  0  0  0  0  0  0
   -1.7220    1.8752    1.9134 O   0  0  0  0  0  0  0  0  0  0  0  0
    1.3946    1.5978    1.1859 C   0  0  0  0  0  0  0  0  0  0  0  0
    2.6625    0.7199    1.1646 C   0  0  0  0  0  0  0  0  0  0  0  0
    3.8806    1.5629    1.5522 C   0  0  0  0  0  0  0  0  0  0  0  0
    2.8987    0.0704   -0.1996 C   0  0  0  0  0  0  0  0  0  0  0  0
   -0.5975    0.8179   -1.3140 H   0  0  0  0  0  0  0  0  0  0  0  0
   -0.0581   -0.0343    1.2058 H   0  0  0  0  0  0  0  0  0  0  0  0
    1.2220    1.9411    2.2156 H   0  0  0  0  0  0  0  0  0  0  0  0
    1.5768    2.5055    0.5953 H   0  0  0  0  0  0  0  0  0  0  0  0
    2.5611   -0.0768    1.9117 H   0  0  0  0  0  0  0  0  0  0  0  0
    4.0325    2.3790    0.8378 H   0  0  0  0  0  0  0  0  0  0  0  0
    4.7901    0.9529    1.5580 H   0  0  0  0  0  0  0  0  0  0  0  0
    3.7601    2.0023    2.5483 H   0  0  0  0  0  0  0  0  0  0  0  0
    3.0073    0.8256   -0.9854 H   0  0  0  0  0  0  0  0  0  0  0  0
    3.8100   -0.5374   -0.1874 H   0  0  0  0  0  0  0  0  0  0  0  0
    2.0730   -0.5926   -0.4741 H   0  0  0  0  0  0  0  0  0  0  0  0
   -1.3327    2.5919   -0.2608 N   0  0  0  0  0  0  0  0  0  0  0  0
   -2.4044    3.5586   -0.3367 C   0  0  2  0  0  0  0  0  0  0  0  0
   -2.4953    4.2666    1.0087 C   0  0  0  0  0  0  0  0  0  0  0  0
   -2.0660    3.7804    2.0529 O   0  0  0  0  0  0  0  0  0  0  0  0
   -3.7253    2.8936   -0.6913 C   0  0  0  0  0  0  0  0  0  0  0  0
   -0.7335    2.4924   -1.0748 H   0  0  0  0  0  0  0  0  0  0  0  0
   -2.1249    4.2804   -1.1118 H   0  0  0  0  0  0  0  0  0  0  0  0
   -4.0218    2.1669    0.0739 H   0  0  0  0  0  0  0  0  0  0  0  0
   -4.5304    3.6309   -0.7764 H   0  0  0  0  0  0  0  0  0  0  0  0
   -3.6494    2.3599   -1.6448 H   0  0  0  0  0  0  0  0  0  0  0  0
   -3.1507    5.4862    0.9134 N   0  0  0  0  0  0  0  0  0  0  0  0
   -3.3747    6.3422    2.0549 C   0  0  0  0  0  0  0  0  0  0  0  0
   -3.4565    5.8194    0.0039 H   0  0  0  0  0  0  0  0  0  0  0  0
   -4.3578    6.1180    2.4947 H   0  0  0  0  0  0  0  0  0  0  0  0
   -2.5892    6.1665    2.8046 H   0  0  0  0  0  0  0  0  0  0  0  0
   -3.3477    7.3943    1.7350 H   0  0  0  0  0  0  0  0  0  0  0  0
  1  3  1  0  0  0  0
  1  7  1  0  0  0  0
  1  2  2  0  0  0  0
 37 38  1  0  0  0  0
 38 46  1  0  0  0  0
 38 39  2  0  0  0  0
  8  9  1  0  0  0  0
  9 17  1  0  0  0  0
  9 10  2  0  0  0  0
 18 19  1  0  0  0  0
 19 36  1  0  0  0  0
 19 20  2  0  0  0  0
 37 40  1  0  0  0  0
  8 11  1  0  0  0  0
 22 23  1  0  0  0  0
 22 24  1  0  0  0  0
 46 47  1  0  0  0  0
 18 21  1  0  0  0  0
 21 22  1  0  0  0  0
 36 37  1  0  0  0  0
  7  8  1  0  0  0  0
 17 18  1  0  0  0  0
  3  4  1  0  0  0  0
  3  5  1  0  0  0  0
  3  6  1  0  0  0  0
 40 43  1  0  0  0  0
 40 44  1  0  0  0  0
 40 45  1  0  0  0  0
 11 14  1  0  0  0  0
 11 15  1  0  0  0  0
 11 16  1  0  0  0  0
 23 30  1  0  0  0  0
 23 31  1  0  0  0  0
 23 32  1  0  0  0  0
 24 33  1  0  0  0  0
 24 34  1  0  0  0  0
 24 35  1  0  0  0  0
 47 49  1  0  0  0  0
 47 50  1  0  0  0  0
 47 51  1  0  0  0  0
 21 27  1  0  0  0  0
 21 28  1  0  0  0  0
 37 42  1  0  0  0  0
  8 13  1  0  0  0  0
 18 26  1  0  0  0  0
 22 29  1  0  0  0  0
 46 48  1  0  0  0  0
  7 12  1  0  0  0  0
 36 41  1  0  0  0  0
 17 25  1  0  0  0  0
M  END
$$$$

  -OEChem-05262214473D

 51 50  0     1  0  0  0  0  0999 V2000
    3.4018   -1.2440   -3.0186 C   0  0  0  0  0  0  0  0  0  0  0  0
    3.2697   -2.0909   -2.1427 O   0  0  0  0  0  0  0  0  0  0  0  0
    4.6845   -1.1645   -3.7779 C   0  0  0  0  0  0  0  0  0  0  0  0
    5.4123   -0.4862   -3.3041 H   0  0  0  0  0  0  0  0  0  0  0  0
    5.1949   -2.1387   -3.8443 H   0  0  0  0  0  0  0  0  0  0  0  0
    4.5953   -0.8128   -4.8182 H   0  0  0  0  0  0  0  0  0  0  0  0
    2.4540   -0.3103   -3.4040 N   0  0  0  0  0  0  0  0  0  0  0  0
    1.1494   -0.2128   -2.8039 C   0  0  2  0  0  0  0  0  0  0  0  0
    1.3350    0.0367   -1.3130 C   0  0  0  0  0  0  0  0  0  0  0  0
    2.3625   -0.2586   -0.7063 O   0  0  0  0  0  0  0  0  0  0  0  0
    0.3331   -1.4728   -3.0467 C   0  0  0  0  0  0  0  0  0  0  0  0
    2.6924    0.3404   -4.1502 H   0  0  0  0  0  0  0  0  0  0  0  0
    0.6550    0.6514   -3.2607 H   0  0  0  0  0  0  0  0  0  0  0  0
    0.8129   -2.3494   -2.5963 H   0  0  0  0  0  0  0  0  0  0  0  0
   -0.6690   -1.3857   -2.6142 H   0  0  0  0  0  0  0  0  0  0  0  0
    0.2259   -1.6670   -4.1194 H   0  0  0  0  0  0  0  0  0  0  0  0
    0.2019    0.5893   -0.7269 N   0  0  0  0  0  0  0  0  0  0  0  0
    0.1242    0.9059    0.6756 C   0  0  2  0  0  0  0  0  0  0  0  0
   -1.0846    1.8172    0.8639 C   0  0  0  0  0  0  0  0  0  0  0  0
   -1.5579    2.0817    1.9671 O   0  0  0  0  0  0  0  0  0  0  0  0
    1.3946    1.5978    1.1859 C   0  0  0  0  0  0  0  0  0  0  0  0
    2.6625    0.7199    1.1646 C   0  0  0  0  0  0  0  0  0  0  0  0
    3.8806    1.5629    1.5522 C   0  0  0  0  0  0  0  0  0  0  0  0
    2.8987    0.0704   -0.1996 C   0  0  0  0  0  0  0  0  0  0  0  0
   -0.5975    0.8179   -1.3140 H   0  0  0  0  0  0  0  0  0  0  0  0
   -0.0581   -0.0343    1.2058 H   0  0  0  0  0  0  0  0  0  0  0  0
    1.2220    1.9411    2.2156 H   0  0  0  0  0  0  0  0  0  0  0  0
    1.5768    2.5055    0.5953 H   0  0  0  0  0  0  0  0  0  0  0  0
    2.5611   -0.0768    1.9117 H   0  0  0  0  0  0  0  0  0  0  0  0
    4.0325    2.3790    0.8378 H   0  0  0  0  0  0  0  0  0  0  0  0
    4.7901    0.9529    1.5580 H   0  0  0  0  0  0  0  0  0  0  0  0
    3.7601    2.0023    2.5483 H   0  0  0  0  0  0  0  0  0  0  0  0
    3.0073    0.8256   -0.9854 H   0  0  0  0  0  0  0  0  0  0  0  0
    3.8100   -0.5374   -0.1874 H   0  0  0  0  0  0  0  0  0  0  0  0
    2.0730   -0.5926   -0.4741 H   0  0  0  0  0  0  0  0  0  0  0  0
   -1.5370    2.3375   -0.3408 N   0  0  0  0  0  0  0  0  0  0  0  0
   -2.6530    3.2503   -0.4407 C   0  0  2  0  0  0  0  0  0  0  0  0
   -2.5732    4.2206    0.7304 C   0  0  0  0  0  0  0  0  0  0  0  0
   -1.9680    3.9687    1.7703 O   0  0  0  0  0  0  0  0  0  0  0  0
   -3.9788    2.5054   -0.4400 C   0  0  0  0  0  0  0  0  0  0  0  0
   -1.0637    2.0807   -1.2020 H   0  0  0  0  0  0  0  0  0  0  0  0
   -2.5290    3.7999   -1.3802 H   0  0  0  0  0  0  0  0  0  0  0  0
   -4.1208    1.9488    0.4935 H   0  0  0  0  0  0  0  0  0  0  0  0
   -4.8221    3.1961   -0.5445 H   0  0  0  0  0  0  0  0  0  0  0  0
   -4.0225    1.7867   -1.2655 H   0  0  0  0  0  0  0  0  0  0  0  0
   -3.2934    5.3834    0.4948 N   0  0  0  0  0  0  0  0  0  0  0  0
   -3.3831    6.4540    1.4600 C   0  0  0  0  0  0  0  0  0  0  0  0
   -3.7490    5.5156   -0.4034 H   0  0  0  0  0  0  0  0  0  0  0  0
   -4.2763    6.3105    2.0857 H   0  0  0  0  0  0  0  0  0  0  0  0
   -2.4856    6.4503    2.0960 H   0  0  0  0  0  0  0  0  0  0  0  0
   -3.4553    7.4171    0.9335 H   0  0  0  0  0  0  0  0  0  0  0  0
  1  3  1  0  0  0  0
  1  7  1  0  0  0  0
  1  2  2  0  0  0  0
 37 38  1  0  0  0  0
 38 46  1  0  0  0  0
 38 39  2  0  0  0  0
  8  9  1  0  0  0  0
  9 17  1  0  0  0  0
  9 10  2  0  0  0  0
 18 19  1  0  0  0  0
 19 36  1  0  0  0  0
 19 20  2  0  0  0  0
 37 40  1  0  0  0  0
  8 11  1  0  0  0  0
 22 23  1  0  0  0  0
 22 24  1  0  0  0  0
 46 47  1  0  0  0  0
 18 21  1  0  0  0  0
 21 22  1  0  0  0  0
 36 37  1  0  0  0  0
  7  8  1  0  0  0  0
 17 18  1  0  0  0  0
  3  4  1  0  0  0  0
  3  5  1  0  0  0  0
  3  6  1  0  0  0  0
 40 43  1  0  0  0  0
 40 44  1  0  0  0  0
 40 45  1  0  0  0  0
 11 14  1  0  0  0  0
 11 15  1  0  0  0  0
 11 16  1  0  0  0  0
 23 30  1  0  0  0  0
 23 31  1  0  0  0  0
 23 32  1  0  0  0  0
 24 33  1  0  0  0  0
 24 34  1  0  0  0  0
 24 35  1  0  0  0  0
 47 49  1  0  0  0  0
 47 50  1  0  0  0  0
 47 51  1  0  0  0  0
 21 27  1  0  0  0  0
 21 28  1  0  0  0  0
 37 42  1  0  0  0  0
  8 13  1  0  0  0  0
 18 26  1  0  0  0  0
 22 29  1  0  0  0  0
 46 48  1  0  0  0  0
  7 12  1  0  0  0  0
 36 41  1  0  0  0  0
 17 25  1  0  0  0  0
M  END
$$$$

  -OEChem-05262214473D

 51 50  0     1  0  0  0  0  0999 V2000
    3.4018   -1.2440   -3.0186 C   0  0  0  0  0  0  0  0  0  0  0  0
    3.2697   -2.0909   -2.1427 O   0  0  0  0  0  0  0  0  0  0  0  0
    4.6845   -1.1645   -3.7779 C   0  0  0  0  0  0  0  0  0  0  0  0
    5.4123   -0.4862   -3.3041 H   0  0  0  0  0  0  0  0  0  0  0  0
    5.1949   -2.1387   -3.8443 H   0  0  0  0  0  0  0  0  0  0  0  0
    4.5953   -0.8128   -4.8182 H   0  0  0  0  0  0  0  0  0  0  0  0
    2.4540   -0.3103   -3.4040 N   0  0  0  0  0  0  0  0  0  0  0  0
    1.1494   -0.2128   -2.8039 C   0  0  2  0  0  0  0  0  0  0  0  0
    1.3350    0.0367   -1.3130 C   0  0  0  0  0  0  0  0  0  0  0  0
    2.3625   -0.2586   -0.7063 O   0  0  0  0  0  0  0  0  0  0  0  0
    0.3331   -1.4728   -3.0467 C   0  0  0  0  0  0  0  0  0  0  0  0
    2.6924    0.3404   -4.1502 H   0  0  0  0  0  0  0  0  0  0  0  0
    0.6550    0.6514   -3.2607 H   0  0  0  0  0  0  0  0  0  0  0  0
    0.8129   -2.3494   -2.5963 H   0  0  0  0  0  0  0  0  0  0  0  0
   -0.6690   -1.3857   -2.6142 H   0  0  0  0  0  0  0  0  0  0  0  0
    0.2259   -1.6670   -4.1194 H   0  0  0  0  0  0  0  0  0  0  0  0
    0.2019    0.5893   -0.7269 N   0  0  0  0  0  0  0  0  0  0  0  0
    0.1242    0.9059    0.6756 C   0  0  2  0  0  0  0  0  0  0  0  0
   -1.0846    1.8172    0.8639 C   0  0  0  0  0  0  0  0  0  0  0  0
   -1.3977    2.2975    1.9513 O   0  0  0  0  0  0  0  0  0  0  0  0
    1.3946    1.5978    1.1859 C   0  0  0  0  0  0  0  0  0  0  0  0
    2.6625    0.7199    1.1646 C   0  0  0  0  0  0  0  0  0  0  0  0
    3.8806    1.5629    1.5522 C   0  0  0  0  0  0  0  0  0  0  0  0
    2.8987    0.0704   -0.1996 C   0  0  0  0  0  0  0  0  0  0  0  0
   -0.5975    0.8179   -1.3140 H   0  0  0  0  0  0  0  0  0  0  0  0
   -0.0581   -0.0343    1.2058 H   0  0  0  0  0  0  0  0  0  0  0  0
    1.2220    1.9411    2.2156 H   0  0  0  0  0  0  0  0  0  0  0  0
    1.5768    2.5055    0.5953 H   0  0  0  0  0  0  0  0  0  0  0  0
    2.5611   -0.0768    1.9117 H   0  0  0  0  0  0  0  0  0  0  0  0
    4.0325    2.3790    0.8378 H   0  0  0  0  0  0  0  0  0  0  0  0
    4.7901    0.9529    1.5580 H   0  0  0  0  0  0  0  0  0  0  0  0
    3.7601    2.0023    2.5483 H   0  0  0  0  0  0  0  0  0  0  0  0
    3.0073    0.8256   -0.9854 H   0  0  0  0  0  0  0  0  0  0  0  0
    3.8100   -0.5374   -0.1874 H   0  0  0  0  0  0  0  0  0  0  0  0
    2.0730   -0.5926   -0.4741 H   0  0  0  0  0  0  0  0  0  0  0  0
   -1.7385    2.0689   -0.3343 N   0  0  0  0  0  0  0  0  0  0  0  0
   -2.8994    2.9233   -0.4395 C   0  0  2  0  0  0  0  0  0  0  0  0
   -2.6901    4.1167    0.4832 C   0  0  0  0  0  0  0  0  0  0  0  0
   -1.9231    4.0957    1.4436 O   0  0  0  0  0  0  0  0  0  0  0  0
   -4.1725    2.1738   -0.0786 C   0  0  0  0  0  0  0  0  0  0  0  0
   -1.3892    1.6463   -1.1893 H   0  0  0  0  0  0  0  0  0  0  0  0
   -2.9455    3.2677   -1.4784 H   0  0  0  0  0  0  0  0  0  0  0  0
   -4.1447    1.8210    0.9588 H   0  0  0  0  0  0  0  0  0  0  0  0
   -5.0540    2.8144   -0.1863 H   0  0  0  0  0  0  0  0  0  0  0  0
   -4.3059    1.2988   -0.7238 H   0  0  0  0  0  0  0  0  0  0  0  0
   -3.4927    5.1937    0.1336 N   0  0  0  0  0  0  0  0  0  0  0  0
   -3.4867    6.4398    0.8637 C   0  0  0  0  0  0  0  0  0  0  0  0
   -4.0847    5.1293   -0.6893 H   0  0  0  0  0  0  0  0  0  0  0  0
   -4.2670    6.4152    1.6386 H   0  0  0  0  0  0  0  0  0  0  0  0
   -2.5042    6.5824    1.3374 H   0  0  0  0  0  0  0  0  0  0  0  0
   -3.6839    7.2714    0.1711 H   0  0  0  0  0  0  0  0  0  0  0  0
  1  3  1  0  0  0  0
  1  7  1  0  0  0  0
  1  2  2  0  0  0  0
 37 38  1  0  0  0  0
 38 46  1  0  0  0  0
 38 39  2  0  0  0  0
  8  9  1  0  0  0  0
  9 17  1  0  0  0  0
  9 10  2  0  0  0  0
 18 19  1  0  0  0  0
 19 36  1  0  0  0  0
 19 20  2  0  0  0  0
 37 40  1  0  0  0  0
  8 11  1  0  0  0  0
 22 23  1  0  0  0  0
 22 24  1  0  0  0  0
 46 47  1  0  0  0  0
 18 21  1  0  0  0  0
 21 22  1  0  0  0  0
 36 37  1  0  0  0  0
  7  8  1  0  0  0  0
 17 18  1  0  0  0  0
  3  4  1  0  0  0  0
  3  5  1  0  0  0  0
  3  6  1  0  0  0  0
 40 43  1  0  0  0  0
 40 44  1  0  0  0  0
 40 45  1  0  0  0  0
 11 14  1  0  0  0  0
 11 15  1  0  0  0  0
 11 16  1  0  0  0  0
 23 30  1  0  0  0  0
 23 31  1  0  0  0  0
 23 32  1  0  0  0  0
 24 33  1  0  0  0  0
 24 34  1  0  0  0  0
 24 35  1  0  0  0  0
 47 49  1  0  0  0  0
 47 50  1  0  0  0  0
 47 51  1  0  0  0  0
 21 27  1  0  0  0  0
 21 28  1  0  0  0  0
 37 42  1  0  0  0  0
  8 13  1  0  0  0  0
 18 26  1  0  0  0  0
 22 29  1  0  0  0  0
 46 48  1  0  0  0  0
  7 12  1  0  0  0  0
 36 41  1  0  0  0  0
 17 25  1  0  0  0  0
M  END
$$$$

  -OEChem-05262214473D

 51 50  0     1  0  0  0  0  0999 V2000
    3.4018   -1.2440   -3.0186 C   0  0  0  0  0  0  0  0  0  0  0  0
    3.2697   -2.0909   -2.1427 O   0  0  0  0  0  0  0  0  0  0  0  0
    4.6845   -1.1645   -3.7779 C   0  0  0  0  0  0  0  0  0  0  0  0
    5.4123   -0.4862   -3.3041 H   0  0  0  0  0  0  0  0  0  0  0  0
    5.1949   -2.1387   -3.8443 H   0  0  0  0  0  0  0  0  0  0  0  0
    4.5953   -0.8128   -4.8182 H   0  0  0  0  0  0  0  0  0  0  0  0
    2.4540   -0.3103   -3.4040 N   0  0  0  0  0  0  0  0  0  0  0  0
    1.1494   -0.2128   -2.8039 C   0  0  2  0  0  0  0  0  0  0  0  0
    1.3350    0.0367   -1.3130 C   0  0  0  0  0  0  0  0  0  0  0  0
    2.3625   -0.2586   -0.7063 O   0  0  0  0  0  0  0  0  0  0  0  0
    0.3331   -1.4728   -3.0467 C   0  0  0  0  0  0  0  0  0  0  0  0
    2.6924    0.3404   -4.1502 H   0  0  0  0  0  0  0  0  0  0  0  0
    0.6550    0.6514   -3.2607 H   0  0  0  0  0  0  0  0  0  0  0  0
    0.8129   -2.3494   -2.5963 H   0  0  0  0  0  0  0  0  0  0  0  0
   -0.6690   -1.3857   -2.6142 H   0  0  0  0  0  0  0  0  0  0  0  0
    0.2259   -1.6670   -4.1194 H   0  0  0  0  0  0  0  0  0  0  0  0
    0.2019    0.5893   -0.7269 N   0  0  0  0  0  0  0  0  0  0  0  0
    0.1242    0.9059    0.6756 C   0  0  2  0  0  0  0  0  0  0  0  0
   -1.0846    1.8172    0.8639 C   0  0  0  0  0  0  0  0  0  0  0  0
   -1.2523    2.5078    1.8669 O   0  0  0  0  0  0  0  0  0  0  0  0
    1.3946    1.5978    1.1859 C   0  0  0  0  0  0  0  0  0  0  0  0
    2.6625    0.7199    1.1646 C   0  0  0  0  0  0  0  0  0  0  0  0
    3.8806    1.5629    1.5522 C   0  0  0  0  0  0  0  0  0  0  0  0
    2.8987    0.0704   -0.1996 C   0  0  0  0  0  0  0  0  0  0  0  0
   -0.5975    0.8179   -1.3140 H   0  0  0  0  0  0  0  0  0  0  0  0
   -0.0581   -0.0343    1.2058 H   0  0  0  0  0  0  0  0  0  0  0  0
    1.2220    1.9411    2.2156 H   0  0  0  0  0  0  0  0  0  0  0  0
    1.5768    2.5055    0.5953 H   0  0  0  0  0  0  0  0  0  0  0  0
    2.5611   -0.0768    1.9117 H   0  0  0  0  0  0  0  0  0  0  0  0
    4.0325    2.3790    0.8378 H   0  0  0  0  0  0  0  0  0  0  0  0
    4.7901    0.9529    1.5580 H   0  0  0  0  0  0  0  0  0  0  0  0
    3.7601    2.0023    2.5483 H   0  0  0  0  0  0  0  0  0  0  0  0
    3.0073    0.8256   -0.9854 H   0  0  0  0  0  0  0  0  0  0  0  0
    3.8100   -0.5374   -0.1874 H   0  0  0  0  0  0  0  0  0  0  0  0
    2.0730   -0.5926   -0.4741 H   0  0  0  0  0  0  0  0  0  0  0  0
   -1.9236    1.8043   -0.2418 N   0  0  0  0  0  0  0  0  0  0  0  0
   -3.1267    2.5997   -0.3332 C   0  0  2  0  0  0  0  0  0  0  0  0
   -2.8379    3.9619    0.2837 C   0  0  0  0  0  0  0  0  0  0  0  0
   -1.9343    4.1529    1.0950 O   0  0  0  0  0  0  0  0  0  0  0  0
   -4.2930    1.9215    0.3685 C   0  0  0  0  0  0  0  0  0  0  0  0
   -1.6877    1.2190   -1.0377 H   0  0  0  0  0  0  0  0  0  0  0  0
   -3.3459    2.7202   -1.3997 H   0  0  0  0  0  0  0  0  0  0  0  0
   -4.0917    1.7922    1.4382 H   0  0  0  0  0  0  0  0  0  0  0  0
   -5.2105    2.5118    0.2739 H   0  0  0  0  0  0  0  0  0  0  0  0
   -4.4803    0.9296   -0.0567 H   0  0  0  0  0  0  0  0  0  0  0  0
   -3.7349    4.9300   -0.1455 N   0  0  0  0  0  0  0  0  0  0  0  0
   -3.6785    6.3005    0.3067 C   0  0  0  0  0  0  0  0  0  0  0  0
   -4.4408    4.6869   -0.8343 H   0  0  0  0  0  0  0  0  0  0  0  0
   -4.3305    6.4249    1.1838 H   0  0  0  0  0  0  0  0  0  0  0  0
   -2.6436    6.5538    0.5804 H   0  0  0  0  0  0  0  0  0  0  0  0
   -4.0180    6.9669   -0.5000 H   0  0  0  0  0  0  0  0  0  0  0  0
  1  3  1  0  0  0  0
  1  7  1  0  0  0  0
  1  2  2  0  0  0  0
 37 38  1  0  0  0  0
 38 46  1  0  0  0  0
 38 39  2  0  0  0  0
  8  9  1  0  0  0  0
  9 17  1  0  0  0  0
  9 10  2  0  0  0  0
 18 19  1  0  0  0  0
 19 36  1  0  0  0  0
 19 20  2  0  0  0  0
 37 40  1  0  0  0  0
  8 11  1  0  0  0  0
 22 23  1  0  0  0  0
 22 24  1  0  0  0  0
 46 47  1  0  0  0  0
 18 21  1  0  0  0  0
 21 22  1  0  0  0  0
 36 37  1  0  0  0  0
  7  8  1  0  0  0  0
 17 18  1  0  0  0  0
  3  4  1  0  0  0  0
  3  5  1  0  0  0  0
  3  6  1  0  0  0  0
 40 43  1  0  0  0  0
 40 44  1  0  0  0  0
 40 45  1  0  0  0  0
 11 14  1  0  0  0  0
 11 15  1  0  0  0  0
 11 16  1  0  0  0  0
 23 30  1  0  0  0  0
 23 31  1  0  0  0  0
 23 32  1  0  0  0  0
 24 33  1  0  0  0  0
 24 34  1  0  0  0  0
 24 35  1  0  0  0  0
 47 49  1  0  0  0  0
 47 50  1  0  0  0  0
 47 51  1  0  0  0  0
 21 27  1  0  0  0  0
 21 28  1  0  0  0  0
 37 42  1  0  0  0  0
  8 13  1  0  0  0  0
 18 26  1  0  0  0  0
 22 29  1  0  0  0  0
 46 48  1  0  0  0  0
  7 12  1  0  0  0  0
 36 41  1  0  0  0  0
 17 25  1  0  0  0  0
M  END
$$$$

  -OEChem-05262214473D

 51 50  0     1  0  0  0  0  0999 V2000
    3.4018   -1.2440   -3.0186 C   0  0  0  0  0  0  0  0  0  0  0  0
    3.2697   -2.0909   -2.1427 O   0  0  0  0  0  0  0  0  0  0  0  0
    4.6845   -1.1645   -3.7779 C   0  0  0  0  0  0  0  0  0  0  0  0
    5.4123   -0.4862   -3.3041 H   0  0  0  0  0  0  0  0  0  0  0  0
    5.1949   -2.1387   -3.8443 H   0  0  0  0  0  0  0  0  0  0  0  0
    4.5953   -0.8128   -4.8182 H   0  0  0  0  0  0  0  0  0  0  0  0
    2.4540   -0.3103   -3.4040 N   0  0  0  0  0  0  0  0  0  0  0  0
    1.1494   -0.2128   -2.8039 C   0  0  2  0  0  0  0  0  0  0  0  0
    1.3350    0.0367   -1.3130 C   0  0  0  0  0  0  0  0  0  0  0  0
    2.3625   -0.2586   -0.7063 O   0  0  0  0  0  0  0  0  0  0  0  0
    0.3331   -1.4728   -3.0467 C   0  0  0  0  0  0  0  0  0  0  0  0
    2.6924    0.3404   -4.1502 H   0  0  0  0  0  0  0  0  0  0  0  0
    0.6550    0.6514   -3.2607 H   0  0  0  0  0  0  0  0  0  0  0  0
    0.8129   -2.3494   -2.5963 H   0  0  0  0  0  0  0  0  0  0  0  0
   -0.6690   -1.3857   -2.6142 H   0  0  0  0  0  0  0  0  0  0  0  0
    0.2259   -1.6670   -4.1194 H   0  0  0  0  0  0  0  0  0  0  0  0
    0.2019    0.5893   -0.7269 N   0  0  0  0  0  0  0  0  0  0  0  0
    0.1242    0.9059    0.6756 C   0  0  2  0  0  0  0  0  0  0  0  0
   -1.0846    1.8172    0.8639 C   0  0  0  0  0  0  0  0  0  0  0  0
   -1.1317    2.6982    1.7199 O   0  0  0  0  0  0  0  0  0  0  0  0
    1.3946    1.5978    1.1859 C   0  0  0  0  0  0  0  0  0  0  0  0
    2.6625    0.7199    1.1646 C   0  0  0  0  0  0  0  0  0  0  0  0
    3.8806    1.5629    1.5522 C   0  0  0  0  0  0  0  0  0  0  0  0
    2.8987    0.0704   -0.1996 C   0  0  0  0  0  0  0  0  0  0  0  0
   -0.5975    0.8179   -1.3140 H   0  0  0  0  0  0  0  0  0  0  0  0
   -0.0581   -0.0343    1.2058 H   0  0  0  0  0  0  0  0  0  0  0  0
    1.2220    1.9411    2.2156 H   0  0  0  0  0  0  0  0  0  0  0  0
    1.5768    2.5055    0.5953 H   0  0  0  0  0  0  0  0  0  0  0  0
    2.5611   -0.0768    1.9117 H   0  0  0  0  0  0  0  0  0  0  0  0
    4.0325    2.3790    0.8378 H   0  0  0  0  0  0  0  0  0  0  0  0
    4.7901    0.9529    1.5580 H   0  0  0  0  0  0  0  0  0  0  0  0
    3.7601    2.0023    2.5483 H   0  0  0  0  0  0  0  0  0  0  0  0
    3.0073    0.8256   -0.9854 H   0  0  0  0  0  0  0  0  0  0  0  0
    3.8100   -0.5374   -0.1874 H   0  0  0  0  0  0  0  0  0  0  0  0
    2.0730   -0.5926   -0.4741 H   0  0  0  0  0  0  0  0  0  0  0  0
   -2.0796    1.5617   -0.0696 N   0  0  0  0  0  0  0  0  0  0  0  0
   -3.3195    2.3018   -0.1290 C   0  0  2  0  0  0  0  0  0  0  0  0
   -3.0065    3.7667    0.1456 C   0  0  0  0  0  0  0  0  0  0  0  0
   -2.0009    4.1362    0.7483 O   0  0  0  0  0  0  0  0  0  0  0  0
   -4.3323    1.7657    0.8708 C   0  0  0  0  0  0  0  0  0  0  0  0
   -1.9390    0.8278   -0.7575 H   0  0  0  0  0  0  0  0  0  0  0  0
   -3.7031    2.1948   -1.1495 H   0  0  0  0  0  0  0  0  0  0  0  0
   -3.9655    1.8644    1.8989 H   0  0  0  0  0  0  0  0  0  0  0  0
   -5.2808    2.3088    0.8047 H   0  0  0  0  0  0  0  0  0  0  0  0
   -4.5338    0.7043    0.6903 H   0  0  0  0  0  0  0  0  0  0  0  0
   -4.0037    4.6103   -0.3237 N   0  0  0  0  0  0  0  0  0  0  0  0
   -3.9454    6.0456   -0.1732 C   0  0  0  0  0  0  0  0  0  0  0  0
   -4.7931    4.2184   -0.8285 H   0  0  0  0  0  0  0  0  0  0  0  0
   -4.4625    6.3390    0.7523 H   0  0  0  0  0  0  0  0  0  0  0  0
   -2.8944    6.3665   -0.1234 H   0  0  0  0  0  0  0  0  0  0  0  0
   -4.4347    6.5246   -1.0341 H   0  0  0  0  0  0  0  0  0  0  0  0
  1  3  1  0  0  0  0
  1  7  1  0  0  0  0
  1  2  2  0  0  0  0
 37 38  1  0  0  0  0
 38 46  1  0  0  0  0
 38 39  2  0  0  0  0
  8  9  1  0  0  0  0
  9 17  1  0  0  0  0
  9 10  2  0  0  0  0
 18 19  1  0  0  0  0
 19 36  1  0  0  0  0
 19 20  2  0  0  0  0
 37 40  1  0  0  0  0
  8 11  1  0  0  0  0
 22 23  1  0  0  0  0
 22 24  1  0  0  0  0
 46 47  1  0  0  0  0
 18 21  1  0  0  0  0
 21 22  1  0  0  0  0
 36 37  1  0  0  0  0
  7  8  1  0  0  0  0
 17 18  1  0  0  0  0
  3  4  1  0  0  0  0
  3  5  1  0  0  0  0
  3  6  1  0  0  0  0
 40 43  1  0  0  0  0
 40 44  1  0  0  0  0
 40 45  1  0  0  0  0
 11 14  1  0  0  0  0
 11 15  1  0  0  0  0
 11 16  1  0  0  0  0
 23 30  1  0  0  0  0
 23 31  1  0  0  0  0
 23 32  1  0  0  0  0
 24 33  1  0  0  0  0
 24 34  1  0  0  0  0
 24 35  1  0  0  0  0
 47 49  1  0  0  0  0
 47 50  1  0  0  0  0
 47 51  1  0  0  0  0
 21 27  1  0  0  0  0
 21 28  1  0  0  0  0
 37 42  1  0  0  0  0
  8 13  1  0  0  0  0
 18 26  1  0  0  0  0
 22 29  1  0  0  0  0
 46 48  1  0  0  0  0
  7 12  1  0  0  0  0
 36 41  1  0  0  0  0
 17 25  1  0  0  0  0
M  END
$$$$

  -OEChem-05262214473D

 51 50  0     1  0  0  0  0  0999 V2000
    3.4018   -1.2440   -3.0186 C   0  0  0  0  0  0  0  0  0  0  0  0
    3.2697   -2.0909   -2.1427 O   0  0  0  0  0  0  0  0  0  0  0  0
    4.6845   -1.1645   -3.7779 C   0  0  0  0  0  0  0  0  0  0  0  0
    5.4123   -0.4862   -3.3041 H   0  0  0  0  0  0  0  0  0  0  0  0
    5.1949   -2.1387   -3.8443 H   0  0  0  0  0  0  0  0  0  0  0  0
    4.5953   -0.8128   -4.8182 H   0  0  0  0  0  0  0  0  0  0  0  0
    2.4540   -0.3103   -3.4040 N   0  0  0  0  0  0  0  0  0  0  0  0
    1.1494   -0.2128   -2.8039 C   0  0  2  0  0  0  0  0  0  0  0  0
    1.3350    0.0367   -1.3130 C   0  0  0  0  0  0  0  0  0  0  0  0
    2.3625   -0.2586   -0.7063 O   0  0  0  0  0  0  0  0  0  0  0  0
    0.3331   -1.4728   -3.0467 C   0  0  0  0  0  0  0  0  0  0  0  0
    2.6924    0.3404   -4.1502 H   0  0  0  0  0  0  0  0  0  0  0  0
    0.6550    0.6514   -3.2607 H   0  0  0  0  0  0  0  0  0  0  0  0
    0.8129   -2.3494   -2.5963 H   0  0  0  0  0  0  0  0  0  0  0  0
   -0.6690   -1.3857   -2.6142 H   0  0  0  0  0  0  0  0  0  0  0  0
    0.2259   -1.6670   -4.1194 H   0  0  0  0  0  0  0  0  0  0  0  0
    0.2019    0.5893   -0.7269 N   0  0  0  0  0  0  0  0  0  0  0  0
    0.1242    0.9059    0.6756 C   0  0  2  0  0  0  0  0  0  0  0  0
   -1.0846    1.8172    0.8639 C   0  0  0  0  0  0  0  0  0  0  0  0
   -1.0439    2.8559    1.5201 O   0  0  0  0  0  0  0  0  0  0  0  0
    1.3946    1.5978    1.1859 C   0  0  0  0  0  0  0  0  0  0  0  0
    2.6625    0.7199    1.1646 C   0  0  0  0  0  0  0  0  0  0  0  0
    3.8806    1.5629    1.5522 C   0  0  0  0  0  0  0  0  0  0  0  0
    2.8987    0.0704   -0.1996 C   0  0  0  0  0  0  0  0  0  0  0  0
   -0.5975    0.8179   -1.3140 H   0  0  0  0  0  0  0  0  0  0  0  0
   -0.0581   -0.0343    1.2058 H   0  0  0  0  0  0  0  0  0  0  0  0
    1.2220    1.9411    2.2156 H   0  0  0  0  0  0  0  0  0  0  0  0
    1.5768    2.5055    0.5953 H   0  0  0  0  0  0  0  0  0  0  0  0
    2.5611   -0.0768    1.9117 H   0  0  0  0  0  0  0  0  0  0  0  0
    4.0325    2.3790    0.8378 H   0  0  0  0  0  0  0  0  0  0  0  0
    4.7901    0.9529    1.5580 H   0  0  0  0  0  0  0  0  0  0  0  0
    3.7601    2.0023    2.5483 H   0  0  0  0  0  0  0  0  0  0  0  0
    3.0073    0.8256   -0.9854 H   0  0  0  0  0  0  0  0  0  0  0  0
    3.8100   -0.5374   -0.1874 H   0  0  0  0  0  0  0  0  0  0  0  0
    2.0730   -0.5926   -0.4741 H   0  0  0  0  0  0  0  0  0  0  0  0
   -2.1959    1.3578    0.1706 N   0  0  0  0  0  0  0  0  0  0  0  0
   -3.4647    2.0497    0.1591 C   0  0  2  0  0  0  0  0  0  0  0  0
   -3.1845    3.5445    0.0783 C   0  0  0  0  0  0  0  0  0  0  0  0
   -2.1182    4.0469    0.4271 O   0  0  0  0  0  0  0  0  0  0  0  0
   -4.2876    1.7169    1.3939 C   0  0  0  0  0  0  0  0  0  0  0  0
   -2.1259    0.4994   -0.3677 H   0  0  0  0  0  0  0  0  0  0  0  0
   -3.9927    1.7271   -0.7449 H   0  0  0  0  0  0  0  0  0  0  0  0
   -3.7747    2.0327    2.3097 H   0  0  0  0  0  0  0  0  0  0  0  0
   -5.2602    2.2194    1.3698 H   0  0  0  0  0  0  0  0  0  0  0  0
   -4.4629    0.6381    1.4664 H   0  0  0  0  0  0  0  0  0  0  0  0
   -4.2806    4.2564   -0.3886 N   0  0  0  0  0  0  0  0  0  0  0  0
   -4.2693    5.6924   -0.5431 C   0  0  0  0  0  0  0  0  0  0  0  0
   -5.1176    3.7558   -0.6724 H   0  0  0  0  0  0  0  0  0  0  0  0
   -4.6539    6.1634    0.3735 H   0  0  0  0  0  0  0  0  0  0  0  0
   -3.2395    6.0333   -0.7260 H   0  0  0  0  0  0  0  0  0  0  0  0
   -4.9056    5.9744   -1.3949 H   0  0  0  0  0  0  0  0  0  0  0  0
  1  3  1  0  0  0  0
  1  7  1  0  0  0  0
  1  2  2  0  0  0  0
 37 38  1  0  0  0  0
 38 46  1  0  0  0  0
 38 39  2  0  0  0  0
  8  9  1  0  0  0  0
  9 17  1  0  0  0  0
  9 10  2  0  0  0  0
 18 19  1  0  0  0  0
 19 36  1  0  0  0  0
 19 20  2  0  0  0  0
 37 40  1  0  0  0  0
  8 11  1  0  0  0  0
 22 23  1  0  0  0  0
 22 24  1  0  0  0  0
 46 47  1  0  0  0  0
 18 21  1  0  0  0  0
 21 22  1  0  0  0  0
 36 37  1  0  0  0  0
  7  8  1  0  0  0  0
 17 18  1  0  0  0  0
  3  4  1  0  0  0  0
  3  5  1  0  0  0  0
  3  6  1  0  0  0  0
 40 43  1  0  0  0  0
 40 44  1  0  0  0  0
 40 45  1  0  0  0  0
 11 14  1  0  0  0  0
 11 15  1  0  0  0  0
 11 16  1  0  0  0  0
 23 30  1  0  0  0  0
 23 31  1  0  0  0  0
 23 32  1  0  0  0  0
 24 33  1  0  0  0  0
 24 34  1  0  0  0  0
 24 35  1  0  0  0  0
 47 49  1  0  0  0  0
 47 50  1  0  0  0  0
 47 51  1  0  0  0  0
 21 27  1  0  0  0  0
 21 28  1  0  0  0  0
 37 42  1  0  0  0  0
  8 13  1  0  0  0  0
 18 26  1  0  0  0  0
 22 29  1  0  0  0  0
 46 48  1  0  0  0  0
  7 12  1  0  0  0  0
 36 41  1  0  0  0  0
 17 25  1  0  0  0  0
M  END
$$$$

  -OEChem-05262214473D

 51 50  0     1  0  0  0  0  0999 V2000
    3.4018   -1.2440   -3.0186 C   0  0  0  0  0  0  0  0  0  0  0  0
    3.2697   -2.0909   -2.1427 O   0  0  0  0  0  0  0  0  0  0  0  0
    4.6845   -1.1645   -3.7779 C   0  0  0  0  0  0  0  0  0  0  0  0
    5.4123   -0.4862   -3.3041 H   0  0  0  0  0  0  0  0  0  0  0  0
    5.1949   -2.1387   -3.8443 H   0  0  0  0  0  0  0  0  0  0  0  0
    4.5953   -0.8128   -4.8182 H   0  0  0  0  0  0  0  0  0  0  0  0
    2.4540   -0.3103   -3.4040 N   0  0  0  0  0  0  0  0  0  0  0  0
    1.1494   -0.2128   -2.8039 C   0  0  2  0  0  0  0  0  0  0  0  0
    1.3350    0.0367   -1.3130 C   0  0  0  0  0  0  0  0  0  0  0  0
    2.3625   -0.2586   -0.7063 O   0  0  0  0  0  0  0  0  0  0  0  0
    0.3331   -1.4728   -3.0467 C   0  0  0  0  0  0  0  0  0  0  0  0
    2.6924    0.3404   -4.1502 H   0  0  0  0  0  0  0  0  0  0  0  0
    0.6550    0.6514   -3.2607 H   0  0  0  0  0  0  0  0  0  0  0  0
    0.8129   -2.3494   -2.5963 H   0  0  0  0  0  0  0  0  0  0  0  0
   -0.6690   -1.3857   -2.6142 H   0  0  0  0  0  0  0  0  0  0  0  0
    0.2259   -1.6670   -4.1194 H   0  0  0  0  0  0  0  0  0  0  0  0
    0.2019    0.5893   -0.7269 N   0  0  0  0  0  0  0  0  0  0  0  0
    0.1242    0.9059    0.6756 C   0  0  2  0  0  0  0  0  0  0  0  0
   -1.0846    1.8172    0.8639 C   0  0  0  0  0  0  0  0  0  0  0  0
   -0.9951    2.9700    1.2812 O   0  0  0  0  0  0  0  0  0  0  0  0
    1.3946    1.5978    1.1859 C   0  0  0  0  0  0  0  0  0  0  0  0
    2.6625    0.7199    1.1646 C   0  0  0  0  0  0  0  0  0  0  0  0
    3.8806    1.5629    1.5522 C   0  0  0  0  0  0  0  0  0  0  0  0
    2.8987    0.0704   -0.1996 C   0  0  0  0  0  0  0  0  0  0  0  0
   -0.5975    0.8179   -1.3140 H   0  0  0  0  0  0  0  0  0  0  0  0
   -0.0581   -0.0343    1.2058 H   0  0  0  0  0  0  0  0  0  0  0  0
    1.2220    1.9411    2.2156 H   0  0  0  0  0  0  0  0  0  0  0  0
    1.5768    2.5055    0.5953 H   0  0  0  0  0  0  0  0  0  0  0  0
    2.5611   -0.0768    1.9117 H   0  0  0  0  0  0  0  0  0  0  0  0
    4.0325    2.3790    0.8378 H   0  0  0  0  0  0  0  0  0  0  0  0
    4.7901    0.9529    1.5580 H   0  0  0  0  0  0  0  0  0  0  0  0
    3.7601    2.0023    2.5483 H   0  0  0  0  0  0  0  0  0  0  0  0
    3.0073    0.8256   -0.9854 H   0  0  0  0  0  0  0  0  0  0  0  0
    3.8100   -0.5374   -0.1874 H   0  0  0  0  0  0  0  0  0  0  0  0
    2.0730   -0.5926   -0.4741 H   0  0  0  0  0  0  0  0  0  0  0  0
   -2.2646    1.2064    0.4624 N   0  0  0  0  0  0  0  0  0  0  0  0
   -3.5523    1.8607    0.5116 C   0  0  2  0  0  0  0  0  0  0  0  0
   -3.3598    3.3104    0.0864 C   0  0  0  0  0  0  0  0  0  0  0  0
   -2.2784    3.8911    0.1533 O   0  0  0  0  0  0  0  0  0  0  0  0
   -4.1620    1.7785    1.9023 C   0  0  0  0  0  0  0  0  0  0  0  0
   -2.2356    0.2561    0.1050 H   0  0  0  0  0  0  0  0  0  0  0  0
   -4.1948    1.3491   -0.2133 H   0  0  0  0  0  0  0  0  0  0  0  0
   -3.5322    2.2856    2.6424 H   0  0  0  0  0  0  0  0  0  0  0  0
   -5.1501    2.2496    1.9309 H   0  0  0  0  0  0  0  0  0  0  0  0
   -4.2722    0.7356    2.2186 H   0  0  0  0  0  0  0  0  0  0  0  0
   -4.5468    3.8924   -0.3359 N   0  0  0  0  0  0  0  0  0  0  0  0
   -4.6281    5.2650   -0.7779 C   0  0  0  0  0  0  0  0  0  0  0  0
   -5.3921    3.3306   -0.3766 H   0  0  0  0  0  0  0  0  0  0  0  0
   -4.8918    5.9099    0.0733 H   0  0  0  0  0  0  0  0  0  0  0  0
   -3.6554    5.5767   -1.1864 H   0  0  0  0  0  0  0  0  0  0  0  0
   -5.3987    5.3540   -1.5577 H   0  0  0  0  0  0  0  0  0  0  0  0
  1  3  1  0  0  0  0
  1  7  1  0  0  0  0
  1  2  2  0  0  0  0
 37 38  1  0  0  0  0
 38 46  1  0  0  0  0
 38 39  2  0  0  0  0
  8  9  1  0  0  0  0
  9 17  1  0  0  0  0
  9 10  2  0  0  0  0
 18 19  1  0  0  0  0
 19 36  1  0  0  0  0
 19 20  2  0  0  0  0
 37 40  1  0  0  0  0
  8 11  1  0  0  0  0
 22 23  1  0  0  0  0
 22 24  1  0  0  0  0
 46 47  1  0  0  0  0
 18 21  1  0  0  0  0
 21 22  1  0  0  0  0
 36 37  1  0  0  0  0
  7  8  1  0  0  0  0
 17 18  1  0  0  0  0
  3  4  1  0  0  0  0
  3  5  1  0  0  0  0
  3  6  1  0  0  0  0
 40 43  1  0  0  0  0
 40 44  1  0  0  0  0
 40 45  1  0  0  0  0
 11 14  1  0  0  0  0
 11 15  1  0  0  0  0
 11 16  1  0  0  0  0
 23 30  1  0  0  0  0
 23 31  1  0  0  0  0
 23 32  1  0  0  0  0
 24 33  1  0  0  0  0
 24 34  1  0  0  0  0
 24 35  1  0  0  0  0
 47 49  1  0  0  0  0
 47 50  1  0  0  0  0
 47 51  1  0  0  0  0
 21 27  1  0  0  0  0
 21 28  1  0  0  0  0
 37 42  1  0  0  0  0
  8 13  1  0  0  0  0
 18 26  1  0  0  0  0
 22 29  1  0  0  0  0
 46 48  1  0  0  0  0
  7 12  1  0  0  0  0
 36 41  1  0  0  0  0
 17 25  1  0  0  0  0
M  END
$$$$

  -OEChem-05262214473D

 51 50  0     1  0  0  0  0  0999 V2000
    3.4018   -1.2440   -3.0186 C   0  0  0  0  0  0  0  0  0  0  0  0
    3.2697   -2.0909   -2.1427 O   0  0  0  0  0  0  0  0  0  0  0  0
    4.6845   -1.1645   -3.7779 C   0  0  0  0  0  0  0  0  0  0  0  0
    5.4123   -0.4862   -3.3041 H   0  0  0  0  0  0  0  0  0  0  0  0
    5.1949   -2.1387   -3.8443 H   0  0  0  0  0  0  0  0  0  0  0  0
    4.5953   -0.8128   -4.8182 H   0  0  0  0  0  0  0  0  0  0  0  0
    2.4540   -0.3103   -3.4040 N   0  0  0  0  0  0  0  0  0  0  0  0
    1.1494   -0.2128   -2.8039 C   0  0  2  0  0  0  0  0  0  0  0  0
    1.3350    0.0367   -1.3130 C   0  0  0  0  0  0  0  0  0  0  0  0
    2.3625   -0.2586   -0.7063 O   0  0  0  0  0  0  0  0  0  0  0  0
    0.3331   -1.4728   -3.0467 C   0  0  0  0  0  0  0  0  0  0  0  0
    2.6924    0.3404   -4.1502 H   0  0  0  0  0  0  0  0  0  0  0  0
    0.6550    0.6514   -3.2607 H   0  0  0  0  0  0  0  0  0  0  0  0
    0.8129   -2.3494   -2.5963 H   0  0  0  0  0  0  0  0  0  0  0  0
   -0.6690   -1.3857   -2.6142 H   0  0  0  0  0  0  0  0  0  0  0  0
    0.2259   -1.6670   -4.1194 H   0  0  0  0  0  0  0  0  0  0  0  0
    0.2019    0.5893   -0.7269 N   0  0  0  0  0  0  0  0  0  0  0  0
    0.1242    0.9059    0.6756 C   0  0  2  0  0  0  0  0  0  0  0  0
   -1.0846    1.8172    0.8639 C   0  0  0  0  0  0  0  0  0  0  0  0
   -0.9885    3.0328    1.0195 O   0  0  0  0  0  0  0  0  0  0  0  0
    1.3946    1.5978    1.1859 C   0  0  0  0  0  0  0  0  0  0  0  0
    2.6625    0.7199    1.1646 C   0  0  0  0  0  0  0  0  0  0  0  0
    3.8806    1.5629    1.5522 C   0  0  0  0  0  0  0  0  0  0  0  0
    2.8987    0.0704   -0.1996 C   0  0  0  0  0  0  0  0  0  0  0  0
   -0.5975    0.8179   -1.3140 H   0  0  0  0  0  0  0  0  0  0  0  0
   -0.0581   -0.0343    1.2058 H   0  0  0  0  0  0  0  0  0  0  0  0
    1.2220    1.9411    2.2156 H   0  0  0  0  0  0  0  0  0  0  0  0
    1.5768    2.5055    0.5953 H   0  0  0  0  0  0  0  0  0  0  0  0
    2.5611   -0.0768    1.9117 H   0  0  0  0  0  0  0  0  0  0  0  0
    4.0325    2.3790    0.8378 H   0  0  0  0  0  0  0  0  0  0  0  0
    4.7901    0.9529    1.5580 H   0  0  0  0  0  0  0  0  0  0  0  0
    3.7601    2.0023    2.5483 H   0  0  0  0  0  0  0  0  0  0  0  0
    3.0073    0.8256   -0.9854 H   0  0  0  0  0  0  0  0  0  0  0  0
    3.8100   -0.5374   -0.1874 H   0  0  0  0  0  0  0  0  0  0  0  0
    2.0730   -0.5926   -0.4741 H   0  0  0  0  0  0  0  0  0  0  0  0
   -2.2810    1.1178    0.7860 N   0  0  0  0  0  0  0  0  0  0  0  0
   -3.5764    1.7475    0.9044 C   0  0  2  0  0  0  0  0  0  0  0  0
   -3.5203    3.0803    0.1694 C   0  0  0  0  0  0  0  0  0  0  0  0
   -2.4705    3.6792   -0.0544 O   0  0  0  0  0  0  0  0  0  0  0  0
   -3.9640    1.9462    2.3614 C   0  0  0  0  0  0  0  0  0  0  0  0
   -2.2608    0.1146    0.6285 H   0  0  0  0  0  0  0  0  0  0  0  0
   -4.2959    1.0866    0.4089 H   0  0  0  0  0  0  0  0  0  0  0  0
   -3.2546    2.6058    2.8744 H   0  0  0  0  0  0  0  0  0  0  0  0
   -4.9579    2.3973    2.4496 H   0  0  0  0  0  0  0  0  0  0  0  0
   -3.9748    0.9901    2.8957 H   0  0  0  0  0  0  0  0  0  0  0  0
   -4.7842    3.5431   -0.1692 N   0  0  0  0  0  0  0  0  0  0  0  0
   -4.9972    4.7926   -0.8616 C   0  0  0  0  0  0  0  0  0  0  0  0
   -5.5978    2.9718    0.0388 H   0  0  0  0  0  0  0  0  0  0  0  0
   -5.1599    5.5959   -0.1279 H   0  0  0  0  0  0  0  0  0  0  0  0
   -4.1137    5.0280   -1.4731 H   0  0  0  0  0  0  0  0  0  0  0  0
   -5.8804    4.7055   -1.5115 H   0  0  0  0  0  0  0  0  0  0  0  0
  1  3  1  0  0  0  0
  1  7  1  0  0  0  0
  1  2  2  0  0  0  0
 37 38  1  0  0  0  0
 38 46  1  0  0  0  0
 38 39  2  0  0  0  0
  8  9  1  0  0  0  0
  9 17  1  0  0  0  0
  9 10  2  0  0  0  0
 18 19  1  0  0  0  0
 19 36  1  0  0  0  0
 19 20  2  0  0  0  0
 37 40  1  0  0  0  0
  8 11  1  0  0  0  0
 22 23  1  0  0  0  0
 22 24  1  0  0  0  0
 46 47  1  0  0  0  0
 18 21  1  0  0  0  0
 21 22  1  0  0  0  0
 36 37  1  0  0  0  0
  7  8  1  0  0  0  0
 17 18  1  0  0  0  0
  3  4  1  0  0  0  0
  3  5  1  0  0  0  0
  3  6  1  0  0  0  0
 40 43  1  0  0  0  0
 40 44  1  0  0  0  0
 40 45  1  0  0  0  0
 11 14  1  0  0  0  0
 11 15  1  0  0  0  0
 11 16  1  0  0  0  0
 23 30  1  0  0  0  0
 23 31  1  0  0  0  0
 23 32  1  0  0  0  0
 24 33  1  0  0  0  0
 24 34  1  0  0  0  0
 24 35  1  0  0  0  0
 47 49  1  0  0  0  0
 47 50  1  0  0  0  0
 47 51  1  0  0  0  0
 21 27  1  0  0  0  0
 21 28  1  0  0  0  0
 37 42  1  0  0  0  0
  8 13  1  0  0  0  0
 18 26  1  0  0  0  0
 22 29  1  0  0  0  0
 46 48  1  0  0  0  0
  7 12  1  0  0  0  0
 36 41  1  0  0  0  0
 17 25  1  0  0  0  0
M  END
$$$$

  -OEChem-05262214473D

 51 50  0     1  0  0  0  0  0999 V2000
    3.4018   -1.2440   -3.0186 C   0  0  0  0  0  0  0  0  0  0  0  0
    3.2697   -2.0909   -2.1427 O   0  0  0  0  0  0  0  0  0  0  0  0
    4.6845   -1.1645   -3.7779 C   0  0  0  0  0  0  0  0  0  0  0  0
    5.4123   -0.4862   -3.3041 H   0  0  0  0  0  0  0  0  0  0  0  0
    5.1949   -2.1387   -3.8443 H   0  0  0  0  0  0  0  0  0  0  0  0
    4.5953   -0.8128   -4.8182 H   0  0  0  0  0  0  0  0  0  0  0  0
    2.4540   -0.3103   -3.4040 N   0  0  0  0  0  0  0  0  0  0  0  0
    1.1494   -0.2128   -2.8039 C   0  0  2  0  0  0  0  0  0  0  0  0
    1.3350    0.0367   -1.3130 C   0  0  0  0  0  0  0  0  0  0  0  0
    2.3625   -0.2586   -0.7063 O   0  0  0  0  0  0  0  0  0  0  0  0
    0.3331   -1.4728   -3.0467 C   0  0  0  0  0  0  0  0  0  0  0  0
    2.6924    0.3404   -4.1502 H   0  0  0  0  0  0  0  0  0  0  0  0
    0.6550    0.6514   -3.2607 H   0  0  0  0  0  0  0  0  0  0  0  0
    0.8129   -2.3494   -2.5963 H   0  0  0  0  0  0  0  0  0  0  0  0
   -0.6690   -1.3857   -2.6142 H   0  0  0  0  0  0  0  0  0  0  0  0
    0.2259   -1.6670   -4.1194 H   0  0  0  0  0  0  0  0  0  0  0  0
    0.2019    0.5893   -0.7269 N   0  0  0  0  0  0  0  0  0  0  0  0
    0.1242    0.9059    0.6756 C   0  0  2  0  0  0  0  0  0  0  0  0
   -1.0846    1.8172    0.8639 C   0  0  0  0  0  0  0  0  0  0  0  0
   -1.0246    3.0400    0.7529 O   0  0  0  0  0  0  0  0  0  0  0  0
    1.3946    1.5978    1.1859 C   0  0  0  0  0  0  0  0  0  0  0  0
    2.6625    0.7199    1.1646 C   0  0  0  0  0  0  0  0  0  0  0  0
    3.8806    1.5629    1.5522 C   0  0  0  0  0  0  0  0  0  0  0  0
    2.8987    0.0704   -0.1996 C   0  0  0  0  0  0  0  0  0  0  0  0
   -0.5975    0.8179   -1.3140 H   0  0  0  0  0  0  0  0  0  0  0  0
   -0.0581   -0.0343    1.2058 H   0  0  0  0  0  0  0  0  0  0  0  0
    1.2220    1.9411    2.2156 H   0  0  0  0  0  0  0  0  0  0  0  0
    1.5768    2.5055    0.5953 H   0  0  0  0  0  0  0  0  0  0  0  0
    2.5611   -0.0768    1.9117 H   0  0  0  0  0  0  0  0  0  0  0  0
    4.0325    2.3790    0.8378 H   0  0  0  0  0  0  0  0  0  0  0  0
    4.7901    0.9529    1.5580 H   0  0  0  0  0  0  0  0  0  0  0  0
    3.7601    2.0023    2.5483 H   0  0  0  0  0  0  0  0  0  0  0  0
    3.0073    0.8256   -0.9854 H   0  0  0  0  0  0  0  0  0  0  0  0
    3.8100   -0.5374   -0.1874 H   0  0  0  0  0  0  0  0  0  0  0  0
    2.0730   -0.5926   -0.4741 H   0  0  0  0  0  0  0  0  0  0  0  0
   -2.2440    1.0980    1.1193 N   0  0  0  0  0  0  0  0  0  0  0  0
   -3.5353    1.7181    1.3107 C   0  0  2  0  0  0  0  0  0  0  0  0
   -3.6552    2.8699    0.3215 C   0  0  0  0  0  0  0  0  0  0  0  0
   -2.6813    3.4259   -0.1819 O   0  0  0  0  0  0  0  0  0  0  0  0
   -3.7072    2.2088    2.7398 C   0  0  0  0  0  0  0  0  0  0  0  0
   -2.1996    0.0844    1.1671 H   0  0  0  0  0  0  0  0  0  0  0  0
   -4.2888    0.9573    1.0793 H   0  0  0  0  0  0  0  0  0  0  0  0
   -2.9609    2.9716    2.9899 H   0  0  0  0  0  0  0  0  0  0  0  0
   -4.6968    2.6526    2.8907 H   0  0  0  0  0  0  0  0  0  0  0  0
   -3.5910    1.3843    3.4516 H   0  0  0  0  0  0  0  0  0  0  0  0
   -4.9765    3.2323    0.1002 N   0  0  0  0  0  0  0  0  0  0  0  0
   -5.3517    4.3073   -0.7885 C   0  0  0  0  0  0  0  0  0  0  0  0
   -5.7209    2.7038    0.5454 H   0  0  0  0  0  0  0  0  0  0  0  0
   -5.4399    5.2427   -0.2164 H   0  0  0  0  0  0  0  0  0  0  0  0
   -4.5832    4.4246   -1.5667 H   0  0  0  0  0  0  0  0  0  0  0  0
   -6.3178    4.0732   -1.2595 H   0  0  0  0  0  0  0  0  0  0  0  0
  1  3  1  0  0  0  0
  1  7  1  0  0  0  0
  1  2  2  0  0  0  0
 37 38  1  0  0  0  0
 38 46  1  0  0  0  0
 38 39  2  0  0  0  0
  8  9  1  0  0  0  0
  9 17  1  0  0  0  0
  9 10  2  0  0  0  0
 18 19  1  0  0  0  0
 19 36  1  0  0  0  0
 19 20  2  0  0  0  0
 37 40  1  0  0  0  0
  8 11  1  0  0  0  0
 22 23  1  0  0  0  0
 22 24  1  0  0  0  0
 46 47  1  0  0  0  0
 18 21  1  0  0  0  0
 21 22  1  0  0  0  0
 36 37  1  0  0  0  0
  7  8  1  0  0  0  0
 17 18  1  0  0  0  0
  3  4  1  0  0  0  0
  3  5  1  0  0  0  0
  3  6  1  0  0  0  0
 40 43  1  0  0  0  0
 40 44  1  0  0  0  0
 40 45  1  0  0  0  0
 11 14  1  0  0  0  0
 11 15  1  0  0  0  0
 11 16  1  0  0  0  0
 23 30  1  0  0  0  0
 23 31  1  0  0  0  0
 23 32  1  0  0  0  0
 24 33  1  0  0  0  0
 24 34  1  0  0  0  0
 24 35  1  0  0  0  0
 47 49  1  0  0  0  0
 47 50  1  0  0  0  0
 47 51  1  0  0  0  0
 21 27  1  0  0  0  0
 21 28  1  0  0  0  0
 37 42  1  0  0  0  0
  8 13  1  0  0  0  0
 18 26  1  0  0  0  0
 22 29  1  0  0  0  0
 46 48  1  0  0  0  0
  7 12  1  0  0  0  0
 36 41  1  0  0  0  0
 17 25  1  0  0  0  0
M  END
$$$$

  -OEChem-05262214473D

 51 50  0     1  0  0  0  0  0999 V2000
    3.4018   -1.2440   -3.0186 C   0  0  0  0  0  0  0  0  0  0  0  0
    3.2697   -2.0909   -2.1427 O   0  0  0  0  0  0  0  0  0  0  0  0
    4.6845   -1.1645   -3.7779 C   0  0  0  0  0  0  0  0  0  0  0  0
    5.4123   -0.4862   -3.3041 H   0  0  0  0  0  0  0  0  0  0  0  0
    5.1949   -2.1387   -3.8443 H   0  0  0  0  0  0  0  0  0  0  0  0
    4.5953   -0.8128   -4.8182 H   0  0  0  0  0  0  0  0  0  0  0  0
    2.4540   -0.3103   -3.4040 N   0  0  0  0  0  0  0  0  0  0  0  0
    1.1494   -0.2128   -2.8039 C   0  0  2  0  0  0  0  0  0  0  0  0
    1.3350    0.0367   -1.3130 C   0  0  0  0  0  0  0  0  0  0  0  0
    2.3625   -0.2586   -0.7063 O   0  0  0  0  0  0  0  0  0  0  0  0
    0.3331   -1.4728   -3.0467 C   0  0  0  0  0  0  0  0  0  0  0  0
    2.6924    0.3404   -4.1502 H   0  0  0  0  0  0  0  0  0  0  0  0
    0.6550    0.6514   -3.2607 H   0  0  0  0  0  0  0  0  0  0  0  0
    0.8129   -2.3494   -2.5963 H   0  0  0  0  0  0  0  0  0  0  0  0
   -0.6690   -1.3857   -2.6142 H   0  0  0  0  0  0  0  0  0  0  0  0
    0.2259   -1.6670   -4.1194 H   0  0  0  0  0  0  0  0  0  0  0  0
    0.2019    0.5893   -0.7269 N   0  0  0  0  0  0  0  0  0  0  0  0
    0.1242    0.9059    0.6756 C   0  0  2  0  0  0  0  0  0  0  0  0
   -1.0846    1.8172    0.8639 C   0  0  0  0  0  0  0  0  0  0  0  0
   -1.1010    2.9911    0.4994 O   0  0  0  0  0  0  0  0  0  0  0  0
    1.3946    1.5978    1.1859 C   0  0  0  0  0  0  0  0  0  0  0  0
    2.6625    0.7199    1.1646 C   0  0  0  0  0  0  0  0  0  0  0  0
    3.8806    1.5629    1.5522 C   0  0  0  0  0  0  0  0  0  0  0  0
    2.8987    0.0704   -0.1996 C   0  0  0  0  0  0  0  0  0  0  0  0
   -0.5975    0.8179   -1.3140 H   0  0  0  0  0  0  0  0  0  0  0  0
   -0.0581   -0.0343    1.2058 H   0  0  0  0  0  0  0  0  0  0  0  0
    1.2220    1.9411    2.2156 H   0  0  0  0  0  0  0  0  0  0  0  0
    1.5768    2.5055    0.5953 H   0  0  0  0  0  0  0  0  0  0  0  0
    2.5611   -0.0768    1.9117 H   0  0  0  0  0  0  0  0  0  0  0  0
    4.0325    2.3790    0.8378 H   0  0  0  0  0  0  0  0  0  0  0  0
    4.7901    0.9529    1.5580 H   0  0  0  0  0  0  0  0  0  0  0  0
    3.7601    2.0023    2.5483 H   0  0  0  0  0  0  0  0  0  0  0  0
    3.0073    0.8256   -0.9854 H   0  0  0  0  0  0  0  0  0  0  0  0
    3.8100   -0.5374   -0.1874 H   0  0  0  0  0  0  0  0  0  0  0  0
    2.0730   -0.5926   -0.4741 H   0  0  0  0  0  0  0  0  0  0  0  0
   -2.1561    1.1485    1.4395 N   0  0  0  0  0  0  0  0  0  0  0  0
   -3.4319    1.7742    1.7028 C   0  0  2  0  0  0  0  0  0  0  0  0
   -3.7553    2.6936    0.5325 C   0  0  0  0  0  0  0  0  0  0  0  0
   -2.8966    3.1483   -0.2205 O   0  0  0  0  0  0  0  0  0  0  0  0
   -3.4089    2.5482    3.0117 C   0  0  0  0  0  0  0  0  0  0  0  0
   -2.0563    0.1677    1.6840 H   0  0  0  0  0  0  0  0  0  0  0  0
   -4.1743    0.9702    1.7524 H   0  0  0  0  0  0  0  0  0  0  0  0
   -2.6709    3.3580    2.9810 H   0  0  0  0  0  0  0  0  0  0  0  0
   -4.3845    2.9979    3.2239 H   0  0  0  0  0  0  0  0  0  0  0  0
   -3.1470    1.8914    3.8483 H   0  0  0  0  0  0  0  0  0  0  0  0
   -5.1107    2.9812    0.4538 N   0  0  0  0  0  0  0  0  0  0  0  0
   -5.6673    3.8422   -0.5635 C   0  0  0  0  0  0  0  0  0  0  0  0
   -5.7530    2.5450    1.1088 H   0  0  0  0  0  0  0  0  0  0  0  0
   -5.7128    4.8745   -0.1862 H   0  0  0  0  0  0  0  0  0  0  0  0
   -5.0319    3.8076   -1.4608 H   0  0  0  0  0  0  0  0  0  0  0  0
   -6.6811    3.5002   -0.8187 H   0  0  0  0  0  0  0  0  0  0  0  0
  1  3  1  0  0  0  0
  1  7  1  0  0  0  0
  1  2  2  0  0  0  0
 37 38  1  0  0  0  0
 38 46  1  0  0  0  0
 38 39  2  0  0  0  0
  8  9  1  0  0  0  0
  9 17  1  0  0  0  0
  9 10  2  0  0  0  0
 18 19  1  0  0  0  0
 19 36  1  0  0  0  0
 19 20  2  0  0  0  0
 37 40  1  0  0  0  0
  8 11  1  0  0  0  0
 22 23  1  0  0  0  0
 22 24  1  0  0  0  0
 46 47  1  0  0  0  0
 18 21  1  0  0  0  0
 21 22  1  0  0  0  0
 36 37  1  0  0  0  0
  7  8  1  0  0  0  0
 17 18  1  0  0  0  0
  3  4  1  0  0  0  0
  3  5  1  0  0  0  0
  3  6  1  0  0  0  0
 40 43  1  0  0  0  0
 40 44  1  0  0  0  0
 40 45  1  0  0  0  0
 11 14  1  0  0  0  0
 11 15  1  0  0  0  0
 11 16  1  0  0  0  0
 23 30  1  0  0  0  0
 23 31  1  0  0  0  0
 23 32  1  0  0  0  0
 24 33  1  0  0  0  0
 24 34  1  0  0  0  0
 24 35  1  0  0  0  0
 47 49  1  0  0  0  0
 47 50  1  0  0  0  0
 47 51  1  0  0  0  0
 21 27  1  0  0  0  0
 21 28  1  0  0  0  0
 37 42  1  0  0  0  0
  8 13  1  0  0  0  0
 18 26  1  0  0  0  0
 22 29  1  0  0  0  0
 46 48  1  0  0  0  0
  7 12  1  0  0  0  0
 36 41  1  0  0  0  0
 17 25  1  0  0  0  0
M  END
$$$$

  -OEChem-05262214473D

 51 50  0     1  0  0  0  0  0999 V2000
    3.4018   -1.2440   -3.0186 C   0  0  0  0  0  0  0  0  0  0  0  0
    3.2697   -2.0909   -2.1427 O   0  0  0  0  0  0  0  0  0  0  0  0
    4.6845   -1.1645   -3.7779 C   0  0  0  0  0  0  0  0  0  0  0  0
    5.4123   -0.4862   -3.3041 H   0  0  0  0  0  0  0  0  0  0  0  0
    5.1949   -2.1387   -3.8443 H   0  0  0  0  0  0  0  0  0  0  0  0
    4.5953   -0.8128   -4.8182 H   0  0  0  0  0  0  0  0  0  0  0  0
    2.4540   -0.3103   -3.4040 N   0  0  0  0  0  0  0  0  0  0  0  0
    1.1494   -0.2128   -2.8039 C   0  0  2  0  0  0  0  0  0  0  0  0
    1.3350    0.0367   -1.3130 C   0  0  0  0  0  0  0  0  0  0  0  0
    2.3625   -0.2586   -0.7063 O   0  0  0  0  0  0  0  0  0  0  0  0
    0.3331   -1.4728   -3.0467 C   0  0  0  0  0  0  0  0  0  0  0  0
    2.6924    0.3404   -4.1502 H   0  0  0  0  0  0  0  0  0  0  0  0
    0.6550    0.6514   -3.2607 H   0  0  0  0  0  0  0  0  0  0  0  0
    0.8129   -2.3494   -2.5963 H   0  0  0  0  0  0  0  0  0  0  0  0
   -0.6690   -1.3857   -2.6142 H   0  0  0  0  0  0  0  0  0  0  0  0
    0.2259   -1.6670   -4.1194 H   0  0  0  0  0  0  0  0  0  0  0  0
    0.2019    0.5893   -0.7269 N   0  0  0  0  0  0  0  0  0  0  0  0
    0.1242    0.9059    0.6756 C   0  0  2  0  0  0  0  0  0  0  0  0
   -1.0846    1.8172    0.8639 C   0  0  0  0  0  0  0  0  0  0  0  0
   -1.2123    2.8895    0.2764 O   0  0  0  0  0  0  0  0  0  0  0  0
    1.3946    1.5978    1.1859 C   0  0  0  0  0  0  0  0  0  0  0  0
    2.6625    0.7199    1.1646 C   0  0  0  0  0  0  0  0  0  0  0  0
    3.8806    1.5629    1.5522 C   0  0  0  0  0  0  0  0  0  0  0  0
    2.8987    0.0704   -0.1996 C   0  0  0  0  0  0  0  0  0  0  0  0
   -0.5975    0.8179   -1.3140 H   0  0  0  0  0  0  0  0  0  0  0  0
   -0.0581   -0.0343    1.2058 H   0  0  0  0  0  0  0  0  0  0  0  0
    1.2220    1.9411    2.2156 H   0  0  0  0  0  0  0  0  0  0  0  0
    1.5768    2.5055    0.5953 H   0  0  0  0  0  0  0  0  0  0  0  0
    2.5611   -0.0768    1.9117 H   0  0  0  0  0  0  0  0  0  0  0  0
    4.0325    2.3790    0.8378 H   0  0  0  0  0  0  0  0  0  0  0  0
    4.7901    0.9529    1.5580 H   0  0  0  0  0  0  0  0  0  0  0  0
    3.7601    2.0023    2.5483 H   0  0  0  0  0  0  0  0  0  0  0  0
    3.0073    0.8256   -0.9854 H   0  0  0  0  0  0  0  0  0  0  0  0
    3.8100   -0.5374   -0.1874 H   0  0  0  0  0  0  0  0  0  0  0  0
    2.0730   -0.5926   -0.4741 H   0  0  0  0  0  0  0  0  0  0  0  0
   -2.0233    1.2657    1.7249 N   0  0  0  0  0  0  0  0  0  0  0  0
   -3.2732    1.9122    2.0541 C   0  0  2  0  0  0  0  0  0  0  0  0
   -3.8137    2.5633    0.7879 C   0  0  0  0  0  0  0  0  0  0  0  0
   -3.1017    2.8653   -0.1676 O   0  0  0  0  0  0  0  0  0  0  0  0
   -3.0897    2.9413    3.1587 C   0  0  0  0  0  0  0  0  0  0  0  0
   -1.8406    0.3588    2.1441 H   0  0  0  0  0  0  0  0  0  0  0  0
   -3.9600    1.1244    2.3822 H   0  0  0  0  0  0  0  0  0  0  0  0
   -2.4046    3.7387    2.8484 H   0  0  0  0  0  0  0  0  0  0  0  0
   -4.0424    3.4098    3.4268 H   0  0  0  0  0  0  0  0  0  0  0  0
   -2.6729    2.4767    4.0589 H   0  0  0  0  0  0  0  0  0  0  0  0
   -5.1777    2.8069    0.8677 N   0  0  0  0  0  0  0  0  0  0  0  0
   -5.9225    3.4290   -0.2020 C   0  0  0  0  0  0  0  0  0  0  0  0
   -5.6917    2.5060    1.6905 H   0  0  0  0  0  0  0  0  0  0  0  0
   -5.9599    4.5163   -0.0393 H   0  0  0  0  0  0  0  0  0  0  0  0
   -5.4292    3.2189   -1.1625 H   0  0  0  0  0  0  0  0  0  0  0  0
   -6.9456    3.0255   -0.2192 H   0  0  0  0  0  0  0  0  0  0  0  0
  1  3  1  0  0  0  0
  1  7  1  0  0  0  0
  1  2  2  0  0  0  0
 37 38  1  0  0  0  0
 38 46  1  0  0  0  0
 38 39  2  0  0  0  0
  8  9  1  0  0  0  0
  9 17  1  0  0  0  0
  9 10  2  0  0  0  0
 18 19  1  0  0  0  0
 19 36  1  0  0  0  0
 19 20  2  0  0  0  0
 37 40  1  0  0  0  0
  8 11  1  0  0  0  0
 22 23  1  0  0  0  0
 22 24  1  0  0  0  0
 46 47  1  0  0  0  0
 18 21  1  0  0  0  0
 21 22  1  0  0  0  0
 36 37  1  0  0  0  0
  7  8  1  0  0  0  0
 17 18  1  0  0  0  0
  3  4  1  0  0  0  0
  3  5  1  0  0  0  0
  3  6  1  0  0  0  0
 40 43  1  0  0  0  0
 40 44  1  0  0  0  0
 40 45  1  0  0  0  0
 11 14  1  0  0  0  0
 11 15  1  0  0  0  0
 11 16  1  0  0  0  0
 23 30  1  0  0  0  0
 23 31  1  0  0  0  0
 23 32  1  0  0  0  0
 24 33  1  0  0  0  0
 24 34  1  0  0  0  0
 24 35  1  0  0  0  0
 47 49  1  0  0  0  0
 47 50  1  0  0  0  0
 47 51  1  0  0  0  0
 21 27  1  0  0  0  0
 21 28  1  0  0  0  0
 37 42  1  0  0  0  0
  8 13  1  0  0  0  0
 18 26  1  0  0  0  0
 22 29  1  0  0  0  0
 46 48  1  0  0  0  0
  7 12  1  0  0  0  0
 36 41  1  0  0  0  0
 17 25  1  0  0  0  0
M  END
$$$$

  -OEChem-05262214473D

 51 50  0     1  0  0  0  0  0999 V2000
    3.4018   -1.2440   -3.0186 C   0  0  0  0  0  0  0  0  0  0  0  0
    3.2697   -2.0909   -2.1427 O   0  0  0  0  0  0  0  0  0  0  0  0
    4.6845   -1.1645   -3.7779 C   0  0  0  0  0  0  0  0  0  0  0  0
    5.4123   -0.4862   -3.3041 H   0  0  0  0  0  0  0  0  0  0  0  0
    5.1949   -2.1387   -3.8443 H   0  0  0  0  0  0  0  0  0  0  0  0
    4.5953   -0.8128   -4.8182 H   0  0  0  0  0  0  0  0  0  0  0  0
    2.4540   -0.3103   -3.4040 N   0  0  0  0  0  0  0  0  0  0  0  0
    1.1494   -0.2128   -2.8039 C   0  0  2  0  0  0  0  0  0  0  0  0
    1.3350    0.0367   -1.3130 C   0  0  0  0  0  0  0  0  0  0  0  0
    2.3625   -0.2586   -0.7063 O   0  0  0  0  0  0  0  0  0  0  0  0
    0.3331   -1.4728   -3.0467 C   0  0  0  0  0  0  0  0  0  0  0  0
    2.6924    0.3404   -4.1502 H   0  0  0  0  0  0  0  0  0  0  0  0
    0.6550    0.6514   -3.2607 H   0  0  0  0  0  0  0  0  0  0  0  0
    0.8129   -2.3494   -2.5963 H   0  0  0  0  0  0  0  0  0  0  0  0
   -0.6690   -1.3857   -2.6142 H   0  0  0  0  0  0  0  0  0  0  0  0
    0.2259   -1.6670   -4.1194 H   0  0  0  0  0  0  0  0  0  0  0  0
    0.2019    0.5893   -0.7269 N   0  0  0  0  0  0  0  0  0  0  0  0
    0.1242    0.9059    0.6756 C   0  0  2  0  0  0  0  0  0  0  0  0
   -1.0846    1.8172    0.8639 C   0  0  0  0  0  0  0  0  0  0  0  0
   -1.3511    2.7420    0.0991 O   0  0  0  0  0  0  0  0  0  0  0  0
    1.3946    1.5978    1.1859 C   0  0  0  0  0  0  0  0  0  0  0  0
    2.6625    0.7199    1.1646 C   0  0  0  0  0  0  0  0  0  0  0  0
    3.8806    1.5629    1.5522 C   0  0  0  0  0  0  0  0  0  0  0  0
    2.8987    0.0704   -0.1996 C   0  0  0  0  0  0  0  0  0  0  0  0
   -0.5975    0.8179   -1.3140 H   0  0  0  0  0  0  0  0  0  0  0  0
   -0.0581   -0.0343    1.2058 H   0  0  0  0  0  0  0  0  0  0  0  0
    1.2220    1.9411    2.2156 H   0  0  0  0  0  0  0  0  0  0  0  0
    1.5768    2.5055    0.5953 H   0  0  0  0  0  0  0  0  0  0  0  0
    2.5611   -0.0768    1.9117 H   0  0  0  0  0  0  0  0  0  0  0  0
    4.0325    2.3790    0.8378 H   0  0  0  0  0  0  0  0  0  0  0  0
    4.7901    0.9529    1.5580 H   0  0  0  0  0  0  0  0  0  0  0  0
    3.7601    2.0023    2.5483 H   0  0  0  0  0  0  0  0  0  0  0  0
    3.0073    0.8256   -0.9854 H   0  0  0  0  0  0  0  0  0  0  0  0
    3.8100   -0.5374   -0.1874 H   0  0  0  0  0  0  0  0  0  0  0  0
    2.0730   -0.5926   -0.4741 H   0  0  0  0  0  0  0  0  0  0  0  0
   -1.8546    1.4417    1.9560 N   0  0  0  0  0  0  0  0  0  0  0  0
   -3.0699    2.1226    2.3406 C   0  0  2  0  0  0  0  0  0  0  0  0
   -3.8265    2.4881    1.0703 C   0  0  0  0  0  0  0  0  0  0  0  0
   -3.2825    2.5963   -0.0267 O   0  0  0  0  0  0  0  0  0  0  0  0
   -2.7711    3.3614    3.1707 C   0  0  0  0  0  0  0  0  0  0  0  0
   -1.5672    0.6446    2.5160 H   0  0  0  0  0  0  0  0  0  0  0  0
   -3.6605    1.4093    2.9257 H   0  0  0  0  0  0  0  0  0  0  0  0
   -2.1800    4.0877    2.6011 H   0  0  0  0  0  0  0  0  0  0  0  0
   -3.6937    3.8602    3.4853 H   0  0  0  0  0  0  0  0  0  0  0  0
   -2.2011    3.1004    4.0689 H   0  0  0  0  0  0  0  0  0  0  0  0
   -5.1728    2.7213    1.3136 N   0  0  0  0  0  0  0  0  0  0  0  0
   -6.0999    3.0959    0.2714 C   0  0  0  0  0  0  0  0  0  0  0  0
   -5.5413    2.5897    2.2509 H   0  0  0  0  0  0  0  0  0  0  0  0
   -6.1645    4.1925    0.2142 H   0  0  0  0  0  0  0  0  0  0  0  0
   -5.7481    2.6988   -0.6923 H   0  0  0  0  0  0  0  0  0  0  0  0
   -7.0933    2.6815    0.4981 H   0  0  0  0  0  0  0  0  0  0  0  0
  1  3  1  0  0  0  0
  1  7  1  0  0  0  0
  1  2  2  0  0  0  0
 37 38  1  0  0  0  0
 38 46  1  0  0  0  0
 38 39  2  0  0  0  0
  8  9  1  0  0  0  0
  9 17  1  0  0  0  0
  9 10  2  0  0  0  0
 18 19  1  0  0  0  0
 19 36  1  0  0  0  0
 19 20  2  0  0  0  0
 37 40  1  0  0  0  0
  8 11  1  0  0  0  0
 22 23  1  0  0  0  0
 22 24  1  0  0  0  0
 46 47  1  0  0  0  0
 18 21  1  0  0  0  0
 21 22  1  0  0  0  0
 36 37  1  0  0  0  0
  7  8  1  0  0  0  0
 17 18  1  0  0  0  0
  3  4  1  0  0  0  0
  3  5  1  0  0  0  0
  3  6  1  0  0  0  0
 40 43  1  0  0  0  0
 40 44  1  0  0  0  0
 40 45  1  0  0  0  0
 11 14  1  0  0  0  0
 11 15  1  0  0  0  0
 11 16  1  0  0  0  0
 23 30  1  0  0  0  0
 23 31  1  0  0  0  0
 23 32  1  0  0  0  0
 24 33  1  0  0  0  0
 24 34  1  0  0  0  0
 24 35  1  0  0  0  0
 47 49  1  0  0  0  0
 47 50  1  0  0  0  0
 47 51  1  0  0  0  0
 21 27  1  0  0  0  0
 21 28  1  0  0  0  0
 37 42  1  0  0  0  0
  8 13  1  0  0  0  0
 18 26  1  0  0  0  0
 22 29  1  0  0  0  0
 46 48  1  0  0  0  0
  7 12  1  0  0  0  0
 36 41  1  0  0  0  0
 17 25  1  0  0  0  0
M  END
$$$$

  -OEChem-05262214473D

 51 50  0     1  0  0  0  0  0999 V2000
    3.4018   -1.2440   -3.0186 C   0  0  0  0  0  0  0  0  0  0  0  0
    3.2697   -2.0909   -2.1427 O   0  0  0  0  0  0  0  0  0  0  0  0
    4.6845   -1.1645   -3.7779 C   0  0  0  0  0  0  0  0  0  0  0  0
    5.4123   -0.4862   -3.3041 H   0  0  0  0  0  0  0  0  0  0  0  0
    5.1949   -2.1387   -3.8443 H   0  0  0  0  0  0  0  0  0  0  0  0
    4.5953   -0.8128   -4.8182 H   0  0  0  0  0  0  0  0  0  0  0  0
    2.4540   -0.3103   -3.4040 N   0  0  0  0  0  0  0  0  0  0  0  0
    1.1494   -0.2128   -2.8039 C   0  0  2  0  0  0  0  0  0  0  0  0
    1.3350    0.0367   -1.3130 C   0  0  0  0  0  0  0  0  0  0  0  0
    2.3625   -0.2586   -0.7063 O   0  0  0  0  0  0  0  0  0  0  0  0
    0.3331   -1.4728   -3.0467 C   0  0  0  0  0  0  0  0  0  0  0  0
    2.6924    0.3404   -4.1502 H   0  0  0  0  0  0  0  0  0  0  0  0
    0.6550    0.6514   -3.2607 H   0  0  0  0  0  0  0  0  0  0  0  0
    0.8129   -2.3494   -2.5963 H   0  0  0  0  0  0  0  0  0  0  0  0
   -0.6690   -1.3857   -2.6142 H   0  0  0  0  0  0  0  0  0  0  0  0
    0.2259   -1.6670   -4.1194 H   0  0  0  0  0  0  0  0  0  0  0  0
    0.2019    0.5893   -0.7269 N   0  0  0  0  0  0  0  0  0  0  0  0
    0.1242    0.9059    0.6756 C   0  0  2  0  0  0  0  0  0  0  0  0
   -1.0846    1.8172    0.8639 C   0  0  0  0  0  0  0  0  0  0  0  0
   -1.5079    2.5588   -0.0205 O   0  0  0  0  0  0  0  0  0  0  0  0
    1.3946    1.5978    1.1859 C   0  0  0  0  0  0  0  0  0  0  0  0
    2.6625    0.7199    1.1646 C   0  0  0  0  0  0  0  0  0  0  0  0
    3.8806    1.5629    1.5522 C   0  0  0  0  0  0  0  0  0  0  0  0
    2.8987    0.0704   -0.1996 C   0  0  0  0  0  0  0  0  0  0  0  0
   -0.5975    0.8179   -1.3140 H   0  0  0  0  0  0  0  0  0  0  0  0
   -0.0581   -0.0343    1.2058 H   0  0  0  0  0  0  0  0  0  0  0  0
    1.2220    1.9411    2.2156 H   0  0  0  0  0  0  0  0  0  0  0  0
    1.5768    2.5055    0.5953 H   0  0  0  0  0  0  0  0  0  0  0  0
    2.5611   -0.0768    1.9117 H   0  0  0  0  0  0  0  0  0  0  0  0
    4.0325    2.3790    0.8378 H   0  0  0  0  0  0  0  0  0  0  0  0
    4.7901    0.9529    1.5580 H   0  0  0  0  0  0  0  0  0  0  0  0
    3.7601    2.0023    2.5483 H   0  0  0  0  0  0  0  0  0  0  0  0
    3.0073    0.8256   -0.9854 H   0  0  0  0  0  0  0  0  0  0  0  0
    3.8100   -0.5374   -0.1874 H   0  0  0  0  0  0  0  0  0  0  0  0
    2.0730   -0.5926   -0.4741 H   0  0  0  0  0  0  0  0  0  0  0  0
   -1.6616    1.6645    2.1170 N   0  0  0  0  0  0  0  0  0  0  0  0
   -2.8360    2.3911    2.5427 C   0  0  2  0  0  0  0  0  0  0  0  0
   -3.7927    2.4729    1.3606 C   0  0  0  0  0  0  0  0  0  0  0  0
   -3.4268    2.3596    0.1925 O   0  0  0  0  0  0  0  0  0  0  0  0
   -2.4750    3.7797    3.0468 C   0  0  0  0  0  0  0  0  0  0  0  0
   -1.2548    1.0056    2.7743 H   0  0  0  0  0  0  0  0  0  0  0  0
   -3.2963    1.8055    3.3460 H   0  0  0  0  0  0  0  0  0  0  0  0
   -2.0125    4.3813    2.2558 H   0  0  0  0  0  0  0  0  0  0  0  0
   -3.3623    4.3184    3.3956 H   0  0  0  0  0  0  0  0  0  0  0  0
   -1.7638    3.7200    3.8778 H   0  0  0  0  0  0  0  0  0  0  0  0
   -5.0964    2.7302    1.7610 N   0  0  0  0  0  0  0  0  0  0  0  0
   -6.1874    2.8656    0.8243 C   0  0  0  0  0  0  0  0  0  0  0  0
   -5.3121    2.7902    2.7518 H   0  0  0  0  0  0  0  0  0  0  0  0
   -6.3126    3.9253    0.5572 H   0  0  0  0  0  0  0  0  0  0  0  0
   -5.9667    2.2827   -0.0821 H   0  0  0  0  0  0  0  0  0  0  0  0
   -7.1140    2.4916    1.2843 H   0  0  0  0  0  0  0  0  0  0  0  0
  1  3  1  0  0  0  0
  1  7  1  0  0  0  0
  1  2  2  0  0  0  0
 37 38  1  0  0  0  0
 38 46  1  0  0  0  0
 38 39  2  0  0  0  0
  8  9  1  0  0  0  0
  9 17  1  0  0  0  0
  9 10  2  0  0  0  0
 18 19  1  0  0  0  0
 19 36  1  0  0  0  0
 19 20  2  0  0  0  0
 37 40  1  0  0  0  0
  8 11  1  0  0  0  0
 22 23  1  0  0  0  0
 22 24  1  0  0  0  0
 46 47  1  0  0  0  0
 18 21  1  0  0  0  0
 21 22  1  0  0  0  0
 36 37  1  0  0  0  0
  7  8  1  0  0  0  0
 17 18  1  0  0  0  0
  3  4  1  0  0  0  0
  3  5  1  0  0  0  0
  3  6  1  0  0  0  0
 40 43  1  0  0  0  0
 40 44  1  0  0  0  0
 40 45  1  0  0  0  0
 11 14  1  0  0  0  0
 11 15  1  0  0  0  0
 11 16  1  0  0  0  0
 23 30  1  0  0  0  0
 23 31  1  0  0  0  0
 23 32  1  0  0  0  0
 24 33  1  0  0  0  0
 24 34  1  0  0  0  0
 24 35  1  0  0  0  0
 47 49  1  0  0  0  0
 47 50  1  0  0  0  0
 47 51  1  0  0  0  0
 21 27  1  0  0  0  0
 21 28  1  0  0  0  0
 37 42  1  0  0  0  0
  8 13  1  0  0  0  0
 18 26  1  0  0  0  0
 22 29  1  0  0  0  0
 46 48  1  0  0  0  0
  7 12  1  0  0  0  0
 36 41  1  0  0  0  0
 17 25  1  0  0  0  0
M  END
$$$$

  -OEChem-05262214473D

 51 50  0     1  0  0  0  0  0999 V2000
    3.4018   -1.2440   -3.0186 C   0  0  0  0  0  0  0  0  0  0  0  0
    3.2697   -2.0909   -2.1427 O   0  0  0  0  0  0  0  0  0  0  0  0
    4.6845   -1.1645   -3.7779 C   0  0  0  0  0  0  0  0  0  0  0  0
    5.4123   -0.4862   -3.3041 H   0  0  0  0  0  0  0  0  0  0  0  0
    5.1949   -2.1387   -3.8443 H   0  0  0  0  0  0  0  0  0  0  0  0
    4.5953   -0.8128   -4.8182 H   0  0  0  0  0  0  0  0  0  0  0  0
    2.4540   -0.3103   -3.4040 N   0  0  0  0  0  0  0  0  0  0  0  0
    1.1494   -0.2128   -2.8039 C   0  0  2  0  0  0  0  0  0  0  0  0
    1.3350    0.0367   -1.3130 C   0  0  0  0  0  0  0  0  0  0  0  0
    2.3625   -0.2586   -0.7063 O   0  0  0  0  0  0  0  0  0  0  0  0
    0.3331   -1.4728   -3.0467 C   0  0  0  0  0  0  0  0  0  0  0  0
    2.6924    0.3404   -4.1502 H   0  0  0  0  0  0  0  0  0  0  0  0
    0.6550    0.6514   -3.2607 H   0  0  0  0  0  0  0  0  0  0  0  0
    0.8129   -2.3494   -2.5963 H   0  0  0  0  0  0  0  0  0  0  0  0
   -0.6690   -1.3857   -2.6142 H   0  0  0  0  0  0  0  0  0  0  0  0
    0.2259   -1.6670   -4.1194 H   0  0  0  0  0  0  0  0  0  0  0  0
    0.2019    0.5893   -0.7269 N   0  0  0  0  0  0  0  0  0  0  0  0
    0.1242    0.9059    0.6756 C   0  0  2  0  0  0  0  0  0  0  0  0
   -1.0846    1.8172    0.8639 C   0  0  0  0  0  0  0  0  0  0  0  0
   -1.6720    2.3522   -0.0742 O   0  0  0  0  0  0  0  0  0  0  0  0
    1.3946    1.5978    1.1859 C   0  0  0  0  0  0  0  0  0  0  0  0
    2.6625    0.7199    1.1646 C   0  0  0  0  0  0  0  0  0  0  0  0
    3.8806    1.5629    1.5522 C   0  0  0  0  0  0  0  0  0  0  0  0
    2.8987    0.0704   -0.1996 C   0  0  0  0  0  0  0  0  0  0  0  0
   -0.5975    0.8179   -1.3140 H   0  0  0  0  0  0  0  0  0  0  0  0
   -0.0581   -0.0343    1.2058 H   0  0  0  0  0  0  0  0  0  0  0  0
    1.2220    1.9411    2.2156 H   0  0  0  0  0  0  0  0  0  0  0  0
    1.5768    2.5055    0.5953 H   0  0  0  0  0  0  0  0  0  0  0  0
    2.5611   -0.0768    1.9117 H   0  0  0  0  0  0  0  0  0  0  0  0
    4.0325    2.3790    0.8378 H   0  0  0  0  0  0  0  0  0  0  0  0
    4.7901    0.9529    1.5580 H   0  0  0  0  0  0  0  0  0  0  0  0
    3.7601    2.0023    2.5483 H   0  0  0  0  0  0  0  0  0  0  0  0
    3.0073    0.8256   -0.9854 H   0  0  0  0  0  0  0  0  0  0  0  0
    3.8100   -0.5374   -0.1874 H   0  0  0  0  0  0  0  0  0  0  0  0
    2.0730   -0.5926   -0.4741 H   0  0  0  0  0  0  0  0  0  0  0  0
   -1.4573    1.9188    2.1970 N   0  0  0  0  0  0  0  0  0  0  0  0
   -2.5874    2.6994    2.6468 C   0  0  2  0  0  0  0  0  0  0  0  0
   -3.7147    2.5188    1.6388 C   0  0  0  0  0  0  0  0  0  0  0  0
   -3.5248    2.1713    0.4751 O   0  0  0  0  0  0  0  0  0  0  0  0
   -2.2215    4.1679    2.7956 C   0  0  0  0  0  0  0  0  0  0  0  0
   -0.9246    1.4173    2.9015 H   0  0  0  0  0  0  0  0  0  0  0  0
   -2.8922    2.2861    3.6144 H   0  0  0  0  0  0  0  0  0  0  0  0
   -1.9134    4.5994    1.8362 H   0  0  0  0  0  0  0  0  0  0  0  0
   -3.0707    4.7531    3.1637 H   0  0  0  0  0  0  0  0  0  0  0  0
   -1.3907    4.2933    3.4984 H   0  0  0  0  0  0  0  0  0  0  0  0
   -4.9537    2.8330    2.1796 N   0  0  0  0  0  0  0  0  0  0  0  0
   -6.1791    2.7537    1.4192 C   0  0  0  0  0  0  0  0  0  0  0  0
   -5.0197    3.0940    3.1590 H   0  0  0  0  0  0  0  0  0  0  0  0
   -6.3940    3.7328    0.9662 H   0  0  0  0  0  0  0  0  0  0  0  0
   -6.0703    1.9989    0.6265 H   0  0  0  0  0  0  0  0  0  0  0  0
   -7.0063    2.4687    2.0859 H   0  0  0  0  0  0  0  0  0  0  0  0
  1  3  1  0  0  0  0
  1  7  1  0  0  0  0
  1  2  2  0  0  0  0
 37 38  1  0  0  0  0
 38 46  1  0  0  0  0
 38 39  2  0  0  0  0
  8  9  1  0  0  0  0
  9 17  1  0  0  0  0
  9 10  2  0  0  0  0
 18 19  1  0  0  0  0
 19 36  1  0  0  0  0
 19 20  2  0  0  0  0
 37 40  1  0  0  0  0
  8 11  1  0  0  0  0
 22 23  1  0  0  0  0
 22 24  1  0  0  0  0
 46 47  1  0  0  0  0
 18 21  1  0  0  0  0
 21 22  1  0  0  0  0
 36 37  1  0  0  0  0
  7  8  1  0  0  0  0
 17 18  1  0  0  0  0
  3  4  1  0  0  0  0
  3  5  1  0  0  0  0
  3  6  1  0  0  0  0
 40 43  1  0  0  0  0
 40 44  1  0  0  0  0
 40 45  1  0  0  0  0
 11 14  1  0  0  0  0
 11 15  1  0  0  0  0
 11 16  1  0  0  0  0
 23 30  1  0  0  0  0
 23 31  1  0  0  0  0
 23 32  1  0  0  0  0
 24 33  1  0  0  0  0
 24 34  1  0  0  0  0
 24 35  1  0  0  0  0
 47 49  1  0  0  0  0
 47 50  1  0  0  0  0
 47 51  1  0  0  0  0
 21 27  1  0  0  0  0
 21 28  1  0  0  0  0
 37 42  1  0  0  0  0
  8 13  1  0  0  0  0
 18 26  1  0  0  0  0
 22 29  1  0  0  0  0
 46 48  1  0  0  0  0
  7 12  1  0  0  0  0
 36 41  1  0  0  0  0
 17 25  1  0  0  0  0
M  END
$$$$
