
  -OEChem-05262216553D

 51 50  0     1  0  0  0  0  0999 V2000
    3.1400   -0.9153   -3.7287 C   0  0  0  0  0  0  0  0  0  0  0  0
    3.0241    0.3001   -3.7345 O   0  0  0  0  0  0  0  0  0  0  0  0
    4.4903   -1.5481   -4.0052 C   0  0  0  0  0  0  0  0  0  0  0  0
    5.2229   -0.7775   -4.2603 H   0  0  0  0  0  0  0  0  0  0  0  0
    4.8377   -2.0855   -3.1195 H   0  0  0  0  0  0  0  0  0  0  0  0
    4.4110   -2.2480   -4.8404 H   0  0  0  0  0  0  0  0  0  0  0  0
    2.0586   -1.7208   -3.4374 N   0  0  0  0  0  0  0  0  0  0  0  0
    0.7967   -1.2080   -2.8848 C   0  0  2  0  0  0  0  0  0  0  0  0
    0.7104   -1.4352   -1.3620 C   0  0  0  0  0  0  0  0  0  0  0  0
    1.2681   -2.3955   -0.8431 O   0  0  0  0  0  0  0  0  0  0  0  0
   -0.3504   -1.9229   -3.6019 C   0  0  0  0  0  0  0  0  0  0  0  0
    2.2801   -2.6918   -3.2287 H   0  0  0  0  0  0  0  0  0  0  0  0
    0.7026   -0.1325   -3.0692 H   0  0  0  0  0  0  0  0  0  0  0  0
   -0.3060   -3.0012   -3.4172 H   0  0  0  0  0  0  0  0  0  0  0  0
   -1.3156   -1.5489   -3.2466 H   0  0  0  0  0  0  0  0  0  0  0  0
   -0.2883   -1.7496   -4.6807 H   0  0  0  0  0  0  0  0  0  0  0  0
   -0.1880   -0.7358   -0.5911 N   0  0  0  0  0  0  0  0  0  0  0  0
   -0.0996   -0.4633    0.8560 C   0  0  2  0  0  0  0  0  0  0  0  0
   -1.3814    0.3493    1.2210 C   0  0  0  0  0  0  0  0  0  0  0  0
   -2.1788    0.6688    0.3420 O   0  0  0  0  0  0  0  0  0  0  0  0
    1.0540    0.4894    1.3525 C   0  0  0  0  0  0  0  0  0  0  0  0
    2.5806    0.1894    1.2853 C   0  0  0  0  0  0  0  0  0  0  0  0
    3.2946    1.4727    1.7563 C   0  0  0  0  0  0  0  0  0  0  0  0
    3.1848   -0.0859   -0.1014 C   0  0  0  0  0  0  0  0  0  0  0  0
   -0.7905   -0.0897   -1.1018 H   0  0  0  0  0  0  0  0  0  0  0  0
   -0.0766   -1.4075    1.4096 H   0  0  0  0  0  0  0  0  0  0  0  0
    0.8743    0.6860    2.4133 H   0  0  0  0  0  0  0  0  0  0  0  0
    0.9056    1.4347    0.8171 H   0  0  0  0  0  0  0  0  0  0  0  0
    2.8211   -0.6422    1.9564 H   0  0  0  0  0  0  0  0  0  0  0  0
    3.1278    2.2953    1.0526 H   0  0  0  0  0  0  0  0  0  0  0  0
    4.3731    1.3044    1.8443 H   0  0  0  0  0  0  0  0  0  0  0  0
    2.9266    1.7793    2.7405 H   0  0  0  0  0  0  0  0  0  0  0  0
    3.2269   -1.1564   -0.2953 H   0  0  0  0  0  0  0  0  0  0  0  0
    4.2187    0.2675   -0.1665 H   0  0  0  0  0  0  0  0  0  0  0  0
    2.6134    0.4215   -0.8835 H   0  0  0  0  0  0  0  0  0  0  0  0
   -1.6228    0.7725    2.5213 N   0  0  0  0  0  0  0  0  0  0  0  0
   -2.7511    1.5953    3.0077 C   0  0  2  0  0  0  0  0  0  0  0  0
   -4.1347    0.9083    2.9351 C   0  0  0  0  0  0  0  0  0  0  0  0
   -4.8094    0.8109    3.9513 O   0  0  0  0  0  0  0  0  0  0  0  0
   -2.7804    2.9673    2.3192 C   0  0  0  0  0  0  0  0  0  0  0  0
   -0.9598    0.4462    3.2189 H   0  0  0  0  0  0  0  0  0  0  0  0
   -2.5672    1.7824    4.0710 H   0  0  0  0  0  0  0  0  0  0  0  0
   -3.0621    2.8806    1.2659 H   0  0  0  0  0  0  0  0  0  0  0  0
   -3.5104    3.6166    2.8127 H   0  0  0  0  0  0  0  0  0  0  0  0
   -1.7973    3.4436    2.3792 H   0  0  0  0  0  0  0  0  0  0  0  0
   -4.6205    0.3947    1.7496 N   0  0  0  0  0  0  0  0  0  0  0  0
   -5.8910   -0.3052    1.6217 C   0  0  0  0  0  0  0  0  0  0  0  0
   -3.9929    0.4529    0.9433 H   0  0  0  0  0  0  0  0  0  0  0  0
   -6.0856   -0.5434    0.5716 H   0  0  0  0  0  0  0  0  0  0  0  0
   -5.8724   -1.2390    2.1932 H   0  0  0  0  0  0  0  0  0  0  0  0
   -6.7114    0.3191    1.9912 H   0  0  0  0  0  0  0  0  0  0  0  0
  1  2  2  0  0  0  0
  1  3  1  0  0  0  0
  1  7  1  0  0  0  0
  3  4  1  0  0  0  0
  3  5  1  0  0  0  0
  3  6  1  0  0  0  0
  7  8  1  0  0  0  0
  7 12  1  0  0  0  0
  8  9  1  0  0  0  0
  8 11  1  0  0  0  0
  8 13  1  0  0  0  0
  9 10  2  0  0  0  0
  9 17  1  0  0  0  0
 11 14  1  0  0  0  0
 11 15  1  0  0  0  0
 11 16  1  0  0  0  0
 17 18  1  0  0  0  0
 17 25  1  0  0  0  0
 18 19  1  0  0  0  0
 18 21  1  0  0  0  0
 18 26  1  0  0  0  0
 19 20  2  0  0  0  0
 19 36  1  0  0  0  0
 21 22  1  0  0  0  0
 21 27  1  0  0  0  0
 21 28  1  0  0  0  0
 22 23  1  0  0  0  0
 22 24  1  0  0  0  0
 22 29  1  0  0  0  0
 23 30  1  0  0  0  0
 23 31  1  0  0  0  0
 23 32  1  0  0  0  0
 24 33  1  0  0  0  0
 24 34  1  0  0  0  0
 24 35  1  0  0  0  0
 36 37  1  0  0  0  0
 36 41  1  0  0  0  0
 37 38  1  0  0  0  0
 37 40  1  0  0  0  0
 37 42  1  0  0  0  0
 38 39  2  0  0  0  0
 38 46  1  0  0  0  0
 40 43  1  0  0  0  0
 40 44  1  0  0  0  0
 40 45  1  0  0  0  0
 46 47  1  0  0  0  0
 46 48  1  0  0  0  0
 47 49  1  0  0  0  0
 47 50  1  0  0  0  0
 47 51  1  0  0  0  0
M  END
$$$$

  -OEChem-05262216553D

 51 50  0     1  0  0  0  0  0999 V2000
    3.1273   -0.9120   -3.7195 C   0  0  0  0  0  0  0  0  0  0  0  0
    3.0289    0.3049   -3.6948 O   0  0  0  0  0  0  0  0  0  0  0  0
    4.4691   -1.5579   -4.0083 C   0  0  0  0  0  0  0  0  0  0  0  0
    5.2124   -0.7926   -4.2483 H   0  0  0  0  0  0  0  0  0  0  0  0
    4.8082   -2.1178   -3.1331 H   0  0  0  0  0  0  0  0  0  0  0  0
    4.3805   -2.2397   -4.8574 H   0  0  0  0  0  0  0  0  0  0  0  0
    2.0328   -1.7080   -3.4514 N   0  0  0  0  0  0  0  0  0  0  0  0
    0.7782   -1.1883   -2.8886 C   0  0  2  0  0  0  0  0  0  0  0  0
    0.7095   -1.3957   -1.3620 C   0  0  0  0  0  0  0  0  0  0  0  0
    1.2536   -2.3622   -0.8412 O   0  0  0  0  0  0  0  0  0  0  0  0
   -0.3782   -1.9111   -3.5830 C   0  0  0  0  0  0  0  0  0  0  0  0
    2.2385   -2.6875   -3.2688 H   0  0  0  0  0  0  0  0  0  0  0  0
    0.6827   -0.1154   -3.0867 H   0  0  0  0  0  0  0  0  0  0  0  0
   -0.3296   -2.9877   -3.3903 H   0  0  0  0  0  0  0  0  0  0  0  0
   -1.3390   -1.5362   -3.2169 H   0  0  0  0  0  0  0  0  0  0  0  0
   -0.3327   -1.7466   -4.6641 H   0  0  0  0  0  0  0  0  0  0  0  0
   -0.1709   -0.6741   -0.5905 N   0  0  0  0  0  0  0  0  0  0  0  0
   -0.0873   -0.3944    0.8565 C   0  0  2  0  0  0  0  0  0  0  0  0
   -1.3624    0.4510    1.1921 C   0  0  0  0  0  0  0  0  0  0  0  0
   -2.2642    0.5435    0.3626 O   0  0  0  0  0  0  0  0  0  0  0  0
    1.1002    0.5142    1.3599 C   0  0  0  0  0  0  0  0  0  0  0  0
    2.6155    0.1571    1.3144 C   0  0  0  0  0  0  0  0  0  0  0  0
    3.3683    1.4176    1.7867 C   0  0  0  0  0  0  0  0  0  0  0  0
    3.2282   -0.1458   -0.0627 C   0  0  0  0  0  0  0  0  0  0  0  0
   -0.7982   -0.0557   -1.1047 H   0  0  0  0  0  0  0  0  0  0  0  0
   -0.1014   -1.3351    1.4164 H   0  0  0  0  0  0  0  0  0  0  0  0
    0.9240    0.7096    2.4208 H   0  0  0  0  0  0  0  0  0  0  0  0
    0.9919    1.4651    0.8252 H   0  0  0  0  0  0  0  0  0  0  0  0
    2.8174   -0.6792    1.9925 H   0  0  0  0  0  0  0  0  0  0  0  0
    3.2406    2.2409    1.0755 H   0  0  0  0  0  0  0  0  0  0  0  0
    4.4386    1.2118    1.8912 H   0  0  0  0  0  0  0  0  0  0  0  0
    2.9983    1.7442    2.7636 H   0  0  0  0  0  0  0  0  0  0  0  0
    3.2460   -1.2190   -0.2461 H   0  0  0  0  0  0  0  0  0  0  0  0
    4.2718    0.1800   -0.1206 H   0  0  0  0  0  0  0  0  0  0  0  0
    2.6779    0.3690   -0.8550 H   0  0  0  0  0  0  0  0  0  0  0  0
   -1.5019    1.1612    2.3783 N   0  0  0  0  0  0  0  0  0  0  0  0
   -2.6174    2.0472    2.7770 C   0  0  2  0  0  0  0  0  0  0  0  0
   -3.9642    1.3283    3.0238 C   0  0  0  0  0  0  0  0  0  0  0  0
   -4.5412    1.4881    4.0912 O   0  0  0  0  0  0  0  0  0  0  0  0
   -2.7889    3.2141    1.7934 C   0  0  0  0  0  0  0  0  0  0  0  0
   -0.7601    1.0275    3.0592 H   0  0  0  0  0  0  0  0  0  0  0  0
   -2.3364    2.4890    3.7386 H   0  0  0  0  0  0  0  0  0  0  0  0
   -3.1857    2.8723    0.8332 H   0  0  0  0  0  0  0  0  0  0  0  0
   -3.4870    3.9496    2.2053 H   0  0  0  0  0  0  0  0  0  0  0  0
   -1.8291    3.7090    1.6181 H   0  0  0  0  0  0  0  0  0  0  0  0
   -4.5247    0.5017    2.0708 N   0  0  0  0  0  0  0  0  0  0  0  0
   -5.7680   -0.2336    2.2553 C   0  0  0  0  0  0  0  0  0  0  0  0
   -3.9845    0.3740    1.2110 H   0  0  0  0  0  0  0  0  0  0  0  0
   -6.0285   -0.7698    1.3377 H   0  0  0  0  0  0  0  0  0  0  0  0
   -5.6650   -0.9622    3.0659 H   0  0  0  0  0  0  0  0  0  0  0  0
   -6.5862    0.4522    2.4986 H   0  0  0  0  0  0  0  0  0  0  0  0
  1  2  2  0  0  0  0
  1  3  1  0  0  0  0
  1  7  1  0  0  0  0
  3  4  1  0  0  0  0
  3  5  1  0  0  0  0
  3  6  1  0  0  0  0
  7  8  1  0  0  0  0
  7 12  1  0  0  0  0
  8  9  1  0  0  0  0
  8 11  1  0  0  0  0
  8 13  1  0  0  0  0
  9 10  2  0  0  0  0
  9 17  1  0  0  0  0
 11 14  1  0  0  0  0
 11 15  1  0  0  0  0
 11 16  1  0  0  0  0
 17 18  1  0  0  0  0
 17 25  1  0  0  0  0
 18 19  1  0  0  0  0
 18 21  1  0  0  0  0
 18 26  1  0  0  0  0
 19 20  2  0  0  0  0
 19 36  1  0  0  0  0
 21 22  1  0  0  0  0
 21 27  1  0  0  0  0
 21 28  1  0  0  0  0
 22 23  1  0  0  0  0
 22 24  1  0  0  0  0
 22 29  1  0  0  0  0
 23 30  1  0  0  0  0
 23 31  1  0  0  0  0
 23 32  1  0  0  0  0
 24 33  1  0  0  0  0
 24 34  1  0  0  0  0
 24 35  1  0  0  0  0
 36 37  1  0  0  0  0
 36 41  1  0  0  0  0
 37 38  1  0  0  0  0
 37 40  1  0  0  0  0
 37 42  1  0  0  0  0
 38 39  2  0  0  0  0
 38 46  1  0  0  0  0
 40 43  1  0  0  0  0
 40 44  1  0  0  0  0
 40 45  1  0  0  0  0
 46 47  1  0  0  0  0
 46 48  1  0  0  0  0
 47 49  1  0  0  0  0
 47 50  1  0  0  0  0
 47 51  1  0  0  0  0
M  END
$$$$

  -OEChem-05262216553D

 51 50  0     1  0  0  0  0  0999 V2000
    3.1241   -0.9162   -3.6966 C   0  0  0  0  0  0  0  0  0  0  0  0
    3.0183    0.3002   -3.6738 O   0  0  0  0  0  0  0  0  0  0  0  0
    4.4733   -1.5550   -3.9652 C   0  0  0  0  0  0  0  0  0  0  0  0
    5.2056   -0.7893   -4.2363 H   0  0  0  0  0  0  0  0  0  0  0  0
    4.8224   -2.0773   -3.0709 H   0  0  0  0  0  0  0  0  0  0  0  0
    4.3909   -2.2695   -4.7878 H   0  0  0  0  0  0  0  0  0  0  0  0
    2.0300   -1.7174   -3.4431 N   0  0  0  0  0  0  0  0  0  0  0  0
    0.7661   -1.2003   -2.8997 C   0  0  2  0  0  0  0  0  0  0  0  0
    0.6959   -1.3705   -1.3689 C   0  0  0  0  0  0  0  0  0  0  0  0
    1.2172   -2.3392   -0.8299 O   0  0  0  0  0  0  0  0  0  0  0  0
   -0.3784   -1.9552   -3.5793 C   0  0  0  0  0  0  0  0  0  0  0  0
    2.2385   -2.6944   -3.2506 H   0  0  0  0  0  0  0  0  0  0  0  0
    0.6577   -0.1344   -3.1260 H   0  0  0  0  0  0  0  0  0  0  0  0
   -0.3141   -3.0264   -3.3629 H   0  0  0  0  0  0  0  0  0  0  0  0
   -1.3452   -1.5869   -3.2221 H   0  0  0  0  0  0  0  0  0  0  0  0
   -0.3340   -1.8139   -4.6637 H   0  0  0  0  0  0  0  0  0  0  0  0
   -0.1706   -0.6149   -0.6144 N   0  0  0  0  0  0  0  0  0  0  0  0
   -0.0924   -0.3134    0.8292 C   0  0  2  0  0  0  0  0  0  0  0  0
   -1.3551    0.5690    1.1225 C   0  0  0  0  0  0  0  0  0  0  0  0
   -2.3463    0.4414    0.4093 O   0  0  0  0  0  0  0  0  0  0  0  0
    1.1219    0.5485    1.3490 C   0  0  0  0  0  0  0  0  0  0  0  0
    2.6214    0.1278    1.3417 C   0  0  0  0  0  0  0  0  0  0  0  0
    3.4169    1.3606    1.8179 C   0  0  0  0  0  0  0  0  0  0  0  0
    3.2495   -0.2149   -0.0194 C   0  0  0  0  0  0  0  0  0  0  0  0
   -0.8029   -0.0163   -1.1441 H   0  0  0  0  0  0  0  0  0  0  0  0
   -0.1503   -1.2452    1.4014 H   0  0  0  0  0  0  0  0  0  0  0  0
    0.9290    0.7512    2.4063 H   0  0  0  0  0  0  0  0  0  0  0  0
    1.0666    1.4988    0.8052 H   0  0  0  0  0  0  0  0  0  0  0  0
    2.7731   -0.7093    2.0316 H   0  0  0  0  0  0  0  0  0  0  0  0
    3.3394    2.1827    1.0982 H   0  0  0  0  0  0  0  0  0  0  0  0
    4.4752    1.1107    1.9468 H   0  0  0  0  0  0  0  0  0  0  0  0
    3.0409    1.7105    2.7844 H   0  0  0  0  0  0  0  0  0  0  0  0
    3.2407   -1.2914   -0.1837 H   0  0  0  0  0  0  0  0  0  0  0  0
    4.3024    0.0815   -0.0653 H   0  0  0  0  0  0  0  0  0  0  0  0
    2.7277    0.3005   -0.8301 H   0  0  0  0  0  0  0  0  0  0  0  0
   -1.4059    1.5415    2.1154 N   0  0  0  0  0  0  0  0  0  0  0  0
   -2.5236    2.4587    2.4313 C   0  0  2  0  0  0  0  0  0  0  0  0
   -3.7885    1.7737    2.9995 C   0  0  0  0  0  0  0  0  0  0  0  0
   -4.2613    2.1704    4.0562 O   0  0  0  0  0  0  0  0  0  0  0  0
   -2.8742    3.3533    1.2333 C   0  0  0  0  0  0  0  0  0  0  0  0
   -0.5819    1.6102    2.7047 H   0  0  0  0  0  0  0  0  0  0  0  0
   -2.1665    3.1245    3.2238 H   0  0  0  0  0  0  0  0  0  0  0  0
   -3.3525    2.7808    0.4333 H   0  0  0  0  0  0  0  0  0  0  0  0
   -3.5669    4.1411    1.5459 H   0  0  0  0  0  0  0  0  0  0  0  0
   -1.9715    3.8249    0.8337 H   0  0  0  0  0  0  0  0  0  0  0  0
   -4.3903    0.7178    2.3455 N   0  0  0  0  0  0  0  0  0  0  0  0
   -5.5647    0.0113    2.8370 C   0  0  0  0  0  0  0  0  0  0  0  0
   -3.9395    0.4077    1.4807 H   0  0  0  0  0  0  0  0  0  0  0  0
   -5.8812   -0.7431    2.1104 H   0  0  0  0  0  0  0  0  0  0  0  0
   -5.3411   -0.4904    3.7841 H   0  0  0  0  0  0  0  0  0  0  0  0
   -6.3943    0.7083    2.9934 H   0  0  0  0  0  0  0  0  0  0  0  0
  1  2  2  0  0  0  0
  1  3  1  0  0  0  0
  1  7  1  0  0  0  0
  3  4  1  0  0  0  0
  3  5  1  0  0  0  0
  3  6  1  0  0  0  0
  7  8  1  0  0  0  0
  7 12  1  0  0  0  0
  8  9  1  0  0  0  0
  8 11  1  0  0  0  0
  8 13  1  0  0  0  0
  9 10  2  0  0  0  0
  9 17  1  0  0  0  0
 11 14  1  0  0  0  0
 11 15  1  0  0  0  0
 11 16  1  0  0  0  0
 17 18  1  0  0  0  0
 17 25  1  0  0  0  0
 18 19  1  0  0  0  0
 18 21  1  0  0  0  0
 18 26  1  0  0  0  0
 19 20  2  0  0  0  0
 19 36  1  0  0  0  0
 21 22  1  0  0  0  0
 21 27  1  0  0  0  0
 21 28  1  0  0  0  0
 22 23  1  0  0  0  0
 22 24  1  0  0  0  0
 22 29  1  0  0  0  0
 23 30  1  0  0  0  0
 23 31  1  0  0  0  0
 23 32  1  0  0  0  0
 24 33  1  0  0  0  0
 24 34  1  0  0  0  0
 24 35  1  0  0  0  0
 36 37  1  0  0  0  0
 36 41  1  0  0  0  0
 37 38  1  0  0  0  0
 37 40  1  0  0  0  0
 37 42  1  0  0  0  0
 38 39  2  0  0  0  0
 38 46  1  0  0  0  0
 40 43  1  0  0  0  0
 40 44  1  0  0  0  0
 40 45  1  0  0  0  0
 46 47  1  0  0  0  0
 46 48  1  0  0  0  0
 47 49  1  0  0  0  0
 47 50  1  0  0  0  0
 47 51  1  0  0  0  0
M  END
$$$$

  -OEChem-05262216553D

 51 50  0     1  0  0  0  0  0999 V2000
    3.1410   -0.9226   -3.6737 C   0  0  0  0  0  0  0  0  0  0  0  0
    3.0213    0.2926   -3.6552 O   0  0  0  0  0  0  0  0  0  0  0  0
    4.5021   -1.5464   -3.9165 C   0  0  0  0  0  0  0  0  0  0  0  0
    5.2372   -0.7688   -4.1428 H   0  0  0  0  0  0  0  0  0  0  0  0
    4.8265   -2.0905   -3.0258 H   0  0  0  0  0  0  0  0  0  0  0  0
    4.4513   -2.2386   -4.7607 H   0  0  0  0  0  0  0  0  0  0  0  0
    2.0510   -1.7342   -3.4360 N   0  0  0  0  0  0  0  0  0  0  0  0
    0.7715   -1.2263   -2.9214 C   0  0  2  0  0  0  0  0  0  0  0  0
    0.6806   -1.3646   -1.3883 C   0  0  0  0  0  0  0  0  0  0  0  0
    1.1828   -2.3292   -0.8256 O   0  0  0  0  0  0  0  0  0  0  0  0
   -0.3505   -2.0130   -3.6025 C   0  0  0  0  0  0  0  0  0  0  0  0
    2.2641   -2.7092   -3.2388 H   0  0  0  0  0  0  0  0  0  0  0  0
    0.6502   -0.1674   -3.1731 H   0  0  0  0  0  0  0  0  0  0  0  0
   -0.2751   -3.0781   -3.3600 H   0  0  0  0  0  0  0  0  0  0  0  0
   -1.3280   -1.6500   -3.2702 H   0  0  0  0  0  0  0  0  0  0  0  0
   -0.2899   -1.8963   -4.6891 H   0  0  0  0  0  0  0  0  0  0  0  0
   -0.1841   -0.5805   -0.6602 N   0  0  0  0  0  0  0  0  0  0  0  0
   -0.1177   -0.2506    0.7784 C   0  0  2  0  0  0  0  0  0  0  0  0
   -1.3692    0.6542    1.0337 C   0  0  0  0  0  0  0  0  0  0  0  0
   -2.4284    0.3444    0.4993 O   0  0  0  0  0  0  0  0  0  0  0  0
    1.1073    0.5802    1.3193 C   0  0  0  0  0  0  0  0  0  0  0  0
    2.5920    0.1145    1.3604 C   0  0  0  0  0  0  0  0  0  0  0  0
    3.4112    1.3297    1.8408 C   0  0  0  0  0  0  0  0  0  0  0  0
    3.2452   -0.2690    0.0226 C   0  0  0  0  0  0  0  0  0  0  0  0
   -0.7970    0.0144   -1.2141 H   0  0  0  0  0  0  0  0  0  0  0  0
   -0.2107   -1.1713    1.3639 H   0  0  0  0  0  0  0  0  0  0  0  0
    0.8810    0.8109    2.3655 H   0  0  0  0  0  0  0  0  0  0  0  0
    1.1038    1.5180    0.7518 H   0  0  0  0  0  0  0  0  0  0  0  0
    2.6984   -0.7157    2.0672 H   0  0  0  0  0  0  0  0  0  0  0  0
    3.3819    2.1399    1.1042 H   0  0  0  0  0  0  0  0  0  0  0  0
    4.4564    1.0487    2.0067 H   0  0  0  0  0  0  0  0  0  0  0  0
    3.0175    1.7092    2.7888 H   0  0  0  0  0  0  0  0  0  0  0  0
    3.2194   -1.3487   -0.1184 H   0  0  0  0  0  0  0  0  0  0  0  0
    4.3042    0.0073   -0.0045 H   0  0  0  0  0  0  0  0  0  0  0  0
    2.7520    0.2380   -0.8108 H   0  0  0  0  0  0  0  0  0  0  0  0
   -1.3452    1.8313    1.7747 N   0  0  0  0  0  0  0  0  0  0  0  0
   -2.4611    2.7720    2.0177 C   0  0  2  0  0  0  0  0  0  0  0  0
   -3.6122    2.2070    2.8829 C   0  0  0  0  0  0  0  0  0  0  0  0
   -3.9574    2.8116    3.8894 O   0  0  0  0  0  0  0  0  0  0  0  0
   -2.9970    3.3594    0.7040 C   0  0  0  0  0  0  0  0  0  0  0  0
   -0.4531    2.0630    2.2017 H   0  0  0  0  0  0  0  0  0  0  0  0
   -2.0452    3.6096    2.5874 H   0  0  0  0  0  0  0  0  0  0  0  0
   -3.5390    2.6088    0.1219 H   0  0  0  0  0  0  0  0  0  0  0  0
   -3.6855    4.1831    0.9171 H   0  0  0  0  0  0  0  0  0  0  0  0
   -2.1739    3.7454    0.0955 H   0  0  0  0  0  0  0  0  0  0  0  0
   -4.2505    1.0288    2.5514 N   0  0  0  0  0  0  0  0  0  0  0  0
   -5.3090    0.4194    3.3450 C   0  0  0  0  0  0  0  0  0  0  0  0
   -3.8976    0.5430    1.7224 H   0  0  0  0  0  0  0  0  0  0  0  0
   -5.6849   -0.4787    2.8453 H   0  0  0  0  0  0  0  0  0  0  0  0
   -4.9322    0.1351    4.3332 H   0  0  0  0  0  0  0  0  0  0  0  0
   -6.1429    1.1176    3.4724 H   0  0  0  0  0  0  0  0  0  0  0  0
  1  2  2  0  0  0  0
  1  3  1  0  0  0  0
  1  7  1  0  0  0  0
  3  4  1  0  0  0  0
  3  5  1  0  0  0  0
  3  6  1  0  0  0  0
  7  8  1  0  0  0  0
  7 12  1  0  0  0  0
  8  9  1  0  0  0  0
  8 11  1  0  0  0  0
  8 13  1  0  0  0  0
  9 10  2  0  0  0  0
  9 17  1  0  0  0  0
 11 14  1  0  0  0  0
 11 15  1  0  0  0  0
 11 16  1  0  0  0  0
 17 18  1  0  0  0  0
 17 25  1  0  0  0  0
 18 19  1  0  0  0  0
 18 21  1  0  0  0  0
 18 26  1  0  0  0  0
 19 20  2  0  0  0  0
 19 36  1  0  0  0  0
 21 22  1  0  0  0  0
 21 27  1  0  0  0  0
 21 28  1  0  0  0  0
 22 23  1  0  0  0  0
 22 24  1  0  0  0  0
 22 29  1  0  0  0  0
 23 30  1  0  0  0  0
 23 31  1  0  0  0  0
 23 32  1  0  0  0  0
 24 33  1  0  0  0  0
 24 34  1  0  0  0  0
 24 35  1  0  0  0  0
 36 37  1  0  0  0  0
 36 41  1  0  0  0  0
 37 38  1  0  0  0  0
 37 40  1  0  0  0  0
 37 42  1  0  0  0  0
 38 39  2  0  0  0  0
 38 46  1  0  0  0  0
 40 43  1  0  0  0  0
 40 44  1  0  0  0  0
 40 45  1  0  0  0  0
 46 47  1  0  0  0  0
 46 48  1  0  0  0  0
 47 49  1  0  0  0  0
 47 50  1  0  0  0  0
 47 51  1  0  0  0  0
M  END
$$$$

  -OEChem-05262216553D

 51 50  0     1  0  0  0  0  0999 V2000
    3.1842   -0.9094   -3.6125 C   0  0  0  0  0  0  0  0  0  0  0  0
    3.0428    0.3035   -3.5851 O   0  0  0  0  0  0  0  0  0  0  0  0
    4.5645   -1.5094   -3.8015 C   0  0  0  0  0  0  0  0  0  0  0  0
    5.3077   -0.7164   -3.9223 H   0  0  0  0  0  0  0  0  0  0  0  0
    4.8321   -2.1125   -2.9303 H   0  0  0  0  0  0  0  0  0  0  0  0
    4.5771   -2.1420   -4.6923 H   0  0  0  0  0  0  0  0  0  0  0  0
    2.0985   -1.7408   -3.4304 N   0  0  0  0  0  0  0  0  0  0  0  0
    0.7912   -1.2584   -2.9644 C   0  0  2  0  0  0  0  0  0  0  0  0
    0.6543   -1.3756   -1.4326 C   0  0  0  0  0  0  0  0  0  0  0  0
    1.1237   -2.3427   -0.8469 O   0  0  0  0  0  0  0  0  0  0  0  0
   -0.2881   -2.0868   -3.6650 C   0  0  0  0  0  0  0  0  0  0  0  0
    2.3185   -2.7152   -3.2376 H   0  0  0  0  0  0  0  0  0  0  0  0
    0.6513   -0.2078   -3.2397 H   0  0  0  0  0  0  0  0  0  0  0  0
   -0.1906   -3.1454   -3.4020 H   0  0  0  0  0  0  0  0  0  0  0  0
   -1.2847   -1.7463   -3.3671 H   0  0  0  0  0  0  0  0  0  0  0  0
   -0.1983   -1.9863   -4.7511 H   0  0  0  0  0  0  0  0  0  0  0  0
   -0.2181   -0.5692   -0.7375 N   0  0  0  0  0  0  0  0  0  0  0  0
   -0.1714   -0.2232    0.6981 C   0  0  2  0  0  0  0  0  0  0  0  0
   -1.4094    0.6996    0.9295 C   0  0  0  0  0  0  0  0  0  0  0  0
   -2.5129    0.2702    0.6177 O   0  0  0  0  0  0  0  0  0  0  0  0
    1.0565    0.5848    1.2648 C   0  0  0  0  0  0  0  0  0  0  0  0
    2.5290    0.0880    1.3506 C   0  0  0  0  0  0  0  0  0  0  0  0
    3.3597    1.2903    1.8433 C   0  0  0  0  0  0  0  0  0  0  0  0
    3.2093   -0.3172    0.0329 C   0  0  0  0  0  0  0  0  0  0  0  0
   -0.7818    0.0468   -1.3180 H   0  0  0  0  0  0  0  0  0  0  0  0
   -0.2933   -1.1375    1.2888 H   0  0  0  0  0  0  0  0  0  0  0  0
    0.7966    0.8484    2.2963 H   0  0  0  0  0  0  0  0  0  0  0  0
    1.1013    1.5075    0.6752 H   0  0  0  0  0  0  0  0  0  0  0  0
    2.5992   -0.7385    2.0660 H   0  0  0  0  0  0  0  0  0  0  0  0
    3.3657    2.0960    1.1011 H   0  0  0  0  0  0  0  0  0  0  0  0
    4.3943    0.9895    2.0390 H   0  0  0  0  0  0  0  0  0  0  0  0
    2.9483    1.6836    2.7783 H   0  0  0  0  0  0  0  0  0  0  0  0
    3.1635   -1.3965   -0.1051 H   0  0  0  0  0  0  0  0  0  0  0  0
    4.2744   -0.0646    0.0327 H   0  0  0  0  0  0  0  0  0  0  0  0
    2.7493    0.1970   -0.8146 H   0  0  0  0  0  0  0  0  0  0  0  0
   -1.3294    2.0090    1.3914 N   0  0  0  0  0  0  0  0  0  0  0  0
   -2.4338    2.9775    1.5668 C   0  0  2  0  0  0  0  0  0  0  0  0
   -3.4477    2.6157    2.6770 C   0  0  0  0  0  0  0  0  0  0  0  0
   -3.7079    3.4416    3.5417 O   0  0  0  0  0  0  0  0  0  0  0  0
   -3.1512    3.2584    0.2384 C   0  0  0  0  0  0  0  0  0  0  0  0
   -0.3991    2.3258    1.6489 H   0  0  0  0  0  0  0  0  0  0  0  0
   -1.9750    3.9214    1.8793 H   0  0  0  0  0  0  0  0  0  0  0  0
   -3.7369    2.3945   -0.0893 H   0  0  0  0  0  0  0  0  0  0  0  0
   -3.8344    4.1059    0.3549 H   0  0  0  0  0  0  0  0  0  0  0  0
   -2.4249    3.5047   -0.5419 H   0  0  0  0  0  0  0  0  0  0  0  0
   -4.0611    1.3798    2.7173 N   0  0  0  0  0  0  0  0  0  0  0  0
   -5.0232    0.9769    3.7333 C   0  0  0  0  0  0  0  0  0  0  0  0
   -3.8034    0.7229    1.9757 H   0  0  0  0  0  0  0  0  0  0  0  0
   -5.3468   -0.0536    3.5580 H   0  0  0  0  0  0  0  0  0  0  0  0
   -4.5745    1.0341    4.7304 H   0  0  0  0  0  0  0  0  0  0  0  0
   -5.9039    1.6268    3.7048 H   0  0  0  0  0  0  0  0  0  0  0  0
  1  2  2  0  0  0  0
  1  3  1  0  0  0  0
  1  7  1  0  0  0  0
  3  4  1  0  0  0  0
  3  5  1  0  0  0  0
  3  6  1  0  0  0  0
  7  8  1  0  0  0  0
  7 12  1  0  0  0  0
  8  9  1  0  0  0  0
  8 11  1  0  0  0  0
  8 13  1  0  0  0  0
  9 10  2  0  0  0  0
  9 17  1  0  0  0  0
 11 14  1  0  0  0  0
 11 15  1  0  0  0  0
 11 16  1  0  0  0  0
 17 18  1  0  0  0  0
 17 25  1  0  0  0  0
 18 19  1  0  0  0  0
 18 21  1  0  0  0  0
 18 26  1  0  0  0  0
 19 20  2  0  0  0  0
 19 36  1  0  0  0  0
 21 22  1  0  0  0  0
 21 27  1  0  0  0  0
 21 28  1  0  0  0  0
 22 23  1  0  0  0  0
 22 24  1  0  0  0  0
 22 29  1  0  0  0  0
 23 30  1  0  0  0  0
 23 31  1  0  0  0  0
 23 32  1  0  0  0  0
 24 33  1  0  0  0  0
 24 34  1  0  0  0  0
 24 35  1  0  0  0  0
 36 37  1  0  0  0  0
 36 41  1  0  0  0  0
 37 38  1  0  0  0  0
 37 40  1  0  0  0  0
 37 42  1  0  0  0  0
 38 39  2  0  0  0  0
 38 46  1  0  0  0  0
 40 43  1  0  0  0  0
 40 44  1  0  0  0  0
 40 45  1  0  0  0  0
 46 47  1  0  0  0  0
 46 48  1  0  0  0  0
 47 49  1  0  0  0  0
 47 50  1  0  0  0  0
 47 51  1  0  0  0  0
M  END
$$$$

  -OEChem-05262216553D

 51 50  0     1  0  0  0  0  0999 V2000
    3.2772   -0.9881   -3.5674 C   0  0  0  0  0  0  0  0  0  0  0  0
    3.1539    0.2270   -3.5848 O   0  0  0  0  0  0  0  0  0  0  0  0
    4.6536   -1.6142   -3.6881 C   0  0  0  0  0  0  0  0  0  0  0  0
    5.4063   -0.8406   -3.8636 H   0  0  0  0  0  0  0  0  0  0  0  0
    4.9025   -2.1457   -2.7663 H   0  0  0  0  0  0  0  0  0  0  0  0
    4.6720   -2.3181   -4.5237 H   0  0  0  0  0  0  0  0  0  0  0  0
    2.1728   -1.7968   -3.3952 N   0  0  0  0  0  0  0  0  0  0  0  0
    0.8569   -1.2818   -2.9915 C   0  0  2  0  0  0  0  0  0  0  0  0
    0.6523   -1.3825   -1.4664 C   0  0  0  0  0  0  0  0  0  0  0  0
    1.0894   -2.3459   -0.8509 O   0  0  0  0  0  0  0  0  0  0  0  0
   -0.2084   -2.0912   -3.7343 C   0  0  0  0  0  0  0  0  0  0  0  0
    2.3712   -2.7675   -3.1630 H   0  0  0  0  0  0  0  0  0  0  0  0
    0.7516   -0.2307   -3.2793 H   0  0  0  0  0  0  0  0  0  0  0  0
   -0.1451   -3.1497   -3.4620 H   0  0  0  0  0  0  0  0  0  0  0  0
   -1.2093   -1.7275   -3.4825 H   0  0  0  0  0  0  0  0  0  0  0  0
   -0.0692   -1.9998   -4.8161 H   0  0  0  0  0  0  0  0  0  0  0  0
   -0.2433   -0.5614   -0.8196 N   0  0  0  0  0  0  0  0  0  0  0  0
   -0.2333   -0.1791    0.6075 C   0  0  2  0  0  0  0  0  0  0  0  0
   -1.4733    0.7426    0.7964 C   0  0  0  0  0  0  0  0  0  0  0  0
   -2.5828    0.2297    0.7473 O   0  0  0  0  0  0  0  0  0  0  0  0
    0.9762    0.6371    1.2004 C   0  0  0  0  0  0  0  0  0  0  0  0
    2.4412    0.1336    1.3487 C   0  0  0  0  0  0  0  0  0  0  0  0
    3.2645    1.3397    1.8439 C   0  0  0  0  0  0  0  0  0  0  0  0
    3.1620   -0.3131    0.0674 C   0  0  0  0  0  0  0  0  0  0  0  0
   -0.7506    0.0672   -1.4363 H   0  0  0  0  0  0  0  0  0  0  0  0
   -0.3700   -1.0823    1.2124 H   0  0  0  0  0  0  0  0  0  0  0  0
    0.6729    0.9458    2.2078 H   0  0  0  0  0  0  0  0  0  0  0  0
    1.0587    1.5362    0.5808 H   0  0  0  0  0  0  0  0  0  0  0  0
    2.4787   -0.6750    2.0864 H   0  0  0  0  0  0  0  0  0  0  0  0
    3.3037    2.1288    1.0854 H   0  0  0  0  0  0  0  0  0  0  0  0
    4.2892    1.0358    2.0818 H   0  0  0  0  0  0  0  0  0  0  0  0
    2.8236    1.7566    2.7548 H   0  0  0  0  0  0  0  0  0  0  0  0
    3.1032   -1.3948   -0.0453 H   0  0  0  0  0  0  0  0  0  0  0  0
    4.2303   -0.0763    0.1019 H   0  0  0  0  0  0  0  0  0  0  0  0
    2.7416    0.1869   -0.8090 H   0  0  0  0  0  0  0  0  0  0  0  0
   -1.3917    2.1231    0.9362 N   0  0  0  0  0  0  0  0  0  0  0  0
   -2.5090    3.0817    1.0756 C   0  0  2  0  0  0  0  0  0  0  0  0
   -3.3245    2.9362    2.3816 C   0  0  0  0  0  0  0  0  0  0  0  0
   -3.4084    3.8894    3.1445 O   0  0  0  0  0  0  0  0  0  0  0  0
   -3.4257    3.0549   -0.1558 C   0  0  0  0  0  0  0  0  0  0  0  0
   -0.4514    2.5025    1.0002 H   0  0  0  0  0  0  0  0  0  0  0  0
   -2.0639    4.0816    1.1121 H   0  0  0  0  0  0  0  0  0  0  0  0
   -3.9985    2.1246   -0.2079 H   0  0  0  0  0  0  0  0  0  0  0  0
   -4.1351    3.8873   -0.1113 H   0  0  0  0  0  0  0  0  0  0  0  0
   -2.8348    3.1526   -1.0714 H   0  0  0  0  0  0  0  0  0  0  0  0
   -3.9408    1.7466    2.7144 N   0  0  0  0  0  0  0  0  0  0  0  0
   -4.6492    1.5168    3.9658 C   0  0  0  0  0  0  0  0  0  0  0  0
   -3.7659    0.9590    2.0839 H   0  0  0  0  0  0  0  0  0  0  0  0
   -5.1083    0.5235    3.9610 H   0  0  0  0  0  0  0  0  0  0  0  0
   -3.9581    1.5768    4.8129 H   0  0  0  0  0  0  0  0  0  0  0  0
   -5.4407    2.2614    4.1021 H   0  0  0  0  0  0  0  0  0  0  0  0
  1  2  2  0  0  0  0
  1  3  1  0  0  0  0
  1  7  1  0  0  0  0
  3  4  1  0  0  0  0
  3  5  1  0  0  0  0
  3  6  1  0  0  0  0
  7  8  1  0  0  0  0
  7 12  1  0  0  0  0
  8  9  1  0  0  0  0
  8 11  1  0  0  0  0
  8 13  1  0  0  0  0
  9 10  2  0  0  0  0
  9 17  1  0  0  0  0
 11 14  1  0  0  0  0
 11 15  1  0  0  0  0
 11 16  1  0  0  0  0
 17 18  1  0  0  0  0
 17 25  1  0  0  0  0
 18 19  1  0  0  0  0
 18 21  1  0  0  0  0
 18 26  1  0  0  0  0
 19 20  2  0  0  0  0
 19 36  1  0  0  0  0
 21 22  1  0  0  0  0
 21 27  1  0  0  0  0
 21 28  1  0  0  0  0
 22 23  1  0  0  0  0
 22 24  1  0  0  0  0
 22 29  1  0  0  0  0
 23 30  1  0  0  0  0
 23 31  1  0  0  0  0
 23 32  1  0  0  0  0
 24 33  1  0  0  0  0
 24 34  1  0  0  0  0
 24 35  1  0  0  0  0
 36 37  1  0  0  0  0
 36 41  1  0  0  0  0
 37 38  1  0  0  0  0
 37 40  1  0  0  0  0
 37 42  1  0  0  0  0
 38 39  2  0  0  0  0
 38 46  1  0  0  0  0
 40 43  1  0  0  0  0
 40 44  1  0  0  0  0
 40 45  1  0  0  0  0
 46 47  1  0  0  0  0
 46 48  1  0  0  0  0
 47 49  1  0  0  0  0
 47 50  1  0  0  0  0
 47 51  1  0  0  0  0
M  END
$$$$

  -OEChem-05262216553D

 51 50  0     1  0  0  0  0  0999 V2000
    3.2864   -0.9999   -3.5344 C   0  0  0  0  0  0  0  0  0  0  0  0
    3.1047    0.2078   -3.5614 O   0  0  0  0  0  0  0  0  0  0  0  0
    4.6930   -1.5609   -3.6176 C   0  0  0  0  0  0  0  0  0  0  0  0
    4.9297   -2.1100   -2.7028 H   0  0  0  0  0  0  0  0  0  0  0  0
    4.7748   -2.2371   -4.4720 H   0  0  0  0  0  0  0  0  0  0  0  0
    5.4166   -0.7502   -3.7393 H   0  0  0  0  0  0  0  0  0  0  0  0
    2.2182   -1.8591   -3.3819 N   0  0  0  0  0  0  0  0  0  0  0  0
    0.8733   -1.3990   -3.0116 C   0  0  2  0  0  0  0  0  0  0  0  0
    0.6625   -1.4341   -1.4842 C   0  0  0  0  0  0  0  0  0  0  0  0
    1.1110   -2.3633   -0.8261 O   0  0  0  0  0  0  0  0  0  0  0  0
   -0.1409   -2.3035   -3.7157 C   0  0  0  0  0  0  0  0  0  0  0  0
    2.4566   -2.8165   -3.1334 H   0  0  0  0  0  0  0  0  0  0  0  0
    0.7140   -0.3720   -3.3564 H   0  0  0  0  0  0  0  0  0  0  0  0
   -0.0235   -3.3414   -3.3874 H   0  0  0  0  0  0  0  0  0  0  0  0
   -1.1619   -1.9823   -3.4883 H   0  0  0  0  0  0  0  0  0  0  0  0
    0.0019   -2.2614   -4.7998 H   0  0  0  0  0  0  0  0  0  0  0  0
   -0.2570   -0.6057   -0.8803 N   0  0  0  0  0  0  0  0  0  0  0  0
   -0.2755   -0.1891    0.5375 C   0  0  2  0  0  0  0  0  0  0  0  0
   -1.5236    0.7221    0.6869 C   0  0  0  0  0  0  0  0  0  0  0  0
   -2.5995    0.1956    0.9323 O   0  0  0  0  0  0  0  0  0  0  0  0
    0.9007    0.6619    1.1467 C   0  0  0  0  0  0  0  0  0  0  0  0
    2.3685    0.1845    1.3387 C   0  0  0  0  0  0  0  0  0  0  0  0
    3.1616    1.4105    1.8340 C   0  0  0  0  0  0  0  0  0  0  0  0
    3.1216   -0.2629    0.0762 C   0  0  0  0  0  0  0  0  0  0  0  0
   -0.7448    0.0090   -1.5259 H   0  0  0  0  0  0  0  0  0  0  0  0
   -0.4109   -1.0813    1.1591 H   0  0  0  0  0  0  0  0  0  0  0  0
    0.5631    0.9841    2.1386 H   0  0  0  0  0  0  0  0  0  0  0  0
    0.9875    1.5536    0.5185 H   0  0  0  0  0  0  0  0  0  0  0  0
    2.4020   -0.6144    2.0875 H   0  0  0  0  0  0  0  0  0  0  0  0
    3.2055    2.1887    1.0646 H   0  0  0  0  0  0  0  0  0  0  0  0
    4.1852    1.1258    2.0988 H   0  0  0  0  0  0  0  0  0  0  0  0
    2.6940    1.8343    2.7284 H   0  0  0  0  0  0  0  0  0  0  0  0
    3.0980   -1.3477   -0.0173 H   0  0  0  0  0  0  0  0  0  0  0  0
    4.1811    0.0095    0.1190 H   0  0  0  0  0  0  0  0  0  0  0  0
    2.6966    0.2071   -0.8141 H   0  0  0  0  0  0  0  0  0  0  0  0
   -1.4796    2.0970    0.4926 N   0  0  0  0  0  0  0  0  0  0  0  0
   -2.6057    3.0519    0.5695 C   0  0  2  0  0  0  0  0  0  0  0  0
   -3.2295    3.2133    1.9756 C   0  0  0  0  0  0  0  0  0  0  0  0
   -3.3247    4.3322    2.4623 O   0  0  0  0  0  0  0  0  0  0  0  0
   -3.6840    2.7289   -0.4742 C   0  0  0  0  0  0  0  0  0  0  0  0
   -0.5571    2.4880    0.3242 H   0  0  0  0  0  0  0  0  0  0  0  0
   -2.2010    4.0355    0.3093 H   0  0  0  0  0  0  0  0  0  0  0  0
   -4.2153    1.8053   -0.2271 H   0  0  0  0  0  0  0  0  0  0  0  0
   -4.4172    3.5406   -0.5159 H   0  0  0  0  0  0  0  0  0  0  0  0
   -3.2336    2.6184   -1.4649 H   0  0  0  0  0  0  0  0  0  0  0  0
   -3.6771    2.1237    2.6953 N   0  0  0  0  0  0  0  0  0  0  0  0
   -4.2705    2.2079    4.0223 C   0  0  0  0  0  0  0  0  0  0  0  0
   -3.5594    1.2084    2.2515 H   0  0  0  0  0  0  0  0  0  0  0  0
   -4.5016    1.2057    4.3957 H   0  0  0  0  0  0  0  0  0  0  0  0
   -3.5778    2.6868    4.7221 H   0  0  0  0  0  0  0  0  0  0  0  0
   -5.1981    2.7887    3.9904 H   0  0  0  0  0  0  0  0  0  0  0  0
  1  2  2  0  0  0  0
  1  3  1  0  0  0  0
  1  7  1  0  0  0  0
  3  4  1  0  0  0  0
  3  5  1  0  0  0  0
  3  6  1  0  0  0  0
  7  8  1  0  0  0  0
  7 12  1  0  0  0  0
  8  9  1  0  0  0  0
  8 11  1  0  0  0  0
  8 13  1  0  0  0  0
  9 10  2  0  0  0  0
  9 17  1  0  0  0  0
 11 14  1  0  0  0  0
 11 15  1  0  0  0  0
 11 16  1  0  0  0  0
 17 18  1  0  0  0  0
 17 25  1  0  0  0  0
 18 19  1  0  0  0  0
 18 21  1  0  0  0  0
 18 26  1  0  0  0  0
 19 20  2  0  0  0  0
 19 36  1  0  0  0  0
 21 22  1  0  0  0  0
 21 27  1  0  0  0  0
 21 28  1  0  0  0  0
 22 23  1  0  0  0  0
 22 24  1  0  0  0  0
 22 29  1  0  0  0  0
 23 30  1  0  0  0  0
 23 31  1  0  0  0  0
 23 32  1  0  0  0  0
 24 33  1  0  0  0  0
 24 34  1  0  0  0  0
 24 35  1  0  0  0  0
 36 37  1  0  0  0  0
 36 41  1  0  0  0  0
 37 38  1  0  0  0  0
 37 40  1  0  0  0  0
 37 42  1  0  0  0  0
 38 39  2  0  0  0  0
 38 46  1  0  0  0  0
 40 43  1  0  0  0  0
 40 44  1  0  0  0  0
 40 45  1  0  0  0  0
 46 47  1  0  0  0  0
 46 48  1  0  0  0  0
 47 49  1  0  0  0  0
 47 50  1  0  0  0  0
 47 51  1  0  0  0  0
M  END
$$$$

  -OEChem-05262216553D

 51 50  0     1  0  0  0  0  0999 V2000
    3.3571   -0.9541   -3.4978 C   0  0  0  0  0  0  0  0  0  0  0  0
    3.1453    0.2476   -3.5561 O   0  0  0  0  0  0  0  0  0  0  0  0
    4.7808   -1.4773   -3.4903 C   0  0  0  0  0  0  0  0  0  0  0  0
    5.4837   -0.6622   -3.6836 H   0  0  0  0  0  0  0  0  0  0  0  0
    5.0092   -1.9177   -2.5164 H   0  0  0  0  0  0  0  0  0  0  0  0
    4.9040   -2.2385   -4.2645 H   0  0  0  0  0  0  0  0  0  0  0  0
    2.3051   -1.8382   -3.3795 N   0  0  0  0  0  0  0  0  0  0  0  0
    0.9351   -1.4089   -3.0694 C   0  0  2  0  0  0  0  0  0  0  0  0
    0.6569   -1.4684   -1.5540 C   0  0  0  0  0  0  0  0  0  0  0  0
    1.0914   -2.3986   -0.8882 O   0  0  0  0  0  0  0  0  0  0  0  0
   -0.0253   -2.3247   -3.8311 C   0  0  0  0  0  0  0  0  0  0  0  0
    2.5569   -2.7858   -3.1069 H   0  0  0  0  0  0  0  0  0  0  0  0
    0.7690   -0.3811   -3.4083 H   0  0  0  0  0  0  0  0  0  0  0  0
    0.1046   -3.3654   -3.5162 H   0  0  0  0  0  0  0  0  0  0  0  0
   -1.0632   -2.0331   -3.6421 H   0  0  0  0  0  0  0  0  0  0  0  0
    0.1624   -2.2587   -4.9074 H   0  0  0  0  0  0  0  0  0  0  0  0
   -0.2913   -0.6527   -0.9776 N   0  0  0  0  0  0  0  0  0  0  0  0
   -0.3605   -0.2581    0.4450 C   0  0  2  0  0  0  0  0  0  0  0  0
   -1.6139    0.6433    0.5691 C   0  0  0  0  0  0  0  0  0  0  0  0
   -2.6280    0.1785    1.0690 O   0  0  0  0  0  0  0  0  0  0  0  0
    0.7725    0.6124    1.1035 C   0  0  0  0  0  0  0  0  0  0  0  0
    2.2440    0.1636    1.3302 C   0  0  0  0  0  0  0  0  0  0  0  0
    2.9958    1.3970    1.8694 C   0  0  0  0  0  0  0  0  0  0  0  0
    3.0397   -0.2511    0.0823 C   0  0  0  0  0  0  0  0  0  0  0  0
   -0.7486   -0.0258   -1.6334 H   0  0  0  0  0  0  0  0  0  0  0  0
   -0.5021   -1.1599    1.0513 H   0  0  0  0  0  0  0  0  0  0  0  0
    0.3971    0.9059    2.0910 H   0  0  0  0  0  0  0  0  0  0  0  0
    0.8526    1.5218    0.5005 H   0  0  0  0  0  0  0  0  0  0  0  0
    2.2726   -0.6463    2.0670 H   0  0  0  0  0  0  0  0  0  0  0  0
    3.0484    2.1881    1.1139 H   0  0  0  0  0  0  0  0  0  0  0  0
    4.0157    1.1288    2.1632 H   0  0  0  0  0  0  0  0  0  0  0  0
    2.4906    1.7969    2.7543 H   0  0  0  0  0  0  0  0  0  0  0  0
    3.0354   -1.3345   -0.0308 H   0  0  0  0  0  0  0  0  0  0  0  0
    4.0931    0.0362    0.1614 H   0  0  0  0  0  0  0  0  0  0  0  0
    2.6330    0.2273   -0.8122 H   0  0  0  0  0  0  0  0  0  0  0  0
   -1.6208    1.9519    0.1031 N   0  0  0  0  0  0  0  0  0  0  0  0
   -2.7449    2.9115    0.1480 C   0  0  2  0  0  0  0  0  0  0  0  0
   -3.1624    3.3558    1.5693 C   0  0  0  0  0  0  0  0  0  0  0  0
   -3.2033    4.5495    1.8351 O   0  0  0  0  0  0  0  0  0  0  0  0
   -3.9546    2.3916   -0.6419 C   0  0  0  0  0  0  0  0  0  0  0  0
   -0.7267    2.3053   -0.2266 H   0  0  0  0  0  0  0  0  0  0  0  0
   -2.4050    3.8195   -0.3609 H   0  0  0  0  0  0  0  0  0  0  0  0
   -4.4226    1.5394   -0.1407 H   0  0  0  0  0  0  0  0  0  0  0  0
   -4.7055    3.1822   -0.7378 H   0  0  0  0  0  0  0  0  0  0  0  0
   -3.6493    2.0811   -1.6455 H   0  0  0  0  0  0  0  0  0  0  0  0
   -3.4819    2.4356    2.5473 N   0  0  0  0  0  0  0  0  0  0  0  0
   -3.8879    2.7878    3.9007 C   0  0  0  0  0  0  0  0  0  0  0  0
   -3.4143    1.4492    2.2809 H   0  0  0  0  0  0  0  0  0  0  0  0
   -4.0633    1.8821    4.4893 H   0  0  0  0  0  0  0  0  0  0  0  0
   -3.1076    3.3760    4.3947 H   0  0  0  0  0  0  0  0  0  0  0  0
   -4.8130    3.3731    3.8824 H   0  0  0  0  0  0  0  0  0  0  0  0
  1  2  2  0  0  0  0
  1  3  1  0  0  0  0
  1  7  1  0  0  0  0
  3  4  1  0  0  0  0
  3  5  1  0  0  0  0
  3  6  1  0  0  0  0
  7  8  1  0  0  0  0
  7 12  1  0  0  0  0
  8  9  1  0  0  0  0
  8 11  1  0  0  0  0
  8 13  1  0  0  0  0
  9 10  2  0  0  0  0
  9 17  1  0  0  0  0
 11 14  1  0  0  0  0
 11 15  1  0  0  0  0
 11 16  1  0  0  0  0
 17 18  1  0  0  0  0
 17 25  1  0  0  0  0
 18 19  1  0  0  0  0
 18 21  1  0  0  0  0
 18 26  1  0  0  0  0
 19 20  2  0  0  0  0
 19 36  1  0  0  0  0
 21 22  1  0  0  0  0
 21 27  1  0  0  0  0
 21 28  1  0  0  0  0
 22 23  1  0  0  0  0
 22 24  1  0  0  0  0
 22 29  1  0  0  0  0
 23 30  1  0  0  0  0
 23 31  1  0  0  0  0
 23 32  1  0  0  0  0
 24 33  1  0  0  0  0
 24 34  1  0  0  0  0
 24 35  1  0  0  0  0
 36 37  1  0  0  0  0
 36 41  1  0  0  0  0
 37 38  1  0  0  0  0
 37 40  1  0  0  0  0
 37 42  1  0  0  0  0
 38 39  2  0  0  0  0
 38 46  1  0  0  0  0
 40 43  1  0  0  0  0
 40 44  1  0  0  0  0
 40 45  1  0  0  0  0
 46 47  1  0  0  0  0
 46 48  1  0  0  0  0
 47 49  1  0  0  0  0
 47 50  1  0  0  0  0
 47 51  1  0  0  0  0
M  END
$$$$

  -OEChem-05262216553D

 51 50  0     1  0  0  0  0  0999 V2000
    3.2191   -0.7896   -3.5028 C   0  0  0  0  0  0  0  0  0  0  0  0
    2.8090    0.3600   -3.5571 O   0  0  0  0  0  0  0  0  0  0  0  0
    4.7085   -1.0721   -3.5517 C   0  0  0  0  0  0  0  0  0  0  0  0
    5.0374   -1.5005   -2.6016 H   0  0  0  0  0  0  0  0  0  0  0  0
    4.9293   -1.7768   -4.3573 H   0  0  0  0  0  0  0  0  0  0  0  0
    5.2627   -0.1466   -3.7320 H   0  0  0  0  0  0  0  0  0  0  0  0
    2.3291   -1.8314   -3.3433 N   0  0  0  0  0  0  0  0  0  0  0  0
    0.9086   -1.6245   -3.0347 C   0  0  2  0  0  0  0  0  0  0  0  0
    0.6531   -1.6049   -1.5142 C   0  0  0  0  0  0  0  0  0  0  0  0
    1.1121   -2.4905   -0.8062 O   0  0  0  0  0  0  0  0  0  0  0  0
    0.1137   -2.7493   -3.7022 C   0  0  0  0  0  0  0  0  0  0  0  0
    2.7328   -2.7288   -3.0850 H   0  0  0  0  0  0  0  0  0  0  0  0
    0.5648   -0.6729   -3.4531 H   0  0  0  0  0  0  0  0  0  0  0  0
    0.4267   -3.7245   -3.3150 H   0  0  0  0  0  0  0  0  0  0  0  0
   -0.9564   -2.6272   -3.5072 H   0  0  0  0  0  0  0  0  0  0  0  0
    0.2725   -2.7359   -4.7851 H   0  0  0  0  0  0  0  0  0  0  0  0
   -0.3103   -0.7789   -0.9775 N   0  0  0  0  0  0  0  0  0  0  0  0
   -0.4188   -0.3512    0.4341 C   0  0  2  0  0  0  0  0  0  0  0  0
   -1.6744    0.5486    0.5061 C   0  0  0  0  0  0  0  0  0  0  0  0
   -2.5998    0.2302    1.2391 O   0  0  0  0  0  0  0  0  0  0  0  0
    0.6701    0.5708    1.0937 C   0  0  0  0  0  0  0  0  0  0  0  0
    2.1484    0.1696    1.3567 C   0  0  0  0  0  0  0  0  0  0  0  0
    2.8569    1.4338    1.8822 C   0  0  0  0  0  0  0  0  0  0  0  0
    2.9727   -0.2477    0.1284 C   0  0  0  0  0  0  0  0  0  0  0  0
   -0.7775   -0.1894   -1.6604 H   0  0  0  0  0  0  0  0  0  0  0  0
   -0.5625   -1.2373    1.0630 H   0  0  0  0  0  0  0  0  0  0  0  0
    0.2682    0.8665    2.0703 H   0  0  0  0  0  0  0  0  0  0  0  0
    0.7246    1.4757    0.4800 H   0  0  0  0  0  0  0  0  0  0  0  0
    2.1869   -0.6242    2.1103 H   0  0  0  0  0  0  0  0  0  0  0  0
    2.8975    2.2129    1.1136 H   0  0  0  0  0  0  0  0  0  0  0  0
    3.8798    1.2000    2.1947 H   0  0  0  0  0  0  0  0  0  0  0  0
    2.3279    1.8348    2.7526 H   0  0  0  0  0  0  0  0  0  0  0  0
    3.0079   -1.3331    0.0438 H   0  0  0  0  0  0  0  0  0  0  0  0
    4.0141    0.0797    0.2100 H   0  0  0  0  0  0  0  0  0  0  0  0
    2.5587    0.1920   -0.7823 H   0  0  0  0  0  0  0  0  0  0  0  0
   -1.7583    1.7086   -0.2535 N   0  0  0  0  0  0  0  0  0  0  0  0
   -2.8769    2.6739   -0.2784 C   0  0  2  0  0  0  0  0  0  0  0  0
   -3.0883    3.4412    1.0475 C   0  0  0  0  0  0  0  0  0  0  0  0
   -2.9897    4.6609    1.0559 O   0  0  0  0  0  0  0  0  0  0  0  0
   -4.1795    2.0089   -0.7473 C   0  0  0  0  0  0  0  0  0  0  0  0
   -0.9001    1.9870   -0.7222 H   0  0  0  0  0  0  0  0  0  0  0  0
   -2.6252    3.4319   -1.0276 H   0  0  0  0  0  0  0  0  0  0  0  0
   -4.5621    1.3068   -0.0009 H   0  0  0  0  0  0  0  0  0  0  0  0
   -4.9465    2.7706   -0.9198 H   0  0  0  0  0  0  0  0  0  0  0  0
   -4.0145    1.4666   -1.6828 H   0  0  0  0  0  0  0  0  0  0  0  0
   -3.3543    2.7750    2.2270 N   0  0  0  0  0  0  0  0  0  0  0  0
   -3.4711    3.4282    3.5233 C   0  0  0  0  0  0  0  0  0  0  0  0
   -3.3251    1.7524    2.1809 H   0  0  0  0  0  0  0  0  0  0  0  0
   -3.7428    2.6963    4.2899 H   0  0  0  0  0  0  0  0  0  0  0  0
   -2.5201    3.8913    3.8052 H   0  0  0  0  0  0  0  0  0  0  0  0
   -4.2458    4.2015    3.4951 H   0  0  0  0  0  0  0  0  0  0  0  0
  1  2  2  0  0  0  0
  1  3  1  0  0  0  0
  1  7  1  0  0  0  0
  3  4  1  0  0  0  0
  3  5  1  0  0  0  0
  3  6  1  0  0  0  0
  7  8  1  0  0  0  0
  7 12  1  0  0  0  0
  8  9  1  0  0  0  0
  8 11  1  0  0  0  0
  8 13  1  0  0  0  0
  9 10  2  0  0  0  0
  9 17  1  0  0  0  0
 11 14  1  0  0  0  0
 11 15  1  0  0  0  0
 11 16  1  0  0  0  0
 17 18  1  0  0  0  0
 17 25  1  0  0  0  0
 18 19  1  0  0  0  0
 18 21  1  0  0  0  0
 18 26  1  0  0  0  0
 19 20  2  0  0  0  0
 19 36  1  0  0  0  0
 21 22  1  0  0  0  0
 21 27  1  0  0  0  0
 21 28  1  0  0  0  0
 22 23  1  0  0  0  0
 22 24  1  0  0  0  0
 22 29  1  0  0  0  0
 23 30  1  0  0  0  0
 23 31  1  0  0  0  0
 23 32  1  0  0  0  0
 24 33  1  0  0  0  0
 24 34  1  0  0  0  0
 24 35  1  0  0  0  0
 36 37  1  0  0  0  0
 36 41  1  0  0  0  0
 37 38  1  0  0  0  0
 37 40  1  0  0  0  0
 37 42  1  0  0  0  0
 38 39  2  0  0  0  0
 38 46  1  0  0  0  0
 40 43  1  0  0  0  0
 40 44  1  0  0  0  0
 40 45  1  0  0  0  0
 46 47  1  0  0  0  0
 46 48  1  0  0  0  0
 47 49  1  0  0  0  0
 47 50  1  0  0  0  0
 47 51  1  0  0  0  0
M  END
$$$$

  -OEChem-05262216553D

 51 50  0     1  0  0  0  0  0999 V2000
    3.3168   -0.8771   -3.4960 C   0  0  0  0  0  0  0  0  0  0  0  0
    2.9394    0.2793   -3.6084 O   0  0  0  0  0  0  0  0  0  0  0  0
    4.7992   -1.1975   -3.4743 C   0  0  0  0  0  0  0  0  0  0  0  0
    5.0836   -1.5711   -2.4875 H   0  0  0  0  0  0  0  0  0  0  0  0
    5.0294   -1.9579   -4.2246 H   0  0  0  0  0  0  0  0  0  0  0  0
    5.3832   -0.2992   -3.6934 H   0  0  0  0  0  0  0  0  0  0  0  0
    2.3960   -1.8902   -3.3272 N   0  0  0  0  0  0  0  0  0  0  0  0
    0.9763   -1.6377   -3.0495 C   0  0  2  0  0  0  0  0  0  0  0  0
    0.6926   -1.6181   -1.5341 C   0  0  0  0  0  0  0  0  0  0  0  0
    1.1738   -2.4804   -0.8116 O   0  0  0  0  0  0  0  0  0  0  0  0
    0.1618   -2.7350   -3.7384 C   0  0  0  0  0  0  0  0  0  0  0  0
    2.7723   -2.7826   -3.0150 H   0  0  0  0  0  0  0  0  0  0  0  0
    0.6714   -0.6731   -3.4682 H   0  0  0  0  0  0  0  0  0  0  0  0
    0.4330   -3.7200   -3.3446 H   0  0  0  0  0  0  0  0  0  0  0  0
   -0.9083   -2.5783   -3.5715 H   0  0  0  0  0  0  0  0  0  0  0  0
    0.3493   -2.7257   -4.8166 H   0  0  0  0  0  0  0  0  0  0  0  0
   -0.3044   -0.8216   -1.0138 N   0  0  0  0  0  0  0  0  0  0  0  0
   -0.4395   -0.4036    0.3992 C   0  0  2  0  0  0  0  0  0  0  0  0
   -1.7168    0.4634    0.4912 C   0  0  0  0  0  0  0  0  0  0  0  0
   -2.5144    0.2640    1.3967 O   0  0  0  0  0  0  0  0  0  0  0  0
    0.6104    0.5773    1.0363 C   0  0  0  0  0  0  0  0  0  0  0  0
    2.1116    0.2561    1.2827 C   0  0  0  0  0  0  0  0  0  0  0  0
    2.7580    1.5609    1.7882 C   0  0  0  0  0  0  0  0  0  0  0  0
    2.9434   -0.1232    0.0469 C   0  0  0  0  0  0  0  0  0  0  0  0
   -0.8029   -0.2670   -1.7028 H   0  0  0  0  0  0  0  0  0  0  0  0
   -0.5441   -1.2919    1.0324 H   0  0  0  0  0  0  0  0  0  0  0  0
    0.2111    0.8582    2.0186 H   0  0  0  0  0  0  0  0  0  0  0  0
    0.6026    1.4804    0.4156 H   0  0  0  0  0  0  0  0  0  0  0  0
    2.2025   -0.5291    2.0409 H   0  0  0  0  0  0  0  0  0  0  0  0
    2.7443    2.3341    1.0127 H   0  0  0  0  0  0  0  0  0  0  0  0
    3.7968    1.3861    2.0865 H   0  0  0  0  0  0  0  0  0  0  0  0
    2.2208    1.9396    2.6635 H   0  0  0  0  0  0  0  0  0  0  0  0
    3.0302   -1.2055   -0.0393 H   0  0  0  0  0  0  0  0  0  0  0  0
    3.9691    0.2525    0.1195 H   0  0  0  0  0  0  0  0  0  0  0  0
    2.5011    0.2969   -0.8601 H   0  0  0  0  0  0  0  0  0  0  0  0
   -1.9710    1.4466   -0.4572 N   0  0  0  0  0  0  0  0  0  0  0  0
   -3.1414    2.3484   -0.5035 C   0  0  2  0  0  0  0  0  0  0  0  0
   -3.2272    3.3525    0.6700 C   0  0  0  0  0  0  0  0  0  0  0  0
   -3.2328    4.5525    0.4310 O   0  0  0  0  0  0  0  0  0  0  0  0
   -4.4498    1.5582   -0.6517 C   0  0  0  0  0  0  0  0  0  0  0  0
   -1.1804    1.6955   -1.0452 H   0  0  0  0  0  0  0  0  0  0  0  0
   -3.0380    2.9542   -1.4098 H   0  0  0  0  0  0  0  0  0  0  0  0
   -4.6837    0.9970    0.2575 H   0  0  0  0  0  0  0  0  0  0  0  0
   -5.2795    2.2439   -0.8496 H   0  0  0  0  0  0  0  0  0  0  0  0
   -4.3773    0.8543   -1.4860 H   0  0  0  0  0  0  0  0  0  0  0  0
   -3.2740    2.9239    1.9815 N   0  0  0  0  0  0  0  0  0  0  0  0
   -3.2949    3.8160    3.1324 C   0  0  0  0  0  0  0  0  0  0  0  0
   -3.1886    1.9141    2.1288 H   0  0  0  0  0  0  0  0  0  0  0  0
   -3.3650    3.2356    4.0572 H   0  0  0  0  0  0  0  0  0  0  0  0
   -2.3808    4.4176    3.1681 H   0  0  0  0  0  0  0  0  0  0  0  0
   -4.1579    4.4879    3.0808 H   0  0  0  0  0  0  0  0  0  0  0  0
  1  2  2  0  0  0  0
  1  3  1  0  0  0  0
  1  7  1  0  0  0  0
  3  4  1  0  0  0  0
  3  5  1  0  0  0  0
  3  6  1  0  0  0  0
  7  8  1  0  0  0  0
  7 12  1  0  0  0  0
  8  9  1  0  0  0  0
  8 11  1  0  0  0  0
  8 13  1  0  0  0  0
  9 10  2  0  0  0  0
  9 17  1  0  0  0  0
 11 14  1  0  0  0  0
 11 15  1  0  0  0  0
 11 16  1  0  0  0  0
 17 18  1  0  0  0  0
 17 25  1  0  0  0  0
 18 19  1  0  0  0  0
 18 21  1  0  0  0  0
 18 26  1  0  0  0  0
 19 20  2  0  0  0  0
 19 36  1  0  0  0  0
 21 22  1  0  0  0  0
 21 27  1  0  0  0  0
 21 28  1  0  0  0  0
 22 23  1  0  0  0  0
 22 24  1  0  0  0  0
 22 29  1  0  0  0  0
 23 30  1  0  0  0  0
 23 31  1  0  0  0  0
 23 32  1  0  0  0  0
 24 33  1  0  0  0  0
 24 34  1  0  0  0  0
 24 35  1  0  0  0  0
 36 37  1  0  0  0  0
 36 41  1  0  0  0  0
 37 38  1  0  0  0  0
 37 40  1  0  0  0  0
 37 42  1  0  0  0  0
 38 39  2  0  0  0  0
 38 46  1  0  0  0  0
 40 43  1  0  0  0  0
 40 44  1  0  0  0  0
 40 45  1  0  0  0  0
 46 47  1  0  0  0  0
 46 48  1  0  0  0  0
 47 49  1  0  0  0  0
 47 50  1  0  0  0  0
 47 51  1  0  0  0  0
M  END
$$$$

  -OEChem-05262216553D

 51 50  0     1  0  0  0  0  0999 V2000
    3.3568   -0.8847   -3.5021 C   0  0  0  0  0  0  0  0  0  0  0  0
    2.9574    0.2604   -3.6469 O   0  0  0  0  0  0  0  0  0  0  0  0
    4.8451   -1.1757   -3.4828 C   0  0  0  0  0  0  0  0  0  0  0  0
    5.1560   -1.4571   -2.4736 H   0  0  0  0  0  0  0  0  0  0  0  0
    5.0761   -1.9940   -4.1694 H   0  0  0  0  0  0  0  0  0  0  0  0
    5.4066   -0.2896   -3.7917 H   0  0  0  0  0  0  0  0  0  0  0  0
    2.4557   -1.9103   -3.3040 N   0  0  0  0  0  0  0  0  0  0  0  0
    1.0290   -1.6819   -3.0424 C   0  0  2  0  0  0  0  0  0  0  0  0
    0.7298   -1.6512   -1.5301 C   0  0  0  0  0  0  0  0  0  0  0  0
    1.2122   -2.5020   -0.7946 O   0  0  0  0  0  0  0  0  0  0  0  0
    0.2424   -2.8024   -3.7264 C   0  0  0  0  0  0  0  0  0  0  0  0
    2.8483   -2.7878   -2.9710 H   0  0  0  0  0  0  0  0  0  0  0  0
    0.7093   -0.7282   -3.4749 H   0  0  0  0  0  0  0  0  0  0  0  0
    0.5283   -3.7777   -3.3191 H   0  0  0  0  0  0  0  0  0  0  0  0
   -0.8322   -2.6647   -3.5717 H   0  0  0  0  0  0  0  0  0  0  0  0
    0.4404   -2.8016   -4.8027 H   0  0  0  0  0  0  0  0  0  0  0  0
   -0.2864   -0.8664   -1.0290 N   0  0  0  0  0  0  0  0  0  0  0  0
   -0.4489   -0.4434    0.3815 C   0  0  2  0  0  0  0  0  0  0  0  0
   -1.7376    0.4111    0.4822 C   0  0  0  0  0  0  0  0  0  0  0  0
   -2.4129    0.3524    1.5008 O   0  0  0  0  0  0  0  0  0  0  0  0
    0.5831    0.5705    0.9992 C   0  0  0  0  0  0  0  0  0  0  0  0
    2.0927    0.2918    1.2484 C   0  0  0  0  0  0  0  0  0  0  0  0
    2.7048    1.6219    1.7296 C   0  0  0  0  0  0  0  0  0  0  0  0
    2.9368   -0.0878    0.0211 C   0  0  0  0  0  0  0  0  0  0  0  0
   -0.7881   -0.3333   -1.7304 H   0  0  0  0  0  0  0  0  0  0  0  0
   -0.5347   -1.3273    1.0234 H   0  0  0  0  0  0  0  0  0  0  0  0
    0.1852    0.8578    1.9802 H   0  0  0  0  0  0  0  0  0  0  0  0
    0.5475    1.4628    0.3633 H   0  0  0  0  0  0  0  0  0  0  0  0
    2.2039   -0.4762    2.0210 H   0  0  0  0  0  0  0  0  0  0  0  0
    2.6714    2.3801    0.9400 H   0  0  0  0  0  0  0  0  0  0  0  0
    3.7475    1.4793    2.0313 H   0  0  0  0  0  0  0  0  0  0  0  0
    2.1583    2.0027    2.5981 H   0  0  0  0  0  0  0  0  0  0  0  0
    3.0393   -1.1693   -0.0542 H   0  0  0  0  0  0  0  0  0  0  0  0
    3.9566    0.3031    0.0961 H   0  0  0  0  0  0  0  0  0  0  0  0
    2.4943    0.3176   -0.8924 H   0  0  0  0  0  0  0  0  0  0  0  0
   -2.1762    1.1770   -0.5919 N   0  0  0  0  0  0  0  0  0  0  0  0
   -3.4113    1.9875   -0.6515 C   0  0  2  0  0  0  0  0  0  0  0  0
   -3.4386    3.1915    0.3186 C   0  0  0  0  0  0  0  0  0  0  0  0
   -3.5266    4.3238   -0.1367 O   0  0  0  0  0  0  0  0  0  0  0  0
   -4.6630    1.1132   -0.4860 C   0  0  0  0  0  0  0  0  0  0  0  0
   -1.4709    1.3802   -1.2930 H   0  0  0  0  0  0  0  0  0  0  0  0
   -3.4609    2.4137   -1.6589 H   0  0  0  0  0  0  0  0  0  0  0  0
   -4.7483    0.7235    0.5324 H   0  0  0  0  0  0  0  0  0  0  0  0
   -5.5606    1.7020   -0.6994 H   0  0  0  0  0  0  0  0  0  0  0  0
   -4.6307    0.2684   -1.1802 H   0  0  0  0  0  0  0  0  0  0  0  0
   -3.3295    3.0163    1.6835 N   0  0  0  0  0  0  0  0  0  0  0  0
   -3.2456    4.1100    2.6411 C   0  0  0  0  0  0  0  0  0  0  0  0
   -3.1516    2.0585    1.9991 H   0  0  0  0  0  0  0  0  0  0  0  0
   -3.1992    3.7149    3.6605 H   0  0  0  0  0  0  0  0  0  0  0  0
   -2.3478    4.7096    2.4593 H   0  0  0  0  0  0  0  0  0  0  0  0
   -4.1252    4.7574    2.5616 H   0  0  0  0  0  0  0  0  0  0  0  0
  1  2  2  0  0  0  0
  1  3  1  0  0  0  0
  1  7  1  0  0  0  0
  3  4  1  0  0  0  0
  3  5  1  0  0  0  0
  3  6  1  0  0  0  0
  7  8  1  0  0  0  0
  7 12  1  0  0  0  0
  8  9  1  0  0  0  0
  8 11  1  0  0  0  0
  8 13  1  0  0  0  0
  9 10  2  0  0  0  0
  9 17  1  0  0  0  0
 11 14  1  0  0  0  0
 11 15  1  0  0  0  0
 11 16  1  0  0  0  0
 17 18  1  0  0  0  0
 17 25  1  0  0  0  0
 18 19  1  0  0  0  0
 18 21  1  0  0  0  0
 18 26  1  0  0  0  0
 19 20  2  0  0  0  0
 19 36  1  0  0  0  0
 21 22  1  0  0  0  0
 21 27  1  0  0  0  0
 21 28  1  0  0  0  0
 22 23  1  0  0  0  0
 22 24  1  0  0  0  0
 22 29  1  0  0  0  0
 23 30  1  0  0  0  0
 23 31  1  0  0  0  0
 23 32  1  0  0  0  0
 24 33  1  0  0  0  0
 24 34  1  0  0  0  0
 24 35  1  0  0  0  0
 36 37  1  0  0  0  0
 36 41  1  0  0  0  0
 37 38  1  0  0  0  0
 37 40  1  0  0  0  0
 37 42  1  0  0  0  0
 38 39  2  0  0  0  0
 38 46  1  0  0  0  0
 40 43  1  0  0  0  0
 40 44  1  0  0  0  0
 40 45  1  0  0  0  0
 46 47  1  0  0  0  0
 46 48  1  0  0  0  0
 47 49  1  0  0  0  0
 47 50  1  0  0  0  0
 47 51  1  0  0  0  0
M  END
$$$$

  -OEChem-05262216553D

 51 50  0     1  0  0  0  0  0999 V2000
    3.6507   -1.0768   -3.4439 C   0  0  0  0  0  0  0  0  0  0  0  0
    3.4436    0.0990   -3.6994 O   0  0  0  0  0  0  0  0  0  0  0  0
    5.0730   -1.5930   -3.3373 C   0  0  0  0  0  0  0  0  0  0  0  0
    5.2435   -2.0151   -2.3436 H   0  0  0  0  0  0  0  0  0  0  0  0
    5.2468   -2.3670   -4.0891 H   0  0  0  0  0  0  0  0  0  0  0  0
    5.7835   -0.7775   -3.4994 H   0  0  0  0  0  0  0  0  0  0  0  0
    2.5947   -1.9340   -3.2127 N   0  0  0  0  0  0  0  0  0  0  0  0
    1.2082   -1.4853   -3.0212 C   0  0  2  0  0  0  0  0  0  0  0  0
    0.7694   -1.6193   -1.5480 C   0  0  0  0  0  0  0  0  0  0  0  0
    1.2269   -2.5130   -0.8468 O   0  0  0  0  0  0  0  0  0  0  0  0
    0.3176   -2.3350   -3.9308 C   0  0  0  0  0  0  0  0  0  0  0  0
    2.8391   -2.8332   -2.8016 H   0  0  0  0  0  0  0  0  0  0  0  0
    1.0973   -0.4351   -3.3097 H   0  0  0  0  0  0  0  0  0  0  0  0
    0.3933   -3.3939   -3.6621 H   0  0  0  0  0  0  0  0  0  0  0  0
   -0.7287   -2.0278   -3.8404 H   0  0  0  0  0  0  0  0  0  0  0  0
    0.6232   -2.2176   -4.9753 H   0  0  0  0  0  0  0  0  0  0  0  0
   -0.3176   -0.9253   -1.0620 N   0  0  0  0  0  0  0  0  0  0  0  0
   -0.4621   -0.5034    0.3533 C   0  0  2  0  0  0  0  0  0  0  0  0
   -1.8215    0.2350    0.5347 C   0  0  0  0  0  0  0  0  0  0  0  0
   -2.2510    0.4391    1.6631 O   0  0  0  0  0  0  0  0  0  0  0  0
    0.5390    0.5825    0.9055 C   0  0  0  0  0  0  0  0  0  0  0  0
    2.0750    0.4077    1.0924 C   0  0  0  0  0  0  0  0  0  0  0  0
    2.6152    1.7868    1.5207 C   0  0  0  0  0  0  0  0  0  0  0  0
    2.9052    0.0520   -0.1497 C   0  0  0  0  0  0  0  0  0  0  0  0
   -0.6441   -0.2478   -1.7401 H   0  0  0  0  0  0  0  0  0  0  0  0
   -0.4418   -1.3871    1.0008 H   0  0  0  0  0  0  0  0  0  0  0  0
    0.1830    0.8607    1.9038 H   0  0  0  0  0  0  0  0  0  0  0  0
    0.4087    1.4602    0.2621 H   0  0  0  0  0  0  0  0  0  0  0  0
    2.2653   -0.3313    1.8784 H   0  0  0  0  0  0  0  0  0  0  0  0
    2.5014    2.5212    0.7161 H   0  0  0  0  0  0  0  0  0  0  0  0
    3.6757    1.7220    1.7848 H   0  0  0  0  0  0  0  0  0  0  0  0
    2.0777    2.1527    2.4010 H   0  0  0  0  0  0  0  0  0  0  0  0
    3.0181   -1.0270   -0.2406 H   0  0  0  0  0  0  0  0  0  0  0  0
    3.9221    0.4515   -0.0794 H   0  0  0  0  0  0  0  0  0  0  0  0
    2.4477    0.4665   -1.0522 H   0  0  0  0  0  0  0  0  0  0  0  0
   -2.5608    0.6958   -0.5487 N   0  0  0  0  0  0  0  0  0  0  0  0
   -3.8685    1.3862   -0.5097 C   0  0  2  0  0  0  0  0  0  0  0  0
   -3.8309    2.8102    0.0911 C   0  0  0  0  0  0  0  0  0  0  0  0
   -4.2780    3.7451   -0.5598 O   0  0  0  0  0  0  0  0  0  0  0  0
   -4.9417    0.5275    0.1757 C   0  0  0  0  0  0  0  0  0  0  0  0
   -2.2149    0.4406   -1.4639 H   0  0  0  0  0  0  0  0  0  0  0  0
   -4.1873    1.5114   -1.5495 H   0  0  0  0  0  0  0  0  0  0  0  0
   -4.7638    0.4489    1.2522 H   0  0  0  0  0  0  0  0  0  0  0  0
   -5.9289    0.9766    0.0284 H   0  0  0  0  0  0  0  0  0  0  0  0
   -4.9533   -0.4803   -0.2502 H   0  0  0  0  0  0  0  0  0  0  0  0
   -3.2890    3.0518    1.3374 N   0  0  0  0  0  0  0  0  0  0  0  0
   -3.2153    4.3682    1.9557 C   0  0  0  0  0  0  0  0  0  0  0  0
   -2.9170    2.2373    1.8341 H   0  0  0  0  0  0  0  0  0  0  0  0
   -2.7295    4.2984    2.9336 H   0  0  0  0  0  0  0  0  0  0  0  0
   -2.6355    5.0538    1.3290 H   0  0  0  0  0  0  0  0  0  0  0  0
   -4.2194    4.7816    2.0963 H   0  0  0  0  0  0  0  0  0  0  0  0
  1  2  2  0  0  0  0
  1  3  1  0  0  0  0
  1  7  1  0  0  0  0
  3  4  1  0  0  0  0
  3  5  1  0  0  0  0
  3  6  1  0  0  0  0
  7  8  1  0  0  0  0
  7 12  1  0  0  0  0
  8  9  1  0  0  0  0
  8 11  1  0  0  0  0
  8 13  1  0  0  0  0
  9 10  2  0  0  0  0
  9 17  1  0  0  0  0
 11 14  1  0  0  0  0
 11 15  1  0  0  0  0
 11 16  1  0  0  0  0
 17 18  1  0  0  0  0
 17 25  1  0  0  0  0
 18 19  1  0  0  0  0
 18 21  1  0  0  0  0
 18 26  1  0  0  0  0
 19 20  2  0  0  0  0
 19 36  1  0  0  0  0
 21 22  1  0  0  0  0
 21 27  1  0  0  0  0
 21 28  1  0  0  0  0
 22 23  1  0  0  0  0
 22 24  1  0  0  0  0
 22 29  1  0  0  0  0
 23 30  1  0  0  0  0
 23 31  1  0  0  0  0
 23 32  1  0  0  0  0
 24 33  1  0  0  0  0
 24 34  1  0  0  0  0
 24 35  1  0  0  0  0
 36 37  1  0  0  0  0
 36 41  1  0  0  0  0
 37 38  1  0  0  0  0
 37 40  1  0  0  0  0
 37 42  1  0  0  0  0
 38 39  2  0  0  0  0
 38 46  1  0  0  0  0
 40 43  1  0  0  0  0
 40 44  1  0  0  0  0
 40 45  1  0  0  0  0
 46 47  1  0  0  0  0
 46 48  1  0  0  0  0
 47 49  1  0  0  0  0
 47 50  1  0  0  0  0
 47 51  1  0  0  0  0
M  END
$$$$

  -OEChem-05262216553D

 51 50  0     1  0  0  0  0  0999 V2000
    3.6544   -0.9838   -3.4931 C   0  0  0  0  0  0  0  0  0  0  0  0
    3.4682    0.2045   -3.7016 O   0  0  0  0  0  0  0  0  0  0  0  0
    5.0675   -1.5330   -3.4392 C   0  0  0  0  0  0  0  0  0  0  0  0
    5.7883   -0.7428   -3.6680 H   0  0  0  0  0  0  0  0  0  0  0  0
    5.2779   -1.9230   -2.4402 H   0  0  0  0  0  0  0  0  0  0  0  0
    5.1842   -2.3375   -4.1695 H   0  0  0  0  0  0  0  0  0  0  0  0
    2.5852   -1.8258   -3.2667 N   0  0  0  0  0  0  0  0  0  0  0  0
    1.2136   -1.3571   -3.0214 C   0  0  2  0  0  0  0  0  0  0  0  0
    0.7930   -1.5824   -1.5542 C   0  0  0  0  0  0  0  0  0  0  0  0
    1.2686   -2.5079   -0.9085 O   0  0  0  0  0  0  0  0  0  0  0  0
    0.2870   -2.1189   -3.9715 C   0  0  0  0  0  0  0  0  0  0  0  0
    2.8201   -2.7448   -2.8963 H   0  0  0  0  0  0  0  0  0  0  0  0
    1.1252   -0.2865   -3.2330 H   0  0  0  0  0  0  0  0  0  0  0  0
    0.3319   -3.1945   -3.7711 H   0  0  0  0  0  0  0  0  0  0  0  0
   -0.7479   -1.7854   -3.8493 H   0  0  0  0  0  0  0  0  0  0  0  0
    0.5851   -1.9448   -5.0103 H   0  0  0  0  0  0  0  0  0  0  0  0
   -0.3005   -0.9390   -1.0173 N   0  0  0  0  0  0  0  0  0  0  0  0
   -0.4187   -0.5619    0.4132 C   0  0  2  0  0  0  0  0  0  0  0  0
   -1.8077    0.1221    0.6136 C   0  0  0  0  0  0  0  0  0  0  0  0
   -2.1489    0.5540    1.7077 O   0  0  0  0  0  0  0  0  0  0  0  0
    0.5817    0.5233    0.9726 C   0  0  0  0  0  0  0  0  0  0  0  0
    2.1255    0.3683    1.1186 C   0  0  0  0  0  0  0  0  0  0  0  0
    2.6542    1.7438    1.5727 C   0  0  0  0  0  0  0  0  0  0  0  0
    2.9364    0.0551   -0.1474 C   0  0  0  0  0  0  0  0  0  0  0  0
   -0.6393   -0.2226   -1.6528 H   0  0  0  0  0  0  0  0  0  0  0  0
   -0.3660   -1.4628    1.0339 H   0  0  0  0  0  0  0  0  0  0  0  0
    0.2521    0.7615    1.9895 H   0  0  0  0  0  0  0  0  0  0  0  0
    0.4180    1.4188    0.3624 H   0  0  0  0  0  0  0  0  0  0  0  0
    2.3447   -0.3868    1.8811 H   0  0  0  0  0  0  0  0  0  0  0  0
    2.5052    2.4994    0.7941 H   0  0  0  0  0  0  0  0  0  0  0  0
    3.7228    1.6901    1.8048 H   0  0  0  0  0  0  0  0  0  0  0  0
    2.1358    2.0748    2.4782 H   0  0  0  0  0  0  0  0  0  0  0  0
    3.0545   -1.0203   -0.2706 H   0  0  0  0  0  0  0  0  0  0  0  0
    3.9516    0.4595   -0.0829 H   0  0  0  0  0  0  0  0  0  0  0  0
    2.4618    0.4930   -1.0296 H   0  0  0  0  0  0  0  0  0  0  0  0
   -2.6794    0.2791   -0.4573 N   0  0  0  0  0  0  0  0  0  0  0  0
   -4.0324    0.8766   -0.4317 C   0  0  2  0  0  0  0  0  0  0  0  0
   -4.0651    2.3962   -0.1466 C   0  0  0  0  0  0  0  0  0  0  0  0
   -4.5814    3.1475   -0.9633 O   0  0  0  0  0  0  0  0  0  0  0  0
   -4.9656    0.1159    0.5216 C   0  0  0  0  0  0  0  0  0  0  0  0
   -2.4473   -0.2741   -1.2749 H   0  0  0  0  0  0  0  0  0  0  0  0
   -4.4476    0.7560   -1.4379 H   0  0  0  0  0  0  0  0  0  0  0  0
   -4.6844    0.2724    1.5669 H   0  0  0  0  0  0  0  0  0  0  0  0
   -5.9951    0.4644    0.3922 H   0  0  0  0  0  0  0  0  0  0  0  0
   -4.9339   -0.9568    0.3096 H   0  0  0  0  0  0  0  0  0  0  0  0
   -3.5118    2.9235    1.0025 N   0  0  0  0  0  0  0  0  0  0  0  0
   -3.4583    4.3467    1.3059 C   0  0  0  0  0  0  0  0  0  0  0  0
   -3.0298    2.2591    1.6146 H   0  0  0  0  0  0  0  0  0  0  0  0
   -3.0176    4.5036    2.2951 H   0  0  0  0  0  0  0  0  0  0  0  0
   -2.8480    4.8730    0.5649 H   0  0  0  0  0  0  0  0  0  0  0  0
   -4.4649    4.7780    1.3048 H   0  0  0  0  0  0  0  0  0  0  0  0
  1  2  2  0  0  0  0
  1  3  1  0  0  0  0
  1  7  1  0  0  0  0
  3  4  1  0  0  0  0
  3  5  1  0  0  0  0
  3  6  1  0  0  0  0
  7  8  1  0  0  0  0
  7 12  1  0  0  0  0
  8  9  1  0  0  0  0
  8 11  1  0  0  0  0
  8 13  1  0  0  0  0
  9 10  2  0  0  0  0
  9 17  1  0  0  0  0
 11 14  1  0  0  0  0
 11 15  1  0  0  0  0
 11 16  1  0  0  0  0
 17 18  1  0  0  0  0
 17 25  1  0  0  0  0
 18 19  1  0  0  0  0
 18 21  1  0  0  0  0
 18 26  1  0  0  0  0
 19 20  2  0  0  0  0
 19 36  1  0  0  0  0
 21 22  1  0  0  0  0
 21 27  1  0  0  0  0
 21 28  1  0  0  0  0
 22 23  1  0  0  0  0
 22 24  1  0  0  0  0
 22 29  1  0  0  0  0
 23 30  1  0  0  0  0
 23 31  1  0  0  0  0
 23 32  1  0  0  0  0
 24 33  1  0  0  0  0
 24 34  1  0  0  0  0
 24 35  1  0  0  0  0
 36 37  1  0  0  0  0
 36 41  1  0  0  0  0
 37 38  1  0  0  0  0
 37 40  1  0  0  0  0
 37 42  1  0  0  0  0
 38 39  2  0  0  0  0
 38 46  1  0  0  0  0
 40 43  1  0  0  0  0
 40 44  1  0  0  0  0
 40 45  1  0  0  0  0
 46 47  1  0  0  0  0
 46 48  1  0  0  0  0
 47 49  1  0  0  0  0
 47 50  1  0  0  0  0
 47 51  1  0  0  0  0
M  END
$$$$

  -OEChem-05262216553D

 51 50  0     1  0  0  0  0  0999 V2000
    3.5834   -0.9260   -3.5583 C   0  0  0  0  0  0  0  0  0  0  0  0
    3.4003    0.2692   -3.7264 O   0  0  0  0  0  0  0  0  0  0  0  0
    4.9922   -1.4882   -3.5778 C   0  0  0  0  0  0  0  0  0  0  0  0
    5.7125   -0.6944   -3.7946 H   0  0  0  0  0  0  0  0  0  0  0  0
    5.2326   -1.9257   -2.6057 H   0  0  0  0  0  0  0  0  0  0  0  0
    5.0762   -2.2589   -4.3477 H   0  0  0  0  0  0  0  0  0  0  0  0
    2.5171   -1.7666   -3.3135 N   0  0  0  0  0  0  0  0  0  0  0  0
    1.1613   -1.2939   -2.9979 C   0  0  2  0  0  0  0  0  0  0  0  0
    0.7988   -1.5639   -1.5227 C   0  0  0  0  0  0  0  0  0  0  0  0
    1.3127   -2.4953   -0.9161 O   0  0  0  0  0  0  0  0  0  0  0  0
    0.1907   -2.0137   -3.9365 C   0  0  0  0  0  0  0  0  0  0  0  0
    2.7593   -2.6970   -2.9775 H   0  0  0  0  0  0  0  0  0  0  0  0
    1.0756   -0.2159   -3.1691 H   0  0  0  0  0  0  0  0  0  0  0  0
    0.2307   -3.0957   -3.7735 H   0  0  0  0  0  0  0  0  0  0  0  0
   -0.8348   -1.6734   -3.7646 H   0  0  0  0  0  0  0  0  0  0  0  0
    0.4523   -1.8078   -4.9795 H   0  0  0  0  0  0  0  0  0  0  0  0
   -0.2866   -0.9590   -0.9297 N   0  0  0  0  0  0  0  0  0  0  0  0
   -0.3583   -0.5920    0.5064 C   0  0  2  0  0  0  0  0  0  0  0  0
   -1.7692    0.0427    0.7330 C   0  0  0  0  0  0  0  0  0  0  0  0
   -2.0363    0.7216    1.7172 O   0  0  0  0  0  0  0  0  0  0  0  0
    0.6443    0.5002    1.0471 C   0  0  0  0  0  0  0  0  0  0  0  0
    2.1931    0.3629    1.1437 C   0  0  0  0  0  0  0  0  0  0  0  0
    2.7188    1.7395    1.5969 C   0  0  0  0  0  0  0  0  0  0  0  0
    2.9683    0.0754   -0.1502 C   0  0  0  0  0  0  0  0  0  0  0  0
   -0.6975   -0.2602   -1.5444 H   0  0  0  0  0  0  0  0  0  0  0  0
   -0.2682   -1.4967    1.1172 H   0  0  0  0  0  0  0  0  0  0  0  0
    0.3462    0.7156    2.0788 H   0  0  0  0  0  0  0  0  0  0  0  0
    0.4473    1.4017    0.4559 H   0  0  0  0  0  0  0  0  0  0  0  0
    2.4445   -0.3986    1.8897 H   0  0  0  0  0  0  0  0  0  0  0  0
    2.5415    2.5006    0.8294 H   0  0  0  0  0  0  0  0  0  0  0  0
    3.7933    1.6951    1.8014 H   0  0  0  0  0  0  0  0  0  0  0  0
    2.2203    2.0560    2.5185 H   0  0  0  0  0  0  0  0  0  0  0  0
    3.0887   -0.9968   -0.2959 H   0  0  0  0  0  0  0  0  0  0  0  0
    3.9829    0.4842   -0.1068 H   0  0  0  0  0  0  0  0  0  0  0  0
    2.4668    0.5261   -1.0112 H   0  0  0  0  0  0  0  0  0  0  0  0
   -2.7556   -0.1265   -0.2308 N   0  0  0  0  0  0  0  0  0  0  0  0
   -4.1464    0.3746   -0.1954 C   0  0  2  0  0  0  0  0  0  0  0  0
   -4.2768    1.9120   -0.2980 C   0  0  0  0  0  0  0  0  0  0  0  0
   -4.9054    2.3985   -1.2286 O   0  0  0  0  0  0  0  0  0  0  0  0
   -4.9079   -0.1688    1.0227 C   0  0  0  0  0  0  0  0  0  0  0  0
   -2.5375   -0.8243   -0.9367 H   0  0  0  0  0  0  0  0  0  0  0  0
   -4.6485   -0.0258   -1.0825 H   0  0  0  0  0  0  0  0  0  0  0  0
   -4.5367    0.2681    1.9541 H   0  0  0  0  0  0  0  0  0  0  0  0
   -5.9719    0.0723    0.9365 H   0  0  0  0  0  0  0  0  0  0  0  0
   -4.8036   -1.2563    1.0826 H   0  0  0  0  0  0  0  0  0  0  0  0
   -3.6733    2.7465    0.6210 N   0  0  0  0  0  0  0  0  0  0  0  0
   -3.6882    4.2002    0.5375 C   0  0  0  0  0  0  0  0  0  0  0  0
   -3.0805    2.2886    1.3191 H   0  0  0  0  0  0  0  0  0  0  0  0
   -3.1954    4.6322    1.4136 H   0  0  0  0  0  0  0  0  0  0  0  0
   -3.1609    4.5373   -0.3606 H   0  0  0  0  0  0  0  0  0  0  0  0
   -4.7173    4.5724    0.5036 H   0  0  0  0  0  0  0  0  0  0  0  0
  1  2  2  0  0  0  0
  1  3  1  0  0  0  0
  1  7  1  0  0  0  0
  3  4  1  0  0  0  0
  3  5  1  0  0  0  0
  3  6  1  0  0  0  0
  7  8  1  0  0  0  0
  7 12  1  0  0  0  0
  8  9  1  0  0  0  0
  8 11  1  0  0  0  0
  8 13  1  0  0  0  0
  9 10  2  0  0  0  0
  9 17  1  0  0  0  0
 11 14  1  0  0  0  0
 11 15  1  0  0  0  0
 11 16  1  0  0  0  0
 17 18  1  0  0  0  0
 17 25  1  0  0  0  0
 18 19  1  0  0  0  0
 18 21  1  0  0  0  0
 18 26  1  0  0  0  0
 19 20  2  0  0  0  0
 19 36  1  0  0  0  0
 21 22  1  0  0  0  0
 21 27  1  0  0  0  0
 21 28  1  0  0  0  0
 22 23  1  0  0  0  0
 22 24  1  0  0  0  0
 22 29  1  0  0  0  0
 23 30  1  0  0  0  0
 23 31  1  0  0  0  0
 23 32  1  0  0  0  0
 24 33  1  0  0  0  0
 24 34  1  0  0  0  0
 24 35  1  0  0  0  0
 36 37  1  0  0  0  0
 36 41  1  0  0  0  0
 37 38  1  0  0  0  0
 37 40  1  0  0  0  0
 37 42  1  0  0  0  0
 38 39  2  0  0  0  0
 38 46  1  0  0  0  0
 40 43  1  0  0  0  0
 40 44  1  0  0  0  0
 40 45  1  0  0  0  0
 46 47  1  0  0  0  0
 46 48  1  0  0  0  0
 47 49  1  0  0  0  0
 47 50  1  0  0  0  0
 47 51  1  0  0  0  0
M  END
$$$$

  -OEChem-05262216553D

 51 50  0     1  0  0  0  0  0999 V2000
    3.3315   -0.6442   -3.5894 C   0  0  0  0  0  0  0  0  0  0  0  0
    2.9687    0.5129   -3.7299 O   0  0  0  0  0  0  0  0  0  0  0  0
    4.8065   -0.9905   -3.6585 C   0  0  0  0  0  0  0  0  0  0  0  0
    5.3947   -0.0937   -3.8717 H   0  0  0  0  0  0  0  0  0  0  0  0
    5.1361   -1.4088   -2.7043 H   0  0  0  0  0  0  0  0  0  0  0  0
    4.9821   -1.7224   -4.4506 H   0  0  0  0  0  0  0  0  0  0  0  0
    2.4089   -1.6349   -3.3221 N   0  0  0  0  0  0  0  0  0  0  0  0
    1.0071   -1.3692   -2.9693 C   0  0  2  0  0  0  0  0  0  0  0  0
    0.7450   -1.6209   -1.4704 C   0  0  0  0  0  0  0  0  0  0  0  0
    1.2986   -2.5472   -0.8918 O   0  0  0  0  0  0  0  0  0  0  0  0
    0.1326   -2.2817   -3.8315 C   0  0  0  0  0  0  0  0  0  0  0  0
    2.7923   -2.5281   -3.0194 H   0  0  0  0  0  0  0  0  0  0  0  0
    0.7422   -0.3293   -3.1874 H   0  0  0  0  0  0  0  0  0  0  0  0
    0.3596   -3.3337   -3.6298 H   0  0  0  0  0  0  0  0  0  0  0  0
   -0.9271   -2.1081   -3.6218 H   0  0  0  0  0  0  0  0  0  0  0  0
    0.3120   -2.0831   -4.8929 H   0  0  0  0  0  0  0  0  0  0  0  0
   -0.3080   -1.0195   -0.8187 N   0  0  0  0  0  0  0  0  0  0  0  0
   -0.3223   -0.6601    0.6202 C   0  0  2  0  0  0  0  0  0  0  0  0
   -1.7295   -0.0294    0.8777 C   0  0  0  0  0  0  0  0  0  0  0  0
   -1.9262    0.8889    1.6650 O   0  0  0  0  0  0  0  0  0  0  0  0
    0.7093    0.4098    1.1478 C   0  0  0  0  0  0  0  0  0  0  0  0
    2.2577    0.2494    1.2005 C   0  0  0  0  0  0  0  0  0  0  0  0
    2.8154    1.6120    1.6575 C   0  0  0  0  0  0  0  0  0  0  0  0
    2.9858   -0.0286   -0.1216 C   0  0  0  0  0  0  0  0  0  0  0  0
   -0.7764   -0.3377   -1.4120 H   0  0  0  0  0  0  0  0  0  0  0  0
   -0.2219   -1.5716    1.2188 H   0  0  0  0  0  0  0  0  0  0  0  0
    0.4345    0.6150    2.1884 H   0  0  0  0  0  0  0  0  0  0  0  0
    0.5128    1.3209    0.5714 H   0  0  0  0  0  0  0  0  0  0  0  0
    2.5206   -0.5265    1.9276 H   0  0  0  0  0  0  0  0  0  0  0  0
    2.6325    2.3845    0.9028 H   0  0  0  0  0  0  0  0  0  0  0  0
    3.8937    1.5487    1.8353 H   0  0  0  0  0  0  0  0  0  0  0  0
    2.3433    1.9256    2.5940 H   0  0  0  0  0  0  0  0  0  0  0  0
    3.1058   -1.0997   -0.2761 H   0  0  0  0  0  0  0  0  0  0  0  0
    3.9988    0.3862   -0.1168 H   0  0  0  0  0  0  0  0  0  0  0  0
    2.4462    0.4228   -0.9583 H   0  0  0  0  0  0  0  0  0  0  0  0
   -2.7982   -0.4661    0.1063 N   0  0  0  0  0  0  0  0  0  0  0  0
   -4.1963    0.0144    0.1358 C   0  0  2  0  0  0  0  0  0  0  0  0
   -4.3854    1.4565   -0.3886 C   0  0  0  0  0  0  0  0  0  0  0  0
   -5.1447    1.6587   -1.3269 O   0  0  0  0  0  0  0  0  0  0  0  0
   -4.8225   -0.1557    1.5275 C   0  0  0  0  0  0  0  0  0  0  0  0
   -2.5928   -1.2648   -0.4892 H   0  0  0  0  0  0  0  0  0  0  0  0
   -4.7658   -0.6283   -0.5438 H   0  0  0  0  0  0  0  0  0  0  0  0
   -4.3823    0.5361    2.2515 H   0  0  0  0  0  0  0  0  0  0  0  0
   -5.8977    0.0432    1.4797 H   0  0  0  0  0  0  0  0  0  0  0  0
   -4.6754   -1.1778    1.8890 H   0  0  0  0  0  0  0  0  0  0  0  0
   -3.6842    2.5145    0.1537 N   0  0  0  0  0  0  0  0  0  0  0  0
   -3.7712    3.8865   -0.3267 C   0  0  0  0  0  0  0  0  0  0  0  0
   -3.0187    2.2807    0.8957 H   0  0  0  0  0  0  0  0  0  0  0  0
   -3.1286    4.5368    0.2745 H   0  0  0  0  0  0  0  0  0  0  0  0
   -3.4477    3.9483   -1.3710 H   0  0  0  0  0  0  0  0  0  0  0  0
   -4.8001    4.2541   -0.2534 H   0  0  0  0  0  0  0  0  0  0  0  0
  1  2  2  0  0  0  0
  1  3  1  0  0  0  0
  1  7  1  0  0  0  0
  3  4  1  0  0  0  0
  3  5  1  0  0  0  0
  3  6  1  0  0  0  0
  7  8  1  0  0  0  0
  7 12  1  0  0  0  0
  8  9  1  0  0  0  0
  8 11  1  0  0  0  0
  8 13  1  0  0  0  0
  9 10  2  0  0  0  0
  9 17  1  0  0  0  0
 11 14  1  0  0  0  0
 11 15  1  0  0  0  0
 11 16  1  0  0  0  0
 17 18  1  0  0  0  0
 17 25  1  0  0  0  0
 18 19  1  0  0  0  0
 18 21  1  0  0  0  0
 18 26  1  0  0  0  0
 19 20  2  0  0  0  0
 19 36  1  0  0  0  0
 21 22  1  0  0  0  0
 21 27  1  0  0  0  0
 21 28  1  0  0  0  0
 22 23  1  0  0  0  0
 22 24  1  0  0  0  0
 22 29  1  0  0  0  0
 23 30  1  0  0  0  0
 23 31  1  0  0  0  0
 23 32  1  0  0  0  0
 24 33  1  0  0  0  0
 24 34  1  0  0  0  0
 24 35  1  0  0  0  0
 36 37  1  0  0  0  0
 36 41  1  0  0  0  0
 37 38  1  0  0  0  0
 37 40  1  0  0  0  0
 37 42  1  0  0  0  0
 38 39  2  0  0  0  0
 38 46  1  0  0  0  0
 40 43  1  0  0  0  0
 40 44  1  0  0  0  0
 40 45  1  0  0  0  0
 46 47  1  0  0  0  0
 46 48  1  0  0  0  0
 47 49  1  0  0  0  0
 47 50  1  0  0  0  0
 47 51  1  0  0  0  0
M  END
$$$$

  -OEChem-05262216553D

 51 50  0     1  0  0  0  0  0999 V2000
    2.8650   -0.4596   -3.7611 C   0  0  0  0  0  0  0  0  0  0  0  0
    2.6083    0.7330   -3.7175 O   0  0  0  0  0  0  0  0  0  0  0  0
    4.2610   -0.9180   -4.1376 C   0  0  0  0  0  0  0  0  0  0  0  0
    4.8881   -0.0558   -4.3808 H   0  0  0  0  0  0  0  0  0  0  0  0
    4.7126   -1.4583   -3.3019 H   0  0  0  0  0  0  0  0  0  0  0  0
    4.2161   -1.5771   -5.0080 H   0  0  0  0  0  0  0  0  0  0  0  0
    1.9071   -1.3990   -3.4410 N   0  0  0  0  0  0  0  0  0  0  0  0
    0.6365   -1.0691   -2.7787 C   0  0  2  0  0  0  0  0  0  0  0  0
    0.6482   -1.5065   -1.2997 C   0  0  0  0  0  0  0  0  0  0  0  0
    1.3539   -2.4369   -0.9258 O   0  0  0  0  0  0  0  0  0  0  0  0
   -0.4855   -1.7719   -3.5455 C   0  0  0  0  0  0  0  0  0  0  0  0
    2.2569   -2.3426   -3.2890 H   0  0  0  0  0  0  0  0  0  0  0  0
    0.4486    0.0098   -2.8055 H   0  0  0  0  0  0  0  0  0  0  0  0
   -0.3530   -2.8579   -3.5111 H   0  0  0  0  0  0  0  0  0  0  0  0
   -1.4592   -1.5251   -3.1110 H   0  0  0  0  0  0  0  0  0  0  0  0
   -0.4852   -1.4514   -4.5921 H   0  0  0  0  0  0  0  0  0  0  0  0
   -0.3075   -1.0602   -0.4202 N   0  0  0  0  0  0  0  0  0  0  0  0
   -0.1227   -0.8259    1.0302 C   0  0  2  0  0  0  0  0  0  0  0  0
   -1.5254   -0.3501    1.5116 C   0  0  0  0  0  0  0  0  0  0  0  0
   -1.7282    0.7282    2.0583 O   0  0  0  0  0  0  0  0  0  0  0  0
    0.8956    0.2716    1.5145 C   0  0  0  0  0  0  0  0  0  0  0  0
    2.4398    0.2259    1.3278 C   0  0  0  0  0  0  0  0  0  0  0  0
    2.9776    1.5781    1.8352 C   0  0  0  0  0  0  0  0  0  0  0  0
    2.9739    0.1169   -0.1080 C   0  0  0  0  0  0  0  0  0  0  0  0
   -0.9784   -0.4223   -0.8647 H   0  0  0  0  0  0  0  0  0  0  0  0
    0.1287   -1.7726    1.5188 H   0  0  0  0  0  0  0  0  0  0  0  0
    0.7404    0.3767    2.5942 H   0  0  0  0  0  0  0  0  0  0  0  0
    0.5689    1.2072    1.0457 H   0  0  0  0  0  0  0  0  0  0  0  0
    2.8547   -0.5897    1.9293 H   0  0  0  0  0  0  0  0  0  0  0  0
    2.6391    2.4007    1.1960 H   0  0  0  0  0  0  0  0  0  0  0  0
    4.0723    1.5767    1.8497 H   0  0  0  0  0  0  0  0  0  0  0  0
    2.6322    1.7698    2.8560 H   0  0  0  0  0  0  0  0  0  0  0  0
    3.1301   -0.9257   -0.3796 H   0  0  0  0  0  0  0  0  0  0  0  0
    3.9506    0.6012   -0.2090 H   0  0  0  0  0  0  0  0  0  0  0  0
    2.2908    0.5977   -0.8139 H   0  0  0  0  0  0  0  0  0  0  0  0
   -2.6157   -1.0720    1.0471 N   0  0  0  0  0  0  0  0  0  0  0  0
   -3.8419   -0.4094    0.5677 C   0  0  2  0  0  0  0  0  0  0  0  0
   -3.5081    0.6498   -0.5149 C   0  0  0  0  0  0  0  0  0  0  0  0
   -2.6932    0.3616   -1.3902 O   0  0  0  0  0  0  0  0  0  0  0  0
   -4.6937    0.1224    1.7337 C   0  0  0  0  0  0  0  0  0  0  0  0
   -2.3249   -1.8825    0.5041 H   0  0  0  0  0  0  0  0  0  0  0  0
   -4.4483   -1.1694    0.0656 H   0  0  0  0  0  0  0  0  0  0  0  0
   -4.2216    0.9807    2.2199 H   0  0  0  0  0  0  0  0  0  0  0  0
   -5.6792    0.4313    1.3725 H   0  0  0  0  0  0  0  0  0  0  0  0
   -4.8339   -0.6625    2.4834 H   0  0  0  0  0  0  0  0  0  0  0  0
   -4.0752    1.9104   -0.5088 N   0  0  0  0  0  0  0  0  0  0  0  0
   -3.6429    2.9732   -1.4085 C   0  0  0  0  0  0  0  0  0  0  0  0
   -4.5875    2.1687    0.3298 H   0  0  0  0  0  0  0  0  0  0  0  0
   -4.2412    3.8745   -1.2434 H   0  0  0  0  0  0  0  0  0  0  0  0
   -2.5898    3.2188   -1.2338 H   0  0  0  0  0  0  0  0  0  0  0  0
   -3.7649    2.6668   -2.4527 H   0  0  0  0  0  0  0  0  0  0  0  0
  1  2  2  0  0  0  0
  1  3  1  0  0  0  0
  1  7  1  0  0  0  0
  3  4  1  0  0  0  0
  3  5  1  0  0  0  0
  3  6  1  0  0  0  0
  7  8  1  0  0  0  0
  7 12  1  0  0  0  0
  8  9  1  0  0  0  0
  8 11  1  0  0  0  0
  8 13  1  0  0  0  0
  9 10  2  0  0  0  0
  9 17  1  0  0  0  0
 11 14  1  0  0  0  0
 11 15  1  0  0  0  0
 11 16  1  0  0  0  0
 17 18  1  0  0  0  0
 17 25  1  0  0  0  0
 18 19  1  0  0  0  0
 18 21  1  0  0  0  0
 18 26  1  0  0  0  0
 19 20  2  0  0  0  0
 19 36  1  0  0  0  0
 21 22  1  0  0  0  0
 21 27  1  0  0  0  0
 21 28  1  0  0  0  0
 22 23  1  0  0  0  0
 22 24  1  0  0  0  0
 22 29  1  0  0  0  0
 23 30  1  0  0  0  0
 23 31  1  0  0  0  0
 23 32  1  0  0  0  0
 24 33  1  0  0  0  0
 24 34  1  0  0  0  0
 24 35  1  0  0  0  0
 36 37  1  0  0  0  0
 36 41  1  0  0  0  0
 37 38  1  0  0  0  0
 37 40  1  0  0  0  0
 37 42  1  0  0  0  0
 38 39  2  0  0  0  0
 38 46  1  0  0  0  0
 40 43  1  0  0  0  0
 40 44  1  0  0  0  0
 40 45  1  0  0  0  0
 46 47  1  0  0  0  0
 46 48  1  0  0  0  0
 47 49  1  0  0  0  0
 47 50  1  0  0  0  0
 47 51  1  0  0  0  0
M  END
$$$$

  -OEChem-05262216553D

 51 50  0     1  0  0  0  0  0999 V2000
    2.8054   -0.5357   -3.8009 C   0  0  0  0  0  0  0  0  0  0  0  0
    2.5558    0.6588   -3.7738 O   0  0  0  0  0  0  0  0  0  0  0  0
    4.1889   -1.0079   -4.2070 C   0  0  0  0  0  0  0  0  0  0  0  0
    4.8258   -0.1511   -4.4452 H   0  0  0  0  0  0  0  0  0  0  0  0
    4.6459   -1.5692   -3.3883 H   0  0  0  0  0  0  0  0  0  0  0  0
    4.1202   -1.6511   -5.0876 H   0  0  0  0  0  0  0  0  0  0  0  0
    1.8500   -1.4629   -3.4389 N   0  0  0  0  0  0  0  0  0  0  0  0
    0.5948   -1.1105   -2.7579 C   0  0  2  0  0  0  0  0  0  0  0  0
    0.6448   -1.4859   -1.2630 C   0  0  0  0  0  0  0  0  0  0  0  0
    1.3348   -2.4233   -0.8770 O   0  0  0  0  0  0  0  0  0  0  0  0
   -0.5438   -1.8491   -3.4646 C   0  0  0  0  0  0  0  0  0  0  0  0
    2.1967   -2.4057   -3.2759 H   0  0  0  0  0  0  0  0  0  0  0  0
    0.4023   -0.0343   -2.8248 H   0  0  0  0  0  0  0  0  0  0  0  0
   -0.4025   -2.9323   -3.3927 H   0  0  0  0  0  0  0  0  0  0  0  0
   -1.5061   -1.5925   -3.0109 H   0  0  0  0  0  0  0  0  0  0  0  0
   -0.5769   -1.5691   -4.5221 H   0  0  0  0  0  0  0  0  0  0  0  0
   -0.2637   -0.9726   -0.3695 N   0  0  0  0  0  0  0  0  0  0  0  0
   -0.0433   -0.7295    1.0719 C   0  0  2  0  0  0  0  0  0  0  0  0
   -1.4100   -0.1680    1.5502 C   0  0  0  0  0  0  0  0  0  0  0  0
   -1.5945    1.0055    1.8536 O   0  0  0  0  0  0  0  0  0  0  0  0
    1.0359    0.3178    1.5342 C   0  0  0  0  0  0  0  0  0  0  0  0
    2.5731    0.1873    1.3288 C   0  0  0  0  0  0  0  0  0  0  0  0
    3.1907    1.5125    1.8167 C   0  0  0  0  0  0  0  0  0  0  0  0
    3.0758    0.0404   -0.1159 C   0  0  0  0  0  0  0  0  0  0  0  0
   -0.9664   -0.3656   -0.8063 H   0  0  0  0  0  0  0  0  0  0  0  0
    0.1603   -1.6807    1.5733 H   0  0  0  0  0  0  0  0  0  0  0  0
    0.8901    0.4507    2.6122 H   0  0  0  0  0  0  0  0  0  0  0  0
    0.7617    1.2623    1.0500 H   0  0  0  0  0  0  0  0  0  0  0  0
    2.9521   -0.6455    1.9298 H   0  0  0  0  0  0  0  0  0  0  0  0
    2.8798    2.3484    1.1807 H   0  0  0  0  0  0  0  0  0  0  0  0
    4.2840    1.4558    1.8075 H   0  0  0  0  0  0  0  0  0  0  0  0
    2.8782    1.7251    2.8441 H   0  0  0  0  0  0  0  0  0  0  0  0
    3.1949   -1.0107   -0.3738 H   0  0  0  0  0  0  0  0  0  0  0  0
    4.0642    0.4932   -0.2438 H   0  0  0  0  0  0  0  0  0  0  0  0
    2.3941    0.5303   -0.8171 H   0  0  0  0  0  0  0  0  0  0  0  0
   -2.5081   -0.9972    1.3798 N   0  0  0  0  0  0  0  0  0  0  0  0
   -3.8169   -0.4705    0.9501 C   0  0  2  0  0  0  0  0  0  0  0  0
   -3.6879    0.3980   -0.3306 C   0  0  0  0  0  0  0  0  0  0  0  0
   -2.9135    0.0444   -1.2186 O   0  0  0  0  0  0  0  0  0  0  0  0
   -4.5428    0.2315    2.1111 C   0  0  0  0  0  0  0  0  0  0  0  0
   -2.2494   -1.8937    0.9742 H   0  0  0  0  0  0  0  0  0  0  0  0
   -4.4371   -1.3267    0.6686 H   0  0  0  0  0  0  0  0  0  0  0  0
   -4.0622    1.1796    2.3697 H   0  0  0  0  0  0  0  0  0  0  0  0
   -5.5834    0.4352    1.8408 H   0  0  0  0  0  0  0  0  0  0  0  0
   -4.5386   -0.4091    2.9983 H   0  0  0  0  0  0  0  0  0  0  0  0
   -4.4254    1.5547   -0.5054 N   0  0  0  0  0  0  0  0  0  0  0  0
   -4.2143    2.4646   -1.6250 C   0  0  0  0  0  0  0  0  0  0  0  0
   -4.9171    1.9039    0.3121 H   0  0  0  0  0  0  0  0  0  0  0  0
   -4.9338    3.2880   -1.5829 H   0  0  0  0  0  0  0  0  0  0  0  0
   -3.2029    2.8837   -1.5918 H   0  0  0  0  0  0  0  0  0  0  0  0
   -4.3481    1.9410   -2.5774 H   0  0  0  0  0  0  0  0  0  0  0  0
  1  2  2  0  0  0  0
  1  3  1  0  0  0  0
  1  7  1  0  0  0  0
  3  4  1  0  0  0  0
  3  5  1  0  0  0  0
  3  6  1  0  0  0  0
  7  8  1  0  0  0  0
  7 12  1  0  0  0  0
  8  9  1  0  0  0  0
  8 11  1  0  0  0  0
  8 13  1  0  0  0  0
  9 10  2  0  0  0  0
  9 17  1  0  0  0  0
 11 14  1  0  0  0  0
 11 15  1  0  0  0  0
 11 16  1  0  0  0  0
 17 18  1  0  0  0  0
 17 25  1  0  0  0  0
 18 19  1  0  0  0  0
 18 21  1  0  0  0  0
 18 26  1  0  0  0  0
 19 20  2  0  0  0  0
 19 36  1  0  0  0  0
 21 22  1  0  0  0  0
 21 27  1  0  0  0  0
 21 28  1  0  0  0  0
 22 23  1  0  0  0  0
 22 24  1  0  0  0  0
 22 29  1  0  0  0  0
 23 30  1  0  0  0  0
 23 31  1  0  0  0  0
 23 32  1  0  0  0  0
 24 33  1  0  0  0  0
 24 34  1  0  0  0  0
 24 35  1  0  0  0  0
 36 37  1  0  0  0  0
 36 41  1  0  0  0  0
 37 38  1  0  0  0  0
 37 40  1  0  0  0  0
 37 42  1  0  0  0  0
 38 39  2  0  0  0  0
 38 46  1  0  0  0  0
 40 43  1  0  0  0  0
 40 44  1  0  0  0  0
 40 45  1  0  0  0  0
 46 47  1  0  0  0  0
 46 48  1  0  0  0  0
 47 49  1  0  0  0  0
 47 50  1  0  0  0  0
 47 51  1  0  0  0  0
M  END
$$$$

  -OEChem-05262216553D

 51 50  0     1  0  0  0  0  0999 V2000
    2.8313   -0.6689   -3.8094 C   0  0  0  0  0  0  0  0  0  0  0  0
    2.6690    0.5401   -3.7625 O   0  0  0  0  0  0  0  0  0  0  0  0
    4.1778   -1.2355   -4.2191 C   0  0  0  0  0  0  0  0  0  0  0  0
    4.8609   -0.4265   -4.4934 H   0  0  0  0  0  0  0  0  0  0  0  0
    4.6125   -1.7979   -3.3888 H   0  0  0  0  0  0  0  0  0  0  0  0
    4.0576   -1.9006   -5.0778 H   0  0  0  0  0  0  0  0  0  0  0  0
    1.8115   -1.5312   -3.4639 N   0  0  0  0  0  0  0  0  0  0  0  0
    0.5951   -1.1004   -2.7588 C   0  0  2  0  0  0  0  0  0  0  0  0
    0.6694   -1.4344   -1.2548 C   0  0  0  0  0  0  0  0  0  0  0  0
    1.3548   -2.3698   -0.8553 O   0  0  0  0  0  0  0  0  0  0  0  0
   -0.5972   -1.8036   -3.4114 C   0  0  0  0  0  0  0  0  0  0  0  0
    2.0935   -2.4973   -3.3161 H   0  0  0  0  0  0  0  0  0  0  0  0
    0.4532   -0.0185   -2.8542 H   0  0  0  0  0  0  0  0  0  0  0  0
   -0.5075   -2.8895   -3.3066 H   0  0  0  0  0  0  0  0  0  0  0  0
   -1.5334   -1.4855   -2.9422 H   0  0  0  0  0  0  0  0  0  0  0  0
   -0.6457   -1.5569   -4.4765 H   0  0  0  0  0  0  0  0  0  0  0  0
   -0.2142   -0.8817   -0.3597 N   0  0  0  0  0  0  0  0  0  0  0  0
    0.0171   -0.6324    1.0758 C   0  0  2  0  0  0  0  0  0  0  0  0
   -1.3270   -0.0212    1.5440 C   0  0  0  0  0  0  0  0  0  0  0  0
   -1.5376    1.1865    1.5778 O   0  0  0  0  0  0  0  0  0  0  0  0
    1.1206    0.3898    1.5333 C   0  0  0  0  0  0  0  0  0  0  0  0
    2.6533    0.2163    1.3273 C   0  0  0  0  0  0  0  0  0  0  0  0
    3.3076    1.5264    1.8076 C   0  0  0  0  0  0  0  0  0  0  0  0
    3.1489    0.0475   -0.1183 C   0  0  0  0  0  0  0  0  0  0  0  0
   -0.9366   -0.2980   -0.7909 H   0  0  0  0  0  0  0  0  0  0  0  0
    0.1935   -1.5842    1.5860 H   0  0  0  0  0  0  0  0  0  0  0  0
    0.9742    0.5369    2.6091 H   0  0  0  0  0  0  0  0  0  0  0  0
    0.8758    1.3375    1.0405 H   0  0  0  0  0  0  0  0  0  0  0  0
    3.0111   -0.6233    1.9325 H   0  0  0  0  0  0  0  0  0  0  0  0
    3.0213    2.3669    1.1662 H   0  0  0  0  0  0  0  0  0  0  0  0
    4.3988    1.4385    1.7993 H   0  0  0  0  0  0  0  0  0  0  0  0
    3.0005    1.7542    2.8332 H   0  0  0  0  0  0  0  0  0  0  0  0
    3.2522   -1.0079   -0.3659 H   0  0  0  0  0  0  0  0  0  0  0  0
    4.1431    0.4847   -0.2552 H   0  0  0  0  0  0  0  0  0  0  0  0
    2.4719    0.5391   -0.8227 H   0  0  0  0  0  0  0  0  0  0  0  0
   -2.3910   -0.8974    1.6870 N   0  0  0  0  0  0  0  0  0  0  0  0
   -3.7672   -0.5017    1.3338 C   0  0  2  0  0  0  0  0  0  0  0  0
   -3.8468    0.1366   -0.0811 C   0  0  0  0  0  0  0  0  0  0  0  0
   -3.1521   -0.3156   -0.9893 O   0  0  0  0  0  0  0  0  0  0  0  0
   -4.3807    0.3689    2.4433 C   0  0  0  0  0  0  0  0  0  0  0  0
   -2.1407   -1.8556    1.4557 H   0  0  0  0  0  0  0  0  0  0  0  0
   -4.3677   -1.4147    1.2826 H   0  0  0  0  0  0  0  0  0  0  0  0
   -3.9145    1.3580    2.4767 H   0  0  0  0  0  0  0  0  0  0  0  0
   -5.4542    0.4978    2.2768 H   0  0  0  0  0  0  0  0  0  0  0  0
   -4.2411   -0.1107    3.4169 H   0  0  0  0  0  0  0  0  0  0  0  0
   -4.6969    1.1931   -0.3545 N   0  0  0  0  0  0  0  0  0  0  0  0
   -4.7003    1.8956   -1.6322 C   0  0  0  0  0  0  0  0  0  0  0  0
   -5.1250    1.6477    0.4466 H   0  0  0  0  0  0  0  0  0  0  0  0
   -5.4604    2.6827   -1.6288 H   0  0  0  0  0  0  0  0  0  0  0  0
   -3.7244    2.3564   -1.8188 H   0  0  0  0  0  0  0  0  0  0  0  0
   -4.9259    1.2037   -2.4506 H   0  0  0  0  0  0  0  0  0  0  0  0
  1  2  2  0  0  0  0
  1  3  1  0  0  0  0
  1  7  1  0  0  0  0
  3  4  1  0  0  0  0
  3  5  1  0  0  0  0
  3  6  1  0  0  0  0
  7  8  1  0  0  0  0
  7 12  1  0  0  0  0
  8  9  1  0  0  0  0
  8 11  1  0  0  0  0
  8 13  1  0  0  0  0
  9 10  2  0  0  0  0
  9 17  1  0  0  0  0
 11 14  1  0  0  0  0
 11 15  1  0  0  0  0
 11 16  1  0  0  0  0
 17 18  1  0  0  0  0
 17 25  1  0  0  0  0
 18 19  1  0  0  0  0
 18 21  1  0  0  0  0
 18 26  1  0  0  0  0
 19 20  2  0  0  0  0
 19 36  1  0  0  0  0
 21 22  1  0  0  0  0
 21 27  1  0  0  0  0
 21 28  1  0  0  0  0
 22 23  1  0  0  0  0
 22 24  1  0  0  0  0
 22 29  1  0  0  0  0
 23 30  1  0  0  0  0
 23 31  1  0  0  0  0
 23 32  1  0  0  0  0
 24 33  1  0  0  0  0
 24 34  1  0  0  0  0
 24 35  1  0  0  0  0
 36 37  1  0  0  0  0
 36 41  1  0  0  0  0
 37 38  1  0  0  0  0
 37 40  1  0  0  0  0
 37 42  1  0  0  0  0
 38 39  2  0  0  0  0
 38 46  1  0  0  0  0
 40 43  1  0  0  0  0
 40 44  1  0  0  0  0
 40 45  1  0  0  0  0
 46 47  1  0  0  0  0
 46 48  1  0  0  0  0
 47 49  1  0  0  0  0
 47 50  1  0  0  0  0
 47 51  1  0  0  0  0
M  END
$$$$

  -OEChem-05262216553D

 51 50  0     1  0  0  0  0  0999 V2000
    3.0857   -0.6631   -3.7279 C   0  0  0  0  0  0  0  0  0  0  0  0
    2.8590    0.5363   -3.7387 O   0  0  0  0  0  0  0  0  0  0  0  0
    4.4916   -1.1695   -3.9896 C   0  0  0  0  0  0  0  0  0  0  0  0
    5.1661   -0.3291   -4.1765 H   0  0  0  0  0  0  0  0  0  0  0  0
    4.8548   -1.7264   -3.1221 H   0  0  0  0  0  0  0  0  0  0  0  0
    4.4963   -1.8249   -4.8638 H   0  0  0  0  0  0  0  0  0  0  0  0
    2.0782   -1.5617   -3.4422 N   0  0  0  0  0  0  0  0  0  0  0  0
    0.7726   -1.1669   -2.8930 C   0  0  2  0  0  0  0  0  0  0  0  0
    0.6744   -1.4853   -1.3872 C   0  0  0  0  0  0  0  0  0  0  0  0
    1.2770   -2.4404   -0.9110 O   0  0  0  0  0  0  0  0  0  0  0  0
   -0.3083   -1.9169   -3.6746 C   0  0  0  0  0  0  0  0  0  0  0  0
    2.3822   -2.5124   -3.2426 H   0  0  0  0  0  0  0  0  0  0  0  0
    0.6071   -0.0916   -3.0190 H   0  0  0  0  0  0  0  0  0  0  0  0
   -0.1854   -2.9986   -3.5587 H   0  0  0  0  0  0  0  0  0  0  0  0
   -1.3038   -1.6397   -3.3145 H   0  0  0  0  0  0  0  0  0  0  0  0
   -0.2452   -1.6699   -4.7390 H   0  0  0  0  0  0  0  0  0  0  0  0
   -0.2779   -0.8900   -0.5930 N   0  0  0  0  0  0  0  0  0  0  0  0
   -0.1271   -0.6058    0.8460 C   0  0  2  0  0  0  0  0  0  0  0  0
   -1.4714    0.0427    1.2593 C   0  0  0  0  0  0  0  0  0  0  0  0
   -1.7265    1.2098    0.9825 O   0  0  0  0  0  0  0  0  0  0  0  0
    0.9582    0.4120    1.3531 C   0  0  0  0  0  0  0  0  0  0  0  0
    2.4975    0.2126    1.2484 C   0  0  0  0  0  0  0  0  0  0  0  0
    3.1401    1.5228    1.7428 C   0  0  0  0  0  0  0  0  0  0  0  0
    3.0784    0.0101   -0.1593 C   0  0  0  0  0  0  0  0  0  0  0  0
   -0.8277   -0.1920   -1.0908 H   0  0  0  0  0  0  0  0  0  0  0  0
    0.0131   -1.5502    1.3818 H   0  0  0  0  0  0  0  0  0  0  0  0
    0.7489    0.5791    2.4159 H   0  0  0  0  0  0  0  0  0  0  0  0
    0.7574    1.3558    0.8333 H   0  0  0  0  0  0  0  0  0  0  0  0
    2.8040   -0.6202    1.8901 H   0  0  0  0  0  0  0  0  0  0  0  0
    2.9099    2.3530    1.0665 H   0  0  0  0  0  0  0  0  0  0  0  0
    4.2280    1.4186    1.8075 H   0  0  0  0  0  0  0  0  0  0  0  0
    2.7708    1.7779    2.7410 H   0  0  0  0  0  0  0  0  0  0  0  0
    3.1595   -1.0504   -0.3924 H   0  0  0  0  0  0  0  0  0  0  0  0
    4.0943    0.4110   -0.2347 H   0  0  0  0  0  0  0  0  0  0  0  0
    2.4654    0.5188   -0.9086 H   0  0  0  0  0  0  0  0  0  0  0  0
   -2.4902   -0.7862    1.7013 N   0  0  0  0  0  0  0  0  0  0  0  0
   -3.8963   -0.4162    1.9700 C   0  0  2  0  0  0  0  0  0  0  0  0
   -4.7158   -0.0527    0.7101 C   0  0  0  0  0  0  0  0  0  0  0  0
   -5.7521   -0.6577    0.4708 O   0  0  0  0  0  0  0  0  0  0  0  0
   -3.9924    0.6919    3.0289 C   0  0  0  0  0  0  0  0  0  0  0  0
   -2.2585   -1.7757    1.7431 H   0  0  0  0  0  0  0  0  0  0  0  0
   -4.3793   -1.3012    2.3977 H   0  0  0  0  0  0  0  0  0  0  0  0
   -3.6253    1.6472    2.6430 H   0  0  0  0  0  0  0  0  0  0  0  0
   -5.0349    0.8277    3.3334 H   0  0  0  0  0  0  0  0  0  0  0  0
   -3.4056    0.4249    3.9130 H   0  0  0  0  0  0  0  0  0  0  0  0
   -4.2895    0.9256   -0.1657 N   0  0  0  0  0  0  0  0  0  0  0  0
   -5.0059    1.3115   -1.3731 C   0  0  0  0  0  0  0  0  0  0  0  0
   -3.4126    1.3954    0.0753 H   0  0  0  0  0  0  0  0  0  0  0  0
   -4.4532    2.0907   -1.9068 H   0  0  0  0  0  0  0  0  0  0  0  0
   -5.1228    0.4510   -2.0402 H   0  0  0  0  0  0  0  0  0  0  0  0
   -5.9981    1.7004   -1.1213 H   0  0  0  0  0  0  0  0  0  0  0  0
  1  2  2  0  0  0  0
  1  3  1  0  0  0  0
  1  7  1  0  0  0  0
  3  4  1  0  0  0  0
  3  5  1  0  0  0  0
  3  6  1  0  0  0  0
  7  8  1  0  0  0  0
  7 12  1  0  0  0  0
  8  9  1  0  0  0  0
  8 11  1  0  0  0  0
  8 13  1  0  0  0  0
  9 10  2  0  0  0  0
  9 17  1  0  0  0  0
 11 14  1  0  0  0  0
 11 15  1  0  0  0  0
 11 16  1  0  0  0  0
 17 18  1  0  0  0  0
 17 25  1  0  0  0  0
 18 19  1  0  0  0  0
 18 21  1  0  0  0  0
 18 26  1  0  0  0  0
 19 20  2  0  0  0  0
 19 36  1  0  0  0  0
 21 22  1  0  0  0  0
 21 27  1  0  0  0  0
 21 28  1  0  0  0  0
 22 23  1  0  0  0  0
 22 24  1  0  0  0  0
 22 29  1  0  0  0  0
 23 30  1  0  0  0  0
 23 31  1  0  0  0  0
 23 32  1  0  0  0  0
 24 33  1  0  0  0  0
 24 34  1  0  0  0  0
 24 35  1  0  0  0  0
 36 37  1  0  0  0  0
 36 41  1  0  0  0  0
 37 38  1  0  0  0  0
 37 40  1  0  0  0  0
 37 42  1  0  0  0  0
 38 39  2  0  0  0  0
 38 46  1  0  0  0  0
 40 43  1  0  0  0  0
 40 44  1  0  0  0  0
 40 45  1  0  0  0  0
 46 47  1  0  0  0  0
 46 48  1  0  0  0  0
 47 49  1  0  0  0  0
 47 50  1  0  0  0  0
 47 51  1  0  0  0  0
M  END
$$$$

  -OEChem-05262216553D

 51 50  0     1  0  0  0  0  0999 V2000
    3.1012   -0.7375   -3.7320 C   0  0  0  0  0  0  0  0  0  0  0  0
    2.9167    0.4693   -3.7352 O   0  0  0  0  0  0  0  0  0  0  0  0
    4.4867   -1.2910   -4.0046 C   0  0  0  0  0  0  0  0  0  0  0  0
    5.1811   -0.4752   -4.2241 H   0  0  0  0  0  0  0  0  0  0  0  0
    4.8498   -1.8366   -3.1301 H   0  0  0  0  0  0  0  0  0  0  0  0
    4.4567   -1.9677   -4.8620 H   0  0  0  0  0  0  0  0  0  0  0  0
    2.0647   -1.6031   -3.4486 N   0  0  0  0  0  0  0  0  0  0  0  0
    0.7757   -1.1668   -2.8925 C   0  0  2  0  0  0  0  0  0  0  0  0
    0.6742   -1.4832   -1.3866 C   0  0  0  0  0  0  0  0  0  0  0  0
    1.2644   -2.4456   -0.9090 O   0  0  0  0  0  0  0  0  0  0  0  0
   -0.3341   -1.8790   -3.6692 C   0  0  0  0  0  0  0  0  0  0  0  0
    2.3380   -2.5636   -3.2516 H   0  0  0  0  0  0  0  0  0  0  0  0
    0.6458   -0.0864   -3.0165 H   0  0  0  0  0  0  0  0  0  0  0  0
   -0.2516   -2.9642   -3.5500 H   0  0  0  0  0  0  0  0  0  0  0  0
   -1.3180   -1.5640   -3.3081 H   0  0  0  0  0  0  0  0  0  0  0  0
   -0.2638   -1.6378   -4.7344 H   0  0  0  0  0  0  0  0  0  0  0  0
   -0.2637   -0.8653   -0.5926 N   0  0  0  0  0  0  0  0  0  0  0  0
   -0.1149   -0.5978    0.8487 C   0  0  2  0  0  0  0  0  0  0  0  0
   -1.4373    0.0887    1.2632 C   0  0  0  0  0  0  0  0  0  0  0  0
   -1.7508    1.1714    0.7787 O   0  0  0  0  0  0  0  0  0  0  0  0
    0.9760    0.4048    1.3686 C   0  0  0  0  0  0  0  0  0  0  0  0
    2.5125    0.1892    1.2628 C   0  0  0  0  0  0  0  0  0  0  0  0
    3.1733    1.4853    1.7708 C   0  0  0  0  0  0  0  0  0  0  0  0
    3.0868   -0.0070   -0.1485 C   0  0  0  0  0  0  0  0  0  0  0  0
   -0.7978   -0.1502   -1.0843 H   0  0  0  0  0  0  0  0  0  0  0  0
    0.0036   -1.5489    1.3774 H   0  0  0  0  0  0  0  0  0  0  0  0
    0.7685    0.5620    2.4330 H   0  0  0  0  0  0  0  0  0  0  0  0
    0.7813    1.3563    0.8604 H   0  0  0  0  0  0  0  0  0  0  0  0
    2.8089   -0.6544    1.8952 H   0  0  0  0  0  0  0  0  0  0  0  0
    2.9483    2.3268    1.1069 H   0  0  0  0  0  0  0  0  0  0  0  0
    4.2604    1.3677    1.8272 H   0  0  0  0  0  0  0  0  0  0  0  0
    2.8137    1.7309    2.7749 H   0  0  0  0  0  0  0  0  0  0  0  0
    3.1568   -1.0665   -0.3894 H   0  0  0  0  0  0  0  0  0  0  0  0
    4.1061    0.3849   -0.2239 H   0  0  0  0  0  0  0  0  0  0  0  0
    2.4758    0.5126   -0.8923 H   0  0  0  0  0  0  0  0  0  0  0  0
   -2.3725   -0.6374    1.9826 N   0  0  0  0  0  0  0  0  0  0  0  0
   -3.7448   -0.2231    2.3424 C   0  0  2  0  0  0  0  0  0  0  0  0
   -4.7184   -0.1174    1.1459 C   0  0  0  0  0  0  0  0  0  0  0  0
   -5.7496   -0.7762    1.1480 O   0  0  0  0  0  0  0  0  0  0  0  0
   -3.7398    1.0738    3.1643 C   0  0  0  0  0  0  0  0  0  0  0  0
   -2.1069   -1.5928    2.2071 H   0  0  0  0  0  0  0  0  0  0  0  0
   -4.1511   -1.0049    2.9927 H   0  0  0  0  0  0  0  0  0  0  0  0
   -3.4352    1.9310    2.5570 H   0  0  0  0  0  0  0  0  0  0  0  0
   -4.7432    1.2736    3.5536 H   0  0  0  0  0  0  0  0  0  0  0  0
   -3.0524    0.9845    4.0105 H   0  0  0  0  0  0  0  0  0  0  0  0
   -4.4408    0.6977    0.0670 N   0  0  0  0  0  0  0  0  0  0  0  0
   -5.2956    0.8257   -1.1044 C   0  0  0  0  0  0  0  0  0  0  0  0
   -3.5454    1.1923    0.0962 H   0  0  0  0  0  0  0  0  0  0  0  0
   -4.8795    1.5656   -1.7948 H   0  0  0  0  0  0  0  0  0  0  0  0
   -5.3741   -0.1328   -1.6274 H   0  0  0  0  0  0  0  0  0  0  0  0
   -6.2990    1.1521   -0.8121 H   0  0  0  0  0  0  0  0  0  0  0  0
  1  2  2  0  0  0  0
  1  3  1  0  0  0  0
  1  7  1  0  0  0  0
  3  4  1  0  0  0  0
  3  5  1  0  0  0  0
  3  6  1  0  0  0  0
  7  8  1  0  0  0  0
  7 12  1  0  0  0  0
  8  9  1  0  0  0  0
  8 11  1  0  0  0  0
  8 13  1  0  0  0  0
  9 10  2  0  0  0  0
  9 17  1  0  0  0  0
 11 14  1  0  0  0  0
 11 15  1  0  0  0  0
 11 16  1  0  0  0  0
 17 18  1  0  0  0  0
 17 25  1  0  0  0  0
 18 19  1  0  0  0  0
 18 21  1  0  0  0  0
 18 26  1  0  0  0  0
 19 20  2  0  0  0  0
 19 36  1  0  0  0  0
 21 22  1  0  0  0  0
 21 27  1  0  0  0  0
 21 28  1  0  0  0  0
 22 23  1  0  0  0  0
 22 24  1  0  0  0  0
 22 29  1  0  0  0  0
 23 30  1  0  0  0  0
 23 31  1  0  0  0  0
 23 32  1  0  0  0  0
 24 33  1  0  0  0  0
 24 34  1  0  0  0  0
 24 35  1  0  0  0  0
 36 37  1  0  0  0  0
 36 41  1  0  0  0  0
 37 38  1  0  0  0  0
 37 40  1  0  0  0  0
 37 42  1  0  0  0  0
 38 39  2  0  0  0  0
 38 46  1  0  0  0  0
 40 43  1  0  0  0  0
 40 44  1  0  0  0  0
 40 45  1  0  0  0  0
 46 47  1  0  0  0  0
 46 48  1  0  0  0  0
 47 49  1  0  0  0  0
 47 50  1  0  0  0  0
 47 51  1  0  0  0  0
M  END
$$$$

  -OEChem-05262216553D

 51 50  0     1  0  0  0  0  0999 V2000
    3.1360   -0.8071   -3.7417 C   0  0  0  0  0  0  0  0  0  0  0  0
    2.9861    0.4043   -3.7329 O   0  0  0  0  0  0  0  0  0  0  0  0
    4.4999   -1.3983   -4.0435 C   0  0  0  0  0  0  0  0  0  0  0  0
    5.2079   -0.6031   -4.2937 H   0  0  0  0  0  0  0  0  0  0  0  0
    4.8721   -1.9409   -3.1710 H   0  0  0  0  0  0  0  0  0  0  0  0
    4.4312   -2.0859   -4.8900 H   0  0  0  0  0  0  0  0  0  0  0  0
    2.0791   -1.6449   -3.4510 N   0  0  0  0  0  0  0  0  0  0  0  0
    0.8027   -1.1760   -2.8926 C   0  0  2  0  0  0  0  0  0  0  0  0
    0.6945   -1.4790   -1.3844 C   0  0  0  0  0  0  0  0  0  0  0  0
    1.2789   -2.4404   -0.8974 O   0  0  0  0  0  0  0  0  0  0  0  0
   -0.3228   -1.8705   -3.6623 C   0  0  0  0  0  0  0  0  0  0  0  0
    2.3261   -2.6136   -3.2610 H   0  0  0  0  0  0  0  0  0  0  0  0
    0.6961   -0.0940   -3.0243 H   0  0  0  0  0  0  0  0  0  0  0  0
   -0.2664   -2.9555   -3.5277 H   0  0  0  0  0  0  0  0  0  0  0  0
   -1.2990   -1.5264   -3.3069 H   0  0  0  0  0  0  0  0  0  0  0  0
   -0.2456   -1.6461   -4.7308 H   0  0  0  0  0  0  0  0  0  0  0  0
   -0.2399   -0.8448   -0.5986 N   0  0  0  0  0  0  0  0  0  0  0  0
   -0.1084   -0.5839    0.8453 C   0  0  2  0  0  0  0  0  0  0  0  0
   -1.4193    0.1293    1.2518 C   0  0  0  0  0  0  0  0  0  0  0  0
   -1.8106    1.1007    0.6111 O   0  0  0  0  0  0  0  0  0  0  0  0
    0.9797    0.4149    1.3742 C   0  0  0  0  0  0  0  0  0  0  0  0
    2.5163    0.1938    1.2792 C   0  0  0  0  0  0  0  0  0  0  0  0
    3.1772    1.4872    1.7930 C   0  0  0  0  0  0  0  0  0  0  0  0
    3.1011   -0.0044   -0.1279 C   0  0  0  0  0  0  0  0  0  0  0  0
   -0.7724   -0.1292   -1.0924 H   0  0  0  0  0  0  0  0  0  0  0  0
   -0.0086   -1.5378    1.3729 H   0  0  0  0  0  0  0  0  0  0  0  0
    0.7676    0.5685    2.4384 H   0  0  0  0  0  0  0  0  0  0  0  0
    0.7870    1.3687    0.8688 H   0  0  0  0  0  0  0  0  0  0  0  0
    2.8059   -0.6511    1.9132 H   0  0  0  0  0  0  0  0  0  0  0  0
    2.9606    2.3300    1.1278 H   0  0  0  0  0  0  0  0  0  0  0  0
    4.2634    1.3660    1.8579 H   0  0  0  0  0  0  0  0  0  0  0  0
    2.8102    1.7331    2.7943 H   0  0  0  0  0  0  0  0  0  0  0  0
    3.1734   -1.0645   -0.3660 H   0  0  0  0  0  0  0  0  0  0  0  0
    4.1210    0.3879   -0.1967 H   0  0  0  0  0  0  0  0  0  0  0  0
    2.4955    0.5132   -0.8774 H   0  0  0  0  0  0  0  0  0  0  0  0
   -2.2396   -0.4455    2.2093 N   0  0  0  0  0  0  0  0  0  0  0  0
   -3.5650    0.0324    2.6573 C   0  0  2  0  0  0  0  0  0  0  0  0
   -4.6887   -0.0812    1.6008 C   0  0  0  0  0  0  0  0  0  0  0  0
   -5.7152   -0.6869    1.8783 O   0  0  0  0  0  0  0  0  0  0  0  0
   -3.4817    1.4598    3.2168 C   0  0  0  0  0  0  0  0  0  0  0  0
   -1.9074   -1.3207    2.6058 H   0  0  0  0  0  0  0  0  0  0  0  0
   -3.8686   -0.6135    3.4878 H   0  0  0  0  0  0  0  0  0  0  0  0
   -3.2742    2.1870    2.4263 H   0  0  0  0  0  0  0  0  0  0  0  0
   -4.4317    1.7322    3.6877 H   0  0  0  0  0  0  0  0  0  0  0  0
   -2.6906    1.5278    3.9697 H   0  0  0  0  0  0  0  0  0  0  0  0
   -4.5578    0.4867    0.3496 N   0  0  0  0  0  0  0  0  0  0  0  0
   -5.5710    0.4110   -0.6933 C   0  0  0  0  0  0  0  0  0  0  0  0
   -3.6707    0.9604    0.1606 H   0  0  0  0  0  0  0  0  0  0  0  0
   -5.2423    0.9620   -1.5797 H   0  0  0  0  0  0  0  0  0  0  0  0
   -5.7495   -0.6310   -0.9783 H   0  0  0  0  0  0  0  0  0  0  0  0
   -6.5122    0.8483   -0.3441 H   0  0  0  0  0  0  0  0  0  0  0  0
  1  2  2  0  0  0  0
  1  3  1  0  0  0  0
  1  7  1  0  0  0  0
  3  4  1  0  0  0  0
  3  5  1  0  0  0  0
  3  6  1  0  0  0  0
  7  8  1  0  0  0  0
  7 12  1  0  0  0  0
  8  9  1  0  0  0  0
  8 11  1  0  0  0  0
  8 13  1  0  0  0  0
  9 10  2  0  0  0  0
  9 17  1  0  0  0  0
 11 14  1  0  0  0  0
 11 15  1  0  0  0  0
 11 16  1  0  0  0  0
 17 18  1  0  0  0  0
 17 25  1  0  0  0  0
 18 19  1  0  0  0  0
 18 21  1  0  0  0  0
 18 26  1  0  0  0  0
 19 20  2  0  0  0  0
 19 36  1  0  0  0  0
 21 22  1  0  0  0  0
 21 27  1  0  0  0  0
 21 28  1  0  0  0  0
 22 23  1  0  0  0  0
 22 24  1  0  0  0  0
 22 29  1  0  0  0  0
 23 30  1  0  0  0  0
 23 31  1  0  0  0  0
 23 32  1  0  0  0  0
 24 33  1  0  0  0  0
 24 34  1  0  0  0  0
 24 35  1  0  0  0  0
 36 37  1  0  0  0  0
 36 41  1  0  0  0  0
 37 38  1  0  0  0  0
 37 40  1  0  0  0  0
 37 42  1  0  0  0  0
 38 39  2  0  0  0  0
 38 46  1  0  0  0  0
 40 43  1  0  0  0  0
 40 44  1  0  0  0  0
 40 45  1  0  0  0  0
 46 47  1  0  0  0  0
 46 48  1  0  0  0  0
 47 49  1  0  0  0  0
 47 50  1  0  0  0  0
 47 51  1  0  0  0  0
M  END
$$$$

  -OEChem-05262216553D

 51 50  0     1  0  0  0  0  0999 V2000
    3.1435   -0.8477   -3.7322 C   0  0  0  0  0  0  0  0  0  0  0  0
    2.9971    0.3642   -3.7443 O   0  0  0  0  0  0  0  0  0  0  0  0
    4.5096   -1.4467   -4.0088 C   0  0  0  0  0  0  0  0  0  0  0  0
    5.2318   -0.6550   -4.2275 H   0  0  0  0  0  0  0  0  0  0  0  0
    4.8547   -2.0069   -3.1363 H   0  0  0  0  0  0  0  0  0  0  0  0
    4.4550   -2.1198   -4.8679 H   0  0  0  0  0  0  0  0  0  0  0  0
    2.0808   -1.6783   -3.4417 N   0  0  0  0  0  0  0  0  0  0  0  0
    0.8042   -1.1965   -2.8947 C   0  0  2  0  0  0  0  0  0  0  0  0
    0.6909   -1.4821   -1.3833 C   0  0  0  0  0  0  0  0  0  0  0  0
    1.2706   -2.4396   -0.8829 O   0  0  0  0  0  0  0  0  0  0  0  0
   -0.3232   -1.8900   -3.6625 C   0  0  0  0  0  0  0  0  0  0  0  0
    2.3240   -2.6443   -3.2334 H   0  0  0  0  0  0  0  0  0  0  0  0
    0.7044   -0.1155   -3.0384 H   0  0  0  0  0  0  0  0  0  0  0  0
   -0.2798   -2.9738   -3.5133 H   0  0  0  0  0  0  0  0  0  0  0  0
   -1.2981   -1.5302   -3.3188 H   0  0  0  0  0  0  0  0  0  0  0  0
   -0.2359   -1.6805   -4.7334 H   0  0  0  0  0  0  0  0  0  0  0  0
   -0.2335   -0.8259   -0.6041 N   0  0  0  0  0  0  0  0  0  0  0  0
   -0.1098   -0.5610    0.8401 C   0  0  2  0  0  0  0  0  0  0  0  0
   -1.4056    0.1824    1.2436 C   0  0  0  0  0  0  0  0  0  0  0  0
   -1.8863    1.0235    0.4885 O   0  0  0  0  0  0  0  0  0  0  0  0
    0.9839    0.4339    1.3645 C   0  0  0  0  0  0  0  0  0  0  0  0
    2.5188    0.2013    1.2739 C   0  0  0  0  0  0  0  0  0  0  0  0
    3.1884    1.4933    1.7804 C   0  0  0  0  0  0  0  0  0  0  0  0
    3.1024   -0.0092   -0.1321 C   0  0  0  0  0  0  0  0  0  0  0  0
   -0.7715   -0.1167   -1.1021 H   0  0  0  0  0  0  0  0  0  0  0  0
   -0.0269   -1.5130    1.3740 H   0  0  0  0  0  0  0  0  0  0  0  0
    0.7741    0.5949    2.4282 H   0  0  0  0  0  0  0  0  0  0  0  0
    0.7950    1.3860    0.8537 H   0  0  0  0  0  0  0  0  0  0  0  0
    2.8008   -0.6419    1.9131 H   0  0  0  0  0  0  0  0  0  0  0  0
    2.9826    2.3328    1.1076 H   0  0  0  0  0  0  0  0  0  0  0  0
    4.2731    1.3622    1.8515 H   0  0  0  0  0  0  0  0  0  0  0  0
    2.8194    1.7512    2.7781 H   0  0  0  0  0  0  0  0  0  0  0  0
    3.1755   -1.0715   -0.3605 H   0  0  0  0  0  0  0  0  0  0  0  0
    4.1212    0.3844   -0.2069 H   0  0  0  0  0  0  0  0  0  0  0  0
    2.4949    0.5000   -0.8856 H   0  0  0  0  0  0  0  0  0  0  0  0
   -2.0806   -0.1872    2.3963 N   0  0  0  0  0  0  0  0  0  0  0  0
   -3.3520    0.3698    2.9049 C   0  0  2  0  0  0  0  0  0  0  0  0
   -4.5916    0.0429    2.0405 C   0  0  0  0  0  0  0  0  0  0  0  0
   -5.5543   -0.5098    2.5552 O   0  0  0  0  0  0  0  0  0  0  0  0
   -3.2388    1.8809    3.1532 C   0  0  0  0  0  0  0  0  0  0  0  0
   -1.6758   -0.9612    2.9162 H   0  0  0  0  0  0  0  0  0  0  0  0
   -3.5339   -0.0958    3.8793 H   0  0  0  0  0  0  0  0  0  0  0  0
   -3.1549    2.4345    2.2136 H   0  0  0  0  0  0  0  0  0  0  0  0
   -4.1282    2.2410    3.6802 H   0  0  0  0  0  0  0  0  0  0  0  0
   -2.3603    2.1011    3.7671 H   0  0  0  0  0  0  0  0  0  0  0  0
   -4.6298    0.3529    0.6960 N   0  0  0  0  0  0  0  0  0  0  0  0
   -5.7442    0.0350   -0.1854 C   0  0  0  0  0  0  0  0  0  0  0  0
   -3.7836    0.7771    0.3076 H   0  0  0  0  0  0  0  0  0  0  0  0
   -5.5515    0.4225   -1.1904 H   0  0  0  0  0  0  0  0  0  0  0  0
   -5.8826   -1.0491   -0.2520 H   0  0  0  0  0  0  0  0  0  0  0  0
   -6.6689    0.4874    0.1879 H   0  0  0  0  0  0  0  0  0  0  0  0
  1  2  2  0  0  0  0
  1  3  1  0  0  0  0
  1  7  1  0  0  0  0
  3  4  1  0  0  0  0
  3  5  1  0  0  0  0
  3  6  1  0  0  0  0
  7  8  1  0  0  0  0
  7 12  1  0  0  0  0
  8  9  1  0  0  0  0
  8 11  1  0  0  0  0
  8 13  1  0  0  0  0
  9 10  2  0  0  0  0
  9 17  1  0  0  0  0
 11 14  1  0  0  0  0
 11 15  1  0  0  0  0
 11 16  1  0  0  0  0
 17 18  1  0  0  0  0
 17 25  1  0  0  0  0
 18 19  1  0  0  0  0
 18 21  1  0  0  0  0
 18 26  1  0  0  0  0
 19 20  2  0  0  0  0
 19 36  1  0  0  0  0
 21 22  1  0  0  0  0
 21 27  1  0  0  0  0
 21 28  1  0  0  0  0
 22 23  1  0  0  0  0
 22 24  1  0  0  0  0
 22 29  1  0  0  0  0
 23 30  1  0  0  0  0
 23 31  1  0  0  0  0
 23 32  1  0  0  0  0
 24 33  1  0  0  0  0
 24 34  1  0  0  0  0
 24 35  1  0  0  0  0
 36 37  1  0  0  0  0
 36 41  1  0  0  0  0
 37 38  1  0  0  0  0
 37 40  1  0  0  0  0
 37 42  1  0  0  0  0
 38 39  2  0  0  0  0
 38 46  1  0  0  0  0
 40 43  1  0  0  0  0
 40 44  1  0  0  0  0
 40 45  1  0  0  0  0
 46 47  1  0  0  0  0
 46 48  1  0  0  0  0
 47 49  1  0  0  0  0
 47 50  1  0  0  0  0
 47 51  1  0  0  0  0
M  END
$$$$

  -OEChem-05262216553D

 51 50  0     1  0  0  0  0  0999 V2000
    3.1578   -0.8769   -3.7196 C   0  0  0  0  0  0  0  0  0  0  0  0
    3.0183    0.3358   -3.7368 O   0  0  0  0  0  0  0  0  0  0  0  0
    4.5227   -1.4852   -3.9789 C   0  0  0  0  0  0  0  0  0  0  0  0
    5.2461   -0.7009   -4.2184 H   0  0  0  0  0  0  0  0  0  0  0  0
    4.8659   -2.0226   -3.0914 H   0  0  0  0  0  0  0  0  0  0  0  0
    4.4674   -2.1807   -4.8198 H   0  0  0  0  0  0  0  0  0  0  0  0
    2.0887   -1.7014   -3.4363 N   0  0  0  0  0  0  0  0  0  0  0  0
    0.8108   -1.2119   -2.8996 C   0  0  2  0  0  0  0  0  0  0  0  0
    0.6948   -1.4778   -1.3850 C   0  0  0  0  0  0  0  0  0  0  0  0
    1.2646   -2.4358   -0.8742 O   0  0  0  0  0  0  0  0  0  0  0  0
   -0.3151   -1.9178   -3.6578 C   0  0  0  0  0  0  0  0  0  0  0  0
    2.3271   -2.6668   -3.2200 H   0  0  0  0  0  0  0  0  0  0  0  0
    0.7110   -0.1330   -3.0592 H   0  0  0  0  0  0  0  0  0  0  0  0
   -0.2622   -3.0005   -3.5039 H   0  0  0  0  0  0  0  0  0  0  0  0
   -1.2905   -1.5644   -3.3094 H   0  0  0  0  0  0  0  0  0  0  0  0
   -0.2360   -1.7123   -4.7299 H   0  0  0  0  0  0  0  0  0  0  0  0
   -0.2236   -0.8039   -0.6138 N   0  0  0  0  0  0  0  0  0  0  0  0
   -0.1141   -0.5355    0.8313 C   0  0  2  0  0  0  0  0  0  0  0  0
   -1.4006    0.2337    1.2277 C   0  0  0  0  0  0  0  0  0  0  0  0
   -1.9847    0.9246    0.3964 O   0  0  0  0  0  0  0  0  0  0  0  0
    0.9919    0.4522    1.3464 C   0  0  0  0  0  0  0  0  0  0  0  0
    2.5257    0.2050    1.2644 C   0  0  0  0  0  0  0  0  0  0  0  0
    3.2033    1.4980    1.7584 C   0  0  0  0  0  0  0  0  0  0  0  0
    3.1171   -0.0257   -0.1354 C   0  0  0  0  0  0  0  0  0  0  0  0
   -0.7710   -0.1060   -1.1183 H   0  0  0  0  0  0  0  0  0  0  0  0
   -0.0497   -1.4851    1.3718 H   0  0  0  0  0  0  0  0  0  0  0  0
    0.7858    0.6294    2.4079 H   0  0  0  0  0  0  0  0  0  0  0  0
    0.8122    1.3989    0.8231 H   0  0  0  0  0  0  0  0  0  0  0  0
    2.7986   -0.6326    1.9153 H   0  0  0  0  0  0  0  0  0  0  0  0
    3.0030    2.3314    1.0766 H   0  0  0  0  0  0  0  0  0  0  0  0
    4.2872    1.3618    1.8313 H   0  0  0  0  0  0  0  0  0  0  0  0
    2.8354    1.7686    2.7530 H   0  0  0  0  0  0  0  0  0  0  0  0
    3.1793   -1.0904   -0.3548 H   0  0  0  0  0  0  0  0  0  0  0  0
    4.1416    0.3537   -0.2051 H   0  0  0  0  0  0  0  0  0  0  0  0
    2.5223    0.4850   -0.8979 H   0  0  0  0  0  0  0  0  0  0  0  0
   -1.9180    0.1029    2.5076 N   0  0  0  0  0  0  0  0  0  0  0  0
   -3.1314    0.7483    3.0529 C   0  0  2  0  0  0  0  0  0  0  0  0
   -4.4604    0.2600    2.4306 C   0  0  0  0  0  0  0  0  0  0  0  0
   -5.3483   -0.1556    3.1629 O   0  0  0  0  0  0  0  0  0  0  0  0
   -3.0277    2.2789    2.9898 C   0  0  0  0  0  0  0  0  0  0  0  0
   -1.4256   -0.5429    3.1191 H   0  0  0  0  0  0  0  0  0  0  0  0
   -3.1810    0.4806    4.1135 H   0  0  0  0  0  0  0  0  0  0  0  0
   -3.0768    2.6402    1.9585 H   0  0  0  0  0  0  0  0  0  0  0  0
   -3.8538    2.7321    3.5471 H   0  0  0  0  0  0  0  0  0  0  0  0
   -2.0858    2.6159    3.4328 H   0  0  0  0  0  0  0  0  0  0  0  0
   -4.6638    0.2773    1.0653 N   0  0  0  0  0  0  0  0  0  0  0  0
   -5.8784   -0.1924    0.4133 C   0  0  0  0  0  0  0  0  0  0  0  0
   -3.8800    0.6082    0.4967 H   0  0  0  0  0  0  0  0  0  0  0  0
   -5.8010   -0.0581   -0.6698 H   0  0  0  0  0  0  0  0  0  0  0  0
   -6.0373   -1.2558    0.6205 H   0  0  0  0  0  0  0  0  0  0  0  0
   -6.7471    0.3707    0.7700 H   0  0  0  0  0  0  0  0  0  0  0  0
  1  2  2  0  0  0  0
  1  3  1  0  0  0  0
  1  7  1  0  0  0  0
  3  4  1  0  0  0  0
  3  5  1  0  0  0  0
  3  6  1  0  0  0  0
  7  8  1  0  0  0  0
  7 12  1  0  0  0  0
  8  9  1  0  0  0  0
  8 11  1  0  0  0  0
  8 13  1  0  0  0  0
  9 10  2  0  0  0  0
  9 17  1  0  0  0  0
 11 14  1  0  0  0  0
 11 15  1  0  0  0  0
 11 16  1  0  0  0  0
 17 18  1  0  0  0  0
 17 25  1  0  0  0  0
 18 19  1  0  0  0  0
 18 21  1  0  0  0  0
 18 26  1  0  0  0  0
 19 20  2  0  0  0  0
 19 36  1  0  0  0  0
 21 22  1  0  0  0  0
 21 27  1  0  0  0  0
 21 28  1  0  0  0  0
 22 23  1  0  0  0  0
 22 24  1  0  0  0  0
 22 29  1  0  0  0  0
 23 30  1  0  0  0  0
 23 31  1  0  0  0  0
 23 32  1  0  0  0  0
 24 33  1  0  0  0  0
 24 34  1  0  0  0  0
 24 35  1  0  0  0  0
 36 37  1  0  0  0  0
 36 41  1  0  0  0  0
 37 38  1  0  0  0  0
 37 40  1  0  0  0  0
 37 42  1  0  0  0  0
 38 39  2  0  0  0  0
 38 46  1  0  0  0  0
 40 43  1  0  0  0  0
 40 44  1  0  0  0  0
 40 45  1  0  0  0  0
 46 47  1  0  0  0  0
 46 48  1  0  0  0  0
 47 49  1  0  0  0  0
 47 50  1  0  0  0  0
 47 51  1  0  0  0  0
M  END
$$$$

  -OEChem-05262216553D

 51 50  0     1  0  0  0  0  0999 V2000
    3.1479   -0.8660   -3.7155 C   0  0  0  0  0  0  0  0  0  0  0  0
    3.0015    0.3460   -3.7165 O   0  0  0  0  0  0  0  0  0  0  0  0
    4.5201   -1.4628   -3.9640 C   0  0  0  0  0  0  0  0  0  0  0  0
    5.2500   -0.6685   -4.1449 H   0  0  0  0  0  0  0  0  0  0  0  0
    4.8385   -2.0414   -3.0932 H   0  0  0  0  0  0  0  0  0  0  0  0
    4.4885   -2.1185   -4.8376 H   0  0  0  0  0  0  0  0  0  0  0  0
    2.0813   -1.7004   -3.4524 N   0  0  0  0  0  0  0  0  0  0  0  0
    0.8012   -1.2235   -2.9099 C   0  0  2  0  0  0  0  0  0  0  0  0
    0.7030   -1.4718   -1.3910 C   0  0  0  0  0  0  0  0  0  0  0  0
    1.2759   -2.4265   -0.8777 O   0  0  0  0  0  0  0  0  0  0  0  0
   -0.3198   -1.9565   -3.6494 C   0  0  0  0  0  0  0  0  0  0  0  0
    2.3241   -2.6674   -3.2490 H   0  0  0  0  0  0  0  0  0  0  0  0
    0.6837   -0.1485   -3.0831 H   0  0  0  0  0  0  0  0  0  0  0  0
   -0.2539   -3.0354   -3.4750 H   0  0  0  0  0  0  0  0  0  0  0  0
   -1.2975   -1.6072   -3.3032 H   0  0  0  0  0  0  0  0  0  0  0  0
   -0.2482   -1.7711   -4.7258 H   0  0  0  0  0  0  0  0  0  0  0  0
   -0.2089   -0.7914   -0.6182 N   0  0  0  0  0  0  0  0  0  0  0  0
   -0.1129   -0.5275    0.8294 C   0  0  2  0  0  0  0  0  0  0  0  0
   -1.3983    0.2576    1.2150 C   0  0  0  0  0  0  0  0  0  0  0  0
   -2.0891    0.7790    0.3424 O   0  0  0  0  0  0  0  0  0  0  0  0
    1.0074    0.4500    1.3430 C   0  0  0  0  0  0  0  0  0  0  0  0
    2.5398    0.1893    1.2689 C   0  0  0  0  0  0  0  0  0  0  0  0
    3.2242    1.4802    1.7607 C   0  0  0  0  0  0  0  0  0  0  0  0
    3.1377   -0.0456   -0.1276 C   0  0  0  0  0  0  0  0  0  0  0  0
   -0.7878   -0.1198   -1.1237 H   0  0  0  0  0  0  0  0  0  0  0  0
   -0.0652   -1.4772    1.3719 H   0  0  0  0  0  0  0  0  0  0  0  0
    0.8100    0.6323    2.4043 H   0  0  0  0  0  0  0  0  0  0  0  0
    0.8369    1.3968    0.8167 H   0  0  0  0  0  0  0  0  0  0  0  0
    2.8041   -0.6488    1.9225 H   0  0  0  0  0  0  0  0  0  0  0  0
    3.0301    2.3134    1.0768 H   0  0  0  0  0  0  0  0  0  0  0  0
    4.3072    1.3384    1.8369 H   0  0  0  0  0  0  0  0  0  0  0  0
    2.8563    1.7554    2.7541 H   0  0  0  0  0  0  0  0  0  0  0  0
    3.1995   -1.1109   -0.3439 H   0  0  0  0  0  0  0  0  0  0  0  0
    4.1633    0.3315   -0.1945 H   0  0  0  0  0  0  0  0  0  0  0  0
    2.5475    0.4646   -0.8941 H   0  0  0  0  0  0  0  0  0  0  0  0
   -1.7678    0.3883    2.5460 N   0  0  0  0  0  0  0  0  0  0  0  0
   -2.9132    1.1496    3.0890 C   0  0  2  0  0  0  0  0  0  0  0  0
   -4.3041    0.5713    2.7385 C   0  0  0  0  0  0  0  0  0  0  0  0
   -5.1001    0.3380    3.6383 O   0  0  0  0  0  0  0  0  0  0  0  0
   -2.8250    2.6353    2.7115 C   0  0  0  0  0  0  0  0  0  0  0  0
   -1.1849   -0.1063    3.2159 H   0  0  0  0  0  0  0  0  0  0  0  0
   -2.8356    1.0982    4.1800 H   0  0  0  0  0  0  0  0  0  0  0  0
   -3.0066    2.7874    1.6437 H   0  0  0  0  0  0  0  0  0  0  0  0
   -3.5746    3.2073    3.2674 H   0  0  0  0  0  0  0  0  0  0  0  0
   -1.8356    3.0323    2.9571 H   0  0  0  0  0  0  0  0  0  0  0  0
   -4.6642    0.3052    1.4327 N   0  0  0  0  0  0  0  0  0  0  0  0
   -5.9433   -0.2687    1.0386 C   0  0  0  0  0  0  0  0  0  0  0  0
   -3.9529    0.4924    0.7212 H   0  0  0  0  0  0  0  0  0  0  0  0
   -6.0047   -0.3404   -0.0514 H   0  0  0  0  0  0  0  0  0  0  0  0
   -6.0580   -1.2728    1.4597 H   0  0  0  0  0  0  0  0  0  0  0  0
   -6.7692    0.3583    1.3906 H   0  0  0  0  0  0  0  0  0  0  0  0
  1  2  2  0  0  0  0
  1  3  1  0  0  0  0
  1  7  1  0  0  0  0
  3  4  1  0  0  0  0
  3  5  1  0  0  0  0
  3  6  1  0  0  0  0
  7  8  1  0  0  0  0
  7 12  1  0  0  0  0
  8  9  1  0  0  0  0
  8 11  1  0  0  0  0
  8 13  1  0  0  0  0
  9 10  2  0  0  0  0
  9 17  1  0  0  0  0
 11 14  1  0  0  0  0
 11 15  1  0  0  0  0
 11 16  1  0  0  0  0
 17 18  1  0  0  0  0
 17 25  1  0  0  0  0
 18 19  1  0  0  0  0
 18 21  1  0  0  0  0
 18 26  1  0  0  0  0
 19 20  2  0  0  0  0
 19 36  1  0  0  0  0
 21 22  1  0  0  0  0
 21 27  1  0  0  0  0
 21 28  1  0  0  0  0
 22 23  1  0  0  0  0
 22 24  1  0  0  0  0
 22 29  1  0  0  0  0
 23 30  1  0  0  0  0
 23 31  1  0  0  0  0
 23 32  1  0  0  0  0
 24 33  1  0  0  0  0
 24 34  1  0  0  0  0
 24 35  1  0  0  0  0
 36 37  1  0  0  0  0
 36 41  1  0  0  0  0
 37 38  1  0  0  0  0
 37 40  1  0  0  0  0
 37 42  1  0  0  0  0
 38 39  2  0  0  0  0
 38 46  1  0  0  0  0
 40 43  1  0  0  0  0
 40 44  1  0  0  0  0
 40 45  1  0  0  0  0
 46 47  1  0  0  0  0
 46 48  1  0  0  0  0
 47 49  1  0  0  0  0
 47 50  1  0  0  0  0
 47 51  1  0  0  0  0
M  END
$$$$

  -OEChem-05262216553D

 51 50  0     1  0  0  0  0  0999 V2000
    0.1693   -1.6259   -3.1505 C   0  0  0  0  0  0  0  0  0  0  0  0
   -0.1271   -0.4662   -2.9137 O   0  0  0  0  0  0  0  0  0  0  0  0
   -0.8581   -2.5563   -3.7662 C   0  0  0  0  0  0  0  0  0  0  0  0
   -1.1024   -3.3579   -3.0649 H   0  0  0  0  0  0  0  0  0  0  0  0
   -1.7729   -2.0049   -4.0016 H   0  0  0  0  0  0  0  0  0  0  0  0
   -0.4646   -2.9930   -4.6871 H   0  0  0  0  0  0  0  0  0  0  0  0
    1.4150   -2.1165   -2.8046 N   0  0  0  0  0  0  0  0  0  0  0  0
    2.5337   -1.3522   -2.2096 C   0  0  2  0  0  0  0  0  0  0  0  0
    2.2887   -0.8292   -0.7720 C   0  0  0  0  0  0  0  0  0  0  0  0
    3.2119   -0.8469    0.0319 O   0  0  0  0  0  0  0  0  0  0  0  0
    2.9784   -0.2226   -3.1484 C   0  0  0  0  0  0  0  0  0  0  0  0
    1.5671   -3.1048   -2.9854 H   0  0  0  0  0  0  0  0  0  0  0  0
    3.3782   -2.0440   -2.1267 H   0  0  0  0  0  0  0  0  0  0  0  0
    2.2052    0.5445   -3.2445 H   0  0  0  0  0  0  0  0  0  0  0  0
    3.8850    0.2521   -2.7603 H   0  0  0  0  0  0  0  0  0  0  0  0
    3.1959   -0.6211   -4.1436 H   0  0  0  0  0  0  0  0  0  0  0  0
    1.0192   -0.5965   -0.2898 N   0  0  0  0  0  0  0  0  0  0  0  0
    0.6501    0.0718    0.9701 C   0  0  2  0  0  0  0  0  0  0  0  0
   -0.8467   -0.2630    1.2515 C   0  0  0  0  0  0  0  0  0  0  0  0
   -1.4890   -0.9680    0.4778 O   0  0  0  0  0  0  0  0  0  0  0  0
    0.6701    1.6421    0.9522 C   0  0  0  0  0  0  0  0  0  0  0  0
    1.9548    2.4978    0.7758 C   0  0  0  0  0  0  0  0  0  0  0  0
    1.4976    3.9654    0.6758 C   0  0  0  0  0  0  0  0  0  0  0  0
    2.7644    2.2518   -0.5046 C   0  0  0  0  0  0  0  0  0  0  0  0
    0.2888   -0.6211   -1.0076 H   0  0  0  0  0  0  0  0  0  0  0  0
    1.2730   -0.3044    1.7875 H   0  0  0  0  0  0  0  0  0  0  0  0
    0.2408    1.9889    1.8965 H   0  0  0  0  0  0  0  0  0  0  0  0
   -0.0198    1.9414    0.1541 H   0  0  0  0  0  0  0  0  0  0  0  0
    2.6063    2.3673    1.6463 H   0  0  0  0  0  0  0  0  0  0  0  0
    0.9012    4.1294   -0.2280 H   0  0  0  0  0  0  0  0  0  0  0  0
    2.3617    4.6372    0.6488 H   0  0  0  0  0  0  0  0  0  0  0  0
    0.8910    4.2387    1.5450 H   0  0  0  0  0  0  0  0  0  0  0  0
    3.5428    1.5113   -0.3292 H   0  0  0  0  0  0  0  0  0  0  0  0
    3.2804    3.1597   -0.8322 H   0  0  0  0  0  0  0  0  0  0  0  0
    2.1088    1.9267   -1.3166 H   0  0  0  0  0  0  0  0  0  0  0  0
   -1.4861    0.2279    2.3828 N   0  0  0  0  0  0  0  0  0  0  0  0
   -2.9105    0.0778    2.7518 C   0  0  2  0  0  0  0  0  0  0  0  0
   -3.3468   -1.3599    3.1185 C   0  0  0  0  0  0  0  0  0  0  0  0
   -3.9253   -1.5594    4.1788 O   0  0  0  0  0  0  0  0  0  0  0  0
   -3.8286    0.6687    1.6724 C   0  0  0  0  0  0  0  0  0  0  0  0
   -0.8999    0.7585    3.0206 H   0  0  0  0  0  0  0  0  0  0  0  0
   -3.0645    0.6749    3.6566 H   0  0  0  0  0  0  0  0  0  0  0  0
   -3.8169    0.0607    0.7630 H   0  0  0  0  0  0  0  0  0  0  0  0
   -4.8587    0.7095    2.0402 H   0  0  0  0  0  0  0  0  0  0  0  0
   -3.5118    1.6841    1.4167 H   0  0  0  0  0  0  0  0  0  0  0  0
   -3.1045   -2.4228    2.2723 N   0  0  0  0  0  0  0  0  0  0  0  0
   -3.4716   -3.8013    2.5621 C   0  0  0  0  0  0  0  0  0  0  0  0
   -2.5957   -2.2042    1.4110 H   0  0  0  0  0  0  0  0  0  0  0  0
   -3.1785   -4.4512    1.7320 H   0  0  0  0  0  0  0  0  0  0  0  0
   -2.9670   -4.1486    3.4696 H   0  0  0  0  0  0  0  0  0  0  0  0
   -4.5540   -3.8874    2.7037 H   0  0  0  0  0  0  0  0  0  0  0  0
  1  2  2  0  0  0  0
  1  3  1  0  0  0  0
  1  7  1  0  0  0  0
  3  4  1  0  0  0  0
  3  5  1  0  0  0  0
  3  6  1  0  0  0  0
  7  8  1  0  0  0  0
  7 12  1  0  0  0  0
  8  9  1  0  0  0  0
  8 11  1  0  0  0  0
  8 13  1  0  0  0  0
  9 10  2  0  0  0  0
  9 17  1  0  0  0  0
 11 14  1  0  0  0  0
 11 15  1  0  0  0  0
 11 16  1  0  0  0  0
 17 18  1  0  0  0  0
 17 25  1  0  0  0  0
 18 19  1  0  0  0  0
 18 21  1  0  0  0  0
 18 26  1  0  0  0  0
 19 20  2  0  0  0  0
 19 36  1  0  0  0  0
 21 22  1  0  0  0  0
 21 27  1  0  0  0  0
 21 28  1  0  0  0  0
 22 23  1  0  0  0  0
 22 24  1  0  0  0  0
 22 29  1  0  0  0  0
 23 30  1  0  0  0  0
 23 31  1  0  0  0  0
 23 32  1  0  0  0  0
 24 33  1  0  0  0  0
 24 34  1  0  0  0  0
 24 35  1  0  0  0  0
 36 37  1  0  0  0  0
 36 41  1  0  0  0  0
 37 38  1  0  0  0  0
 37 40  1  0  0  0  0
 37 42  1  0  0  0  0
 38 39  2  0  0  0  0
 38 46  1  0  0  0  0
 40 43  1  0  0  0  0
 40 44  1  0  0  0  0
 40 45  1  0  0  0  0
 46 47  1  0  0  0  0
 46 48  1  0  0  0  0
 47 49  1  0  0  0  0
 47 50  1  0  0  0  0
 47 51  1  0  0  0  0
M  END
$$$$

  -OEChem-05262216553D

 51 50  0     1  0  0  0  0  0999 V2000
    0.1353   -1.5840   -3.1239 C   0  0  0  0  0  0  0  0  0  0  0  0
   -0.1555   -0.4224   -2.8872 O   0  0  0  0  0  0  0  0  0  0  0  0
   -0.9071   -2.5166   -3.7101 C   0  0  0  0  0  0  0  0  0  0  0  0
   -1.1496   -3.3037   -2.9917 H   0  0  0  0  0  0  0  0  0  0  0  0
   -1.8202   -1.9618   -3.9438 H   0  0  0  0  0  0  0  0  0  0  0  0
   -0.5284   -2.9723   -4.6282 H   0  0  0  0  0  0  0  0  0  0  0  0
    1.3879   -2.0745   -2.8030 N   0  0  0  0  0  0  0  0  0  0  0  0
    2.5207   -1.3112   -2.2329 C   0  0  2  0  0  0  0  0  0  0  0  0
    2.3063   -0.7924   -0.7898 C   0  0  0  0  0  0  0  0  0  0  0  0
    3.2374   -0.8358    0.0037 O   0  0  0  0  0  0  0  0  0  0  0  0
    2.9431   -0.1782   -3.1778 C   0  0  0  0  0  0  0  0  0  0  0  0
    1.5283   -3.0676   -2.9659 H   0  0  0  0  0  0  0  0  0  0  0  0
    3.3675   -2.0024   -2.1710 H   0  0  0  0  0  0  0  0  0  0  0  0
    2.1695    0.5913   -3.2486 H   0  0  0  0  0  0  0  0  0  0  0  0
    3.8608    0.2928   -2.8117 H   0  0  0  0  0  0  0  0  0  0  0  0
    3.1338   -0.5721   -4.1805 H   0  0  0  0  0  0  0  0  0  0  0  0
    1.0461   -0.5448   -0.2933 N   0  0  0  0  0  0  0  0  0  0  0  0
    0.6954    0.1118    0.9777 C   0  0  2  0  0  0  0  0  0  0  0  0
   -0.8102   -0.2154    1.2476 C   0  0  0  0  0  0  0  0  0  0  0  0
   -1.3728   -1.1058    0.6156 O   0  0  0  0  0  0  0  0  0  0  0  0
    0.7627    1.6829    0.9773 C   0  0  0  0  0  0  0  0  0  0  0  0
    2.0682    2.5102    0.8100 C   0  0  0  0  0  0  0  0  0  0  0  0
    1.6456    3.9900    0.7284 C   0  0  0  0  0  0  0  0  0  0  0  0
    2.8695    2.2667   -0.4769 C   0  0  0  0  0  0  0  0  0  0  0  0
    0.3065   -0.5721   -1.0009 H   0  0  0  0  0  0  0  0  0  0  0  0
    1.3099   -0.2905    1.7895 H   0  0  0  0  0  0  0  0  0  0  0  0
    0.3580    2.0287    1.9317 H   0  0  0  0  0  0  0  0  0  0  0  0
    0.0755    2.0122    0.1890 H   0  0  0  0  0  0  0  0  0  0  0  0
    2.7188    2.3529    1.6770 H   0  0  0  0  0  0  0  0  0  0  0  0
    1.0510    4.1796   -0.1718 H   0  0  0  0  0  0  0  0  0  0  0  0
    2.5251    4.6418    0.7073 H   0  0  0  0  0  0  0  0  0  0  0  0
    1.0481    4.2677    1.6023 H   0  0  0  0  0  0  0  0  0  0  0  0
    3.6357    1.5107   -0.3147 H   0  0  0  0  0  0  0  0  0  0  0  0
    3.4011    3.1693   -0.7946 H   0  0  0  0  0  0  0  0  0  0  0  0
    2.2059    1.9649   -1.2915 H   0  0  0  0  0  0  0  0  0  0  0  0
   -1.5589    0.4785    2.1906 N   0  0  0  0  0  0  0  0  0  0  0  0
   -3.0041    0.3459    2.4769 C   0  0  2  0  0  0  0  0  0  0  0  0
   -3.4322   -0.9935    3.1214 C   0  0  0  0  0  0  0  0  0  0  0  0
   -4.1190   -0.9772    4.1346 O   0  0  0  0  0  0  0  0  0  0  0  0
   -3.8463    0.6461    1.2288 C   0  0  0  0  0  0  0  0  0  0  0  0
   -1.0481    1.1707    2.7299 H   0  0  0  0  0  0  0  0  0  0  0  0
   -3.2479    1.1188    3.2132 H   0  0  0  0  0  0  0  0  0  0  0  0
   -3.7404   -0.1419    0.4776 H   0  0  0  0  0  0  0  0  0  0  0  0
   -4.9044    0.7167    1.5003 H   0  0  0  0  0  0  0  0  0  0  0  0
   -3.5396    1.5964    0.7819 H   0  0  0  0  0  0  0  0  0  0  0  0
   -3.0680   -2.2078    2.5757 N   0  0  0  0  0  0  0  0  0  0  0  0
   -3.4432   -3.5007    3.1298 C   0  0  0  0  0  0  0  0  0  0  0  0
   -2.4900   -2.1665    1.7314 H   0  0  0  0  0  0  0  0  0  0  0  0
   -4.5330   -3.5989    3.1672 H   0  0  0  0  0  0  0  0  0  0  0  0
   -3.0443   -4.3075    2.5078 H   0  0  0  0  0  0  0  0  0  0  0  0
   -3.0435   -3.6135    4.1428 H   0  0  0  0  0  0  0  0  0  0  0  0
  1  2  2  0  0  0  0
  1  3  1  0  0  0  0
  1  7  1  0  0  0  0
  3  4  1  0  0  0  0
  3  5  1  0  0  0  0
  3  6  1  0  0  0  0
  7  8  1  0  0  0  0
  7 12  1  0  0  0  0
  8  9  1  0  0  0  0
  8 11  1  0  0  0  0
  8 13  1  0  0  0  0
  9 10  2  0  0  0  0
  9 17  1  0  0  0  0
 11 14  1  0  0  0  0
 11 15  1  0  0  0  0
 11 16  1  0  0  0  0
 17 18  1  0  0  0  0
 17 25  1  0  0  0  0
 18 19  1  0  0  0  0
 18 21  1  0  0  0  0
 18 26  1  0  0  0  0
 19 20  2  0  0  0  0
 19 36  1  0  0  0  0
 21 22  1  0  0  0  0
 21 27  1  0  0  0  0
 21 28  1  0  0  0  0
 22 23  1  0  0  0  0
 22 24  1  0  0  0  0
 22 29  1  0  0  0  0
 23 30  1  0  0  0  0
 23 31  1  0  0  0  0
 23 32  1  0  0  0  0
 24 33  1  0  0  0  0
 24 34  1  0  0  0  0
 24 35  1  0  0  0  0
 36 37  1  0  0  0  0
 36 41  1  0  0  0  0
 37 38  1  0  0  0  0
 37 40  1  0  0  0  0
 37 42  1  0  0  0  0
 38 39  2  0  0  0  0
 38 46  1  0  0  0  0
 40 43  1  0  0  0  0
 40 44  1  0  0  0  0
 40 45  1  0  0  0  0
 46 47  1  0  0  0  0
 46 48  1  0  0  0  0
 47 49  1  0  0  0  0
 47 50  1  0  0  0  0
 47 51  1  0  0  0  0
M  END
$$$$

  -OEChem-05262216553D

 51 50  0     1  0  0  0  0  0999 V2000
    0.0669   -1.6976   -3.0827 C   0  0  0  0  0  0  0  0  0  0  0  0
   -0.3016   -0.5550   -2.8593 O   0  0  0  0  0  0  0  0  0  0  0  0
   -0.9345   -2.7322   -3.5600 C   0  0  0  0  0  0  0  0  0  0  0  0
   -1.0717   -3.4989   -2.7931 H   0  0  0  0  0  0  0  0  0  0  0  0
   -1.9000   -2.2590   -3.7602 H   0  0  0  0  0  0  0  0  0  0  0  0
   -0.5777   -3.2041   -4.4785 H   0  0  0  0  0  0  0  0  0  0  0  0
    1.3752   -2.0765   -2.8423 N   0  0  0  0  0  0  0  0  0  0  0  0
    2.4724   -1.2201   -2.3394 C   0  0  2  0  0  0  0  0  0  0  0  0
    2.3028   -0.7356   -0.8791 C   0  0  0  0  0  0  0  0  0  0  0  0
    3.2486   -0.8218   -0.1073 O   0  0  0  0  0  0  0  0  0  0  0  0
    2.7317   -0.0429   -3.2888 C   0  0  0  0  0  0  0  0  0  0  0  0
    1.5796   -3.0625   -2.9789 H   0  0  0  0  0  0  0  0  0  0  0  0
    3.3787   -1.8343   -2.3443 H   0  0  0  0  0  0  0  0  0  0  0  0
    1.9064    0.6745   -3.2687 H   0  0  0  0  0  0  0  0  0  0  0  0
    3.6464    0.4807   -2.9937 H   0  0  0  0  0  0  0  0  0  0  0  0
    2.8552   -0.4023   -4.3147 H   0  0  0  0  0  0  0  0  0  0  0  0
    1.0587   -0.4641   -0.3546 N   0  0  0  0  0  0  0  0  0  0  0  0
    0.7453    0.1697    0.9384 C   0  0  2  0  0  0  0  0  0  0  0  0
   -0.7679   -0.1329    1.2048 C   0  0  0  0  0  0  0  0  0  0  0  0
   -1.2638   -1.1660    0.7651 O   0  0  0  0  0  0  0  0  0  0  0  0
    0.8769    1.7346    1.0003 C   0  0  0  0  0  0  0  0  0  0  0  0
    2.2127    2.5156    0.8563 C   0  0  0  0  0  0  0  0  0  0  0  0
    1.8447    4.0119    0.8383 C   0  0  0  0  0  0  0  0  0  0  0  0
    2.9932    2.2942   -0.4482 C   0  0  0  0  0  0  0  0  0  0  0  0
    0.2999   -0.4945   -1.0419 H   0  0  0  0  0  0  0  0  0  0  0  0
    1.3501   -0.2827    1.7310 H   0  0  0  0  0  0  0  0  0  0  0  0
    0.5040    2.0474    1.9792 H   0  0  0  0  0  0  0  0  0  0  0  0
    0.1943    2.1274    0.2374 H   0  0  0  0  0  0  0  0  0  0  0  0
    2.8639    2.2979    1.7097 H   0  0  0  0  0  0  0  0  0  0  0  0
    1.2504    4.2593   -0.0477 H   0  0  0  0  0  0  0  0  0  0  0  0
    2.7475    4.6314    0.8355 H   0  0  0  0  0  0  0  0  0  0  0  0
    1.2648    4.2746    1.7286 H   0  0  0  0  0  0  0  0  0  0  0  0
    3.7416    1.5139   -0.3198 H   0  0  0  0  0  0  0  0  0  0  0  0
    3.5445    3.1929   -0.7431 H   0  0  0  0  0  0  0  0  0  0  0  0
    2.3138    2.0361   -1.2647 H   0  0  0  0  0  0  0  0  0  0  0  0
   -1.5967    0.7161    1.9304 N   0  0  0  0  0  0  0  0  0  0  0  0
   -3.0557    0.5964    2.1441 C   0  0  2  0  0  0  0  0  0  0  0  0
   -3.5020   -0.5811    3.0418 C   0  0  0  0  0  0  0  0  0  0  0  0
   -4.2856   -0.3710    3.9585 O   0  0  0  0  0  0  0  0  0  0  0  0
   -3.8123    0.5807    0.8082 C   0  0  0  0  0  0  0  0  0  0  0  0
   -1.1491    1.5454    2.3070 H   0  0  0  0  0  0  0  0  0  0  0  0
   -3.3681    1.5037    2.6713 H   0  0  0  0  0  0  0  0  0  0  0  0
   -3.6399   -0.3523    0.2638 H   0  0  0  0  0  0  0  0  0  0  0  0
   -4.8880    0.6752    0.9875 H   0  0  0  0  0  0  0  0  0  0  0  0
   -3.4914    1.4157    0.1783 H   0  0  0  0  0  0  0  0  0  0  0  0
   -3.0527   -1.8671    2.8219 N   0  0  0  0  0  0  0  0  0  0  0  0
   -3.4734   -3.0257    3.5962 C   0  0  0  0  0  0  0  0  0  0  0  0
   -2.4159   -1.9910    2.0297 H   0  0  0  0  0  0  0  0  0  0  0  0
   -2.9389   -3.9185    3.2582 H   0  0  0  0  0  0  0  0  0  0  0  0
   -3.2577   -2.8751    4.6590 H   0  0  0  0  0  0  0  0  0  0  0  0
   -4.5478   -3.1969    3.4744 H   0  0  0  0  0  0  0  0  0  0  0  0
  1  2  2  0  0  0  0
  1  3  1  0  0  0  0
  1  7  1  0  0  0  0
  3  4  1  0  0  0  0
  3  5  1  0  0  0  0
  3  6  1  0  0  0  0
  7  8  1  0  0  0  0
  7 12  1  0  0  0  0
  8  9  1  0  0  0  0
  8 11  1  0  0  0  0
  8 13  1  0  0  0  0
  9 10  2  0  0  0  0
  9 17  1  0  0  0  0
 11 14  1  0  0  0  0
 11 15  1  0  0  0  0
 11 16  1  0  0  0  0
 17 18  1  0  0  0  0
 17 25  1  0  0  0  0
 18 19  1  0  0  0  0
 18 21  1  0  0  0  0
 18 26  1  0  0  0  0
 19 20  2  0  0  0  0
 19 36  1  0  0  0  0
 21 22  1  0  0  0  0
 21 27  1  0  0  0  0
 21 28  1  0  0  0  0
 22 23  1  0  0  0  0
 22 24  1  0  0  0  0
 22 29  1  0  0  0  0
 23 30  1  0  0  0  0
 23 31  1  0  0  0  0
 23 32  1  0  0  0  0
 24 33  1  0  0  0  0
 24 34  1  0  0  0  0
 24 35  1  0  0  0  0
 36 37  1  0  0  0  0
 36 41  1  0  0  0  0
 37 38  1  0  0  0  0
 37 40  1  0  0  0  0
 37 42  1  0  0  0  0
 38 39  2  0  0  0  0
 38 46  1  0  0  0  0
 40 43  1  0  0  0  0
 40 44  1  0  0  0  0
 40 45  1  0  0  0  0
 46 47  1  0  0  0  0
 46 48  1  0  0  0  0
 47 49  1  0  0  0  0
 47 50  1  0  0  0  0
 47 51  1  0  0  0  0
M  END
$$$$

  -OEChem-05262216553D

 51 50  0     1  0  0  0  0  0999 V2000
    0.1185   -1.7111   -3.0745 C   0  0  0  0  0  0  0  0  0  0  0  0
   -0.2671   -0.5744   -2.8483 O   0  0  0  0  0  0  0  0  0  0  0  0
   -0.8674   -2.7540   -3.5663 C   0  0  0  0  0  0  0  0  0  0  0  0
   -0.9650   -3.5526   -2.8265 H   0  0  0  0  0  0  0  0  0  0  0  0
   -1.8499   -2.3000   -3.7238 H   0  0  0  0  0  0  0  0  0  0  0  0
   -0.5227   -3.1809   -4.5111 H   0  0  0  0  0  0  0  0  0  0  0  0
    1.4285   -2.0765   -2.8213 N   0  0  0  0  0  0  0  0  0  0  0  0
    2.5139   -1.2106   -2.3073 C   0  0  2  0  0  0  0  0  0  0  0  0
    2.3261   -0.7255   -0.8492 C   0  0  0  0  0  0  0  0  0  0  0  0
    3.2575   -0.8182   -0.0617 O   0  0  0  0  0  0  0  0  0  0  0  0
    2.7712   -0.0327   -3.2564 C   0  0  0  0  0  0  0  0  0  0  0  0
    1.6439   -3.0604   -2.9572 H   0  0  0  0  0  0  0  0  0  0  0  0
    3.4266   -1.8154   -2.3025 H   0  0  0  0  0  0  0  0  0  0  0  0
    1.9375    0.6752   -3.2482 H   0  0  0  0  0  0  0  0  0  0  0  0
    3.6764    0.5017   -2.9519 H   0  0  0  0  0  0  0  0  0  0  0  0
    2.9119   -0.3934   -4.2797 H   0  0  0  0  0  0  0  0  0  0  0  0
    1.0755   -0.4363   -0.3519 N   0  0  0  0  0  0  0  0  0  0  0  0
    0.7354    0.2247    0.9197 C   0  0  2  0  0  0  0  0  0  0  0  0
   -0.7815   -0.0758    1.1431 C   0  0  0  0  0  0  0  0  0  0  0  0
   -1.1895   -1.2182    0.9636 O   0  0  0  0  0  0  0  0  0  0  0  0
    0.8899    1.7858    0.9849 C   0  0  0  0  0  0  0  0  0  0  0  0
    2.2437    2.5414    0.8860 C   0  0  0  0  0  0  0  0  0  0  0  0
    1.9072    4.0447    0.8532 C   0  0  0  0  0  0  0  0  0  0  0  0
    3.0683    2.2980   -0.3865 C   0  0  0  0  0  0  0  0  0  0  0  0
    0.3364   -0.4659   -1.0595 H   0  0  0  0  0  0  0  0  0  0  0  0
    1.3114   -0.2277    1.7338 H   0  0  0  0  0  0  0  0  0  0  0  0
    0.4759    2.1025    1.9476 H   0  0  0  0  0  0  0  0  0  0  0  0
    0.2504    2.1885    0.1908 H   0  0  0  0  0  0  0  0  0  0  0  0
    2.8573    2.3141    1.7645 H   0  0  0  0  0  0  0  0  0  0  0  0
    1.3586    4.3043   -0.0585 H   0  0  0  0  0  0  0  0  0  0  0  0
    2.8223    4.6448    0.8904 H   0  0  0  0  0  0  0  0  0  0  0  0
    1.2938    4.3199    1.7170 H   0  0  0  0  0  0  0  0  0  0  0  0
    3.7990    1.5074   -0.2240 H   0  0  0  0  0  0  0  0  0  0  0  0
    3.6441    3.1859   -0.6664 H   0  0  0  0  0  0  0  0  0  0  0  0
    2.4164    2.0437   -1.2262 H   0  0  0  0  0  0  0  0  0  0  0  0
   -1.7047    0.8826    1.5468 N   0  0  0  0  0  0  0  0  0  0  0  0
   -3.1722    0.7321    1.6602 C   0  0  2  0  0  0  0  0  0  0  0  0
   -3.6610   -0.1859    2.8052 C   0  0  0  0  0  0  0  0  0  0  0  0
   -4.5842    0.1865    3.5179 O   0  0  0  0  0  0  0  0  0  0  0  0
   -3.7900    0.3075    0.3202 C   0  0  0  0  0  0  0  0  0  0  0  0
   -1.3309    1.8168    1.6805 H   0  0  0  0  0  0  0  0  0  0  0  0
   -3.5708    1.7258    1.8891 H   0  0  0  0  0  0  0  0  0  0  0  0
   -3.5391   -0.7291    0.0775 H   0  0  0  0  0  0  0  0  0  0  0  0
   -4.8804    0.3899    0.3686 H   0  0  0  0  0  0  0  0  0  0  0  0
   -3.4292    0.9515   -0.4874 H   0  0  0  0  0  0  0  0  0  0  0  0
   -3.0923   -1.4228    3.0324 N   0  0  0  0  0  0  0  0  0  0  0  0
   -3.5556   -2.3639    4.0420 C   0  0  0  0  0  0  0  0  0  0  0  0
   -2.3698   -1.7119    2.3670 H   0  0  0  0  0  0  0  0  0  0  0  0
   -2.8970   -3.2372    4.0723 H   0  0  0  0  0  0  0  0  0  0  0  0
   -3.5539   -1.8965    5.0322 H   0  0  0  0  0  0  0  0  0  0  0  0
   -4.5715   -2.7011    3.8121 H   0  0  0  0  0  0  0  0  0  0  0  0
  1  2  2  0  0  0  0
  1  3  1  0  0  0  0
  1  7  1  0  0  0  0
  3  4  1  0  0  0  0
  3  5  1  0  0  0  0
  3  6  1  0  0  0  0
  7  8  1  0  0  0  0
  7 12  1  0  0  0  0
  8  9  1  0  0  0  0
  8 11  1  0  0  0  0
  8 13  1  0  0  0  0
  9 10  2  0  0  0  0
  9 17  1  0  0  0  0
 11 14  1  0  0  0  0
 11 15  1  0  0  0  0
 11 16  1  0  0  0  0
 17 18  1  0  0  0  0
 17 25  1  0  0  0  0
 18 19  1  0  0  0  0
 18 21  1  0  0  0  0
 18 26  1  0  0  0  0
 19 20  2  0  0  0  0
 19 36  1  0  0  0  0
 21 22  1  0  0  0  0
 21 27  1  0  0  0  0
 21 28  1  0  0  0  0
 22 23  1  0  0  0  0
 22 24  1  0  0  0  0
 22 29  1  0  0  0  0
 23 30  1  0  0  0  0
 23 31  1  0  0  0  0
 23 32  1  0  0  0  0
 24 33  1  0  0  0  0
 24 34  1  0  0  0  0
 24 35  1  0  0  0  0
 36 37  1  0  0  0  0
 36 41  1  0  0  0  0
 37 38  1  0  0  0  0
 37 40  1  0  0  0  0
 37 42  1  0  0  0  0
 38 39  2  0  0  0  0
 38 46  1  0  0  0  0
 40 43  1  0  0  0  0
 40 44  1  0  0  0  0
 40 45  1  0  0  0  0
 46 47  1  0  0  0  0
 46 48  1  0  0  0  0
 47 49  1  0  0  0  0
 47 50  1  0  0  0  0
 47 51  1  0  0  0  0
M  END
$$$$

  -OEChem-05262216553D

 51 50  0     1  0  0  0  0  0999 V2000
    0.2106   -1.7587   -3.0217 C   0  0  0  0  0  0  0  0  0  0  0  0
   -0.2037   -0.6279   -2.8155 O   0  0  0  0  0  0  0  0  0  0  0  0
   -0.7447   -2.8286   -3.5159 C   0  0  0  0  0  0  0  0  0  0  0  0
   -0.8559   -3.6081   -2.7579 H   0  0  0  0  0  0  0  0  0  0  0  0
   -1.7275   -2.3936   -3.7186 H   0  0  0  0  0  0  0  0  0  0  0  0
   -0.3628   -3.2761   -4.4367 H   0  0  0  0  0  0  0  0  0  0  0  0
    1.5237   -2.0940   -2.7437 N   0  0  0  0  0  0  0  0  0  0  0  0
    2.5871   -1.1996   -2.2317 C   0  0  2  0  0  0  0  0  0  0  0  0
    2.3725   -0.6892   -0.7862 C   0  0  0  0  0  0  0  0  0  0  0  0
    3.2915   -0.7576    0.0178 O   0  0  0  0  0  0  0  0  0  0  0  0
    2.8337   -0.0336   -3.1978 C   0  0  0  0  0  0  0  0  0  0  0  0
    1.7621   -3.0743   -2.8687 H   0  0  0  0  0  0  0  0  0  0  0  0
    3.5095   -1.7890   -2.2049 H   0  0  0  0  0  0  0  0  0  0  0  0
    1.9889    0.6611   -3.2058 H   0  0  0  0  0  0  0  0  0  0  0  0
    3.7286    0.5195   -2.8955 H   0  0  0  0  0  0  0  0  0  0  0  0
    2.9871   -0.4077   -4.2145 H   0  0  0  0  0  0  0  0  0  0  0  0
    1.1102   -0.3986   -0.3206 N   0  0  0  0  0  0  0  0  0  0  0  0
    0.7385    0.2907    0.9262 C   0  0  2  0  0  0  0  0  0  0  0  0
   -0.7765   -0.0208    1.1206 C   0  0  0  0  0  0  0  0  0  0  0  0
   -1.1249   -1.1933    1.1941 O   0  0  0  0  0  0  0  0  0  0  0  0
    0.8818    1.8525    0.9742 C   0  0  0  0  0  0  0  0  0  0  0  0
    2.2341    2.6126    0.8996 C   0  0  0  0  0  0  0  0  0  0  0  0
    1.8947    4.1142    0.8379 C   0  0  0  0  0  0  0  0  0  0  0  0
    3.0885    2.3521   -0.3497 C   0  0  0  0  0  0  0  0  0  0  0  0
    0.3913   -0.4413   -1.0476 H   0  0  0  0  0  0  0  0  0  0  0  0
    1.2980   -0.1429    1.7621 H   0  0  0  0  0  0  0  0  0  0  0  0
    0.4211    2.1802    1.9128 H   0  0  0  0  0  0  0  0  0  0  0  0
    0.2769    2.2381    0.1459 H   0  0  0  0  0  0  0  0  0  0  0  0
    2.8269    2.3993    1.7958 H   0  0  0  0  0  0  0  0  0  0  0  0
    1.3614    4.3600   -0.0866 H   0  0  0  0  0  0  0  0  0  0  0  0
    2.8073    4.7174    0.8836 H   0  0  0  0  0  0  0  0  0  0  0  0
    1.2656    4.3997    1.6868 H   0  0  0  0  0  0  0  0  0  0  0  0
    3.8188    1.5680   -0.1567 H   0  0  0  0  0  0  0  0  0  0  0  0
    3.6665    3.2380   -0.6315 H   0  0  0  0  0  0  0  0  0  0  0  0
    2.4574    2.0798   -1.1996 H   0  0  0  0  0  0  0  0  0  0  0  0
   -1.7612    0.9587    1.1801 N   0  0  0  0  0  0  0  0  0  0  0  0
   -3.2274    0.7634    1.1695 C   0  0  2  0  0  0  0  0  0  0  0  0
   -3.8239    0.1159    2.4414 C   0  0  0  0  0  0  0  0  0  0  0  0
   -4.8182    0.6123    2.9548 O   0  0  0  0  0  0  0  0  0  0  0  0
   -3.6721    0.0055   -0.0897 C   0  0  0  0  0  0  0  0  0  0  0  0
   -1.4273    1.9140    1.0983 H   0  0  0  0  0  0  0  0  0  0  0  0
   -3.6737    1.7613    1.1102 H   0  0  0  0  0  0  0  0  0  0  0  0
   -3.3608   -1.0425   -0.0536 H   0  0  0  0  0  0  0  0  0  0  0  0
   -4.7629    0.0328   -0.1767 H   0  0  0  0  0  0  0  0  0  0  0  0
   -3.2415    0.4659   -0.9843 H   0  0  0  0  0  0  0  0  0  0  0  0
   -3.2734   -1.0185    3.0022 N   0  0  0  0  0  0  0  0  0  0  0  0
   -3.8229   -1.7099    4.1596 C   0  0  0  0  0  0  0  0  0  0  0  0
   -2.4714   -1.4197    2.5080 H   0  0  0  0  0  0  0  0  0  0  0  0
   -3.1771   -2.5481    4.4386 H   0  0  0  0  0  0  0  0  0  0  0  0
   -3.8939   -1.0297    5.0147 H   0  0  0  0  0  0  0  0  0  0  0  0
   -4.8209   -2.0996    3.9339 H   0  0  0  0  0  0  0  0  0  0  0  0
  1  2  2  0  0  0  0
  1  3  1  0  0  0  0
  1  7  1  0  0  0  0
  3  4  1  0  0  0  0
  3  5  1  0  0  0  0
  3  6  1  0  0  0  0
  7  8  1  0  0  0  0
  7 12  1  0  0  0  0
  8  9  1  0  0  0  0
  8 11  1  0  0  0  0
  8 13  1  0  0  0  0
  9 10  2  0  0  0  0
  9 17  1  0  0  0  0
 11 14  1  0  0  0  0
 11 15  1  0  0  0  0
 11 16  1  0  0  0  0
 17 18  1  0  0  0  0
 17 25  1  0  0  0  0
 18 19  1  0  0  0  0
 18 21  1  0  0  0  0
 18 26  1  0  0  0  0
 19 20  2  0  0  0  0
 19 36  1  0  0  0  0
 21 22  1  0  0  0  0
 21 27  1  0  0  0  0
 21 28  1  0  0  0  0
 22 23  1  0  0  0  0
 22 24  1  0  0  0  0
 22 29  1  0  0  0  0
 23 30  1  0  0  0  0
 23 31  1  0  0  0  0
 23 32  1  0  0  0  0
 24 33  1  0  0  0  0
 24 34  1  0  0  0  0
 24 35  1  0  0  0  0
 36 37  1  0  0  0  0
 36 41  1  0  0  0  0
 37 38  1  0  0  0  0
 37 40  1  0  0  0  0
 37 42  1  0  0  0  0
 38 39  2  0  0  0  0
 38 46  1  0  0  0  0
 40 43  1  0  0  0  0
 40 44  1  0  0  0  0
 40 45  1  0  0  0  0
 46 47  1  0  0  0  0
 46 48  1  0  0  0  0
 47 49  1  0  0  0  0
 47 50  1  0  0  0  0
 47 51  1  0  0  0  0
M  END
$$$$

  -OEChem-05262216553D

 51 50  0     1  0  0  0  0  0999 V2000
    0.2412   -1.9269   -2.9011 C   0  0  0  0  0  0  0  0  0  0  0  0
   -0.2286   -0.8106   -2.7366 O   0  0  0  0  0  0  0  0  0  0  0  0
   -0.6642   -3.0634   -3.3351 C   0  0  0  0  0  0  0  0  0  0  0  0
   -0.7188   -3.8181   -2.5465 H   0  0  0  0  0  0  0  0  0  0  0  0
   -1.6724   -2.6888   -3.5341 H   0  0  0  0  0  0  0  0  0  0  0  0
   -0.2752   -3.5245   -4.2461 H   0  0  0  0  0  0  0  0  0  0  0  0
    1.5741   -2.1843   -2.6336 N   0  0  0  0  0  0  0  0  0  0  0  0
    2.6016   -1.2177   -2.1848 C   0  0  2  0  0  0  0  0  0  0  0  0
    2.3894   -0.6593   -0.7573 C   0  0  0  0  0  0  0  0  0  0  0  0
    3.3087   -0.6961    0.0477 O   0  0  0  0  0  0  0  0  0  0  0  0
    2.7653   -0.0820   -3.2036 C   0  0  0  0  0  0  0  0  0  0  0  0
    1.8593   -3.1562   -2.7203 H   0  0  0  0  0  0  0  0  0  0  0  0
    3.5537   -1.7579   -2.1560 H   0  0  0  0  0  0  0  0  0  0  0  0
    1.8918    0.5765   -3.2083 H   0  0  0  0  0  0  0  0  0  0  0  0
    3.6452    0.5193   -2.9546 H   0  0  0  0  0  0  0  0  0  0  0  0
    2.9006   -0.4895   -4.2101 H   0  0  0  0  0  0  0  0  0  0  0  0
    1.1265   -0.3528   -0.3043 N   0  0  0  0  0  0  0  0  0  0  0  0
    0.7500    0.3915    0.9079 C   0  0  2  0  0  0  0  0  0  0  0  0
   -0.7593    0.0815    1.1135 C   0  0  0  0  0  0  0  0  0  0  0  0
   -1.0763   -1.0419    1.4837 O   0  0  0  0  0  0  0  0  0  0  0  0
    0.8890    1.9535    0.8986 C   0  0  0  0  0  0  0  0  0  0  0  0
    2.2422    2.7093    0.8038 C   0  0  0  0  0  0  0  0  0  0  0  0
    1.9045    4.2074    0.6833 C   0  0  0  0  0  0  0  0  0  0  0  0
    3.1065    2.3994   -0.4271 C   0  0  0  0  0  0  0  0  0  0  0  0
    0.4088   -0.4333   -1.0293 H   0  0  0  0  0  0  0  0  0  0  0  0
    1.3087   -0.0058    1.7622 H   0  0  0  0  0  0  0  0  0  0  0  0
    0.4063    2.3161    1.8133 H   0  0  0  0  0  0  0  0  0  0  0  0
    0.3016    2.3080    0.0452 H   0  0  0  0  0  0  0  0  0  0  0  0
    2.8279    2.5299    1.7121 H   0  0  0  0  0  0  0  0  0  0  0  0
    1.3798    4.4175   -0.2549 H   0  0  0  0  0  0  0  0  0  0  0  0
    2.8170    4.8116    0.7135 H   0  0  0  0  0  0  0  0  0  0  0  0
    1.2679    4.5248    1.5151 H   0  0  0  0  0  0  0  0  0  0  0  0
    3.8361    1.6246   -0.1963 H   0  0  0  0  0  0  0  0  0  0  0  0
    3.6849    3.2743   -0.7405 H   0  0  0  0  0  0  0  0  0  0  0  0
    2.4827    2.0918   -1.2701 H   0  0  0  0  0  0  0  0  0  0  0  0
   -1.7660    0.9957    0.8281 N   0  0  0  0  0  0  0  0  0  0  0  0
   -3.2170    0.7289    0.7286 C   0  0  2  0  0  0  0  0  0  0  0  0
   -3.9328    0.3961    2.0589 C   0  0  0  0  0  0  0  0  0  0  0  0
   -4.9873    0.9577    2.3263 O   0  0  0  0  0  0  0  0  0  0  0  0
   -3.5015   -0.3477   -0.3289 C   0  0  0  0  0  0  0  0  0  0  0  0
   -1.4456    1.8968    0.4872 H   0  0  0  0  0  0  0  0  0  0  0  0
   -3.6793    1.6544    0.3702 H   0  0  0  0  0  0  0  0  0  0  0  0
   -3.1610   -1.3321    0.0051 H   0  0  0  0  0  0  0  0  0  0  0  0
   -4.5773   -0.4072   -0.5214 H   0  0  0  0  0  0  0  0  0  0  0  0
   -2.9947   -0.1043   -1.2679 H   0  0  0  0  0  0  0  0  0  0  0  0
   -3.4284   -0.5391    2.9395 N   0  0  0  0  0  0  0  0  0  0  0  0
   -4.0886   -0.9453    4.1719 C   0  0  0  0  0  0  0  0  0  0  0  0
   -2.5657   -1.0088    2.6501 H   0  0  0  0  0  0  0  0  0  0  0  0
   -3.4904   -1.7036    4.6860 H   0  0  0  0  0  0  0  0  0  0  0  0
   -4.2106   -0.0882    4.8421 H   0  0  0  0  0  0  0  0  0  0  0  0
   -5.0752   -1.3692    3.9570 H   0  0  0  0  0  0  0  0  0  0  0  0
  1  2  2  0  0  0  0
  1  3  1  0  0  0  0
  1  7  1  0  0  0  0
  3  4  1  0  0  0  0
  3  5  1  0  0  0  0
  3  6  1  0  0  0  0
  7  8  1  0  0  0  0
  7 12  1  0  0  0  0
  8  9  1  0  0  0  0
  8 11  1  0  0  0  0
  8 13  1  0  0  0  0
  9 10  2  0  0  0  0
  9 17  1  0  0  0  0
 11 14  1  0  0  0  0
 11 15  1  0  0  0  0
 11 16  1  0  0  0  0
 17 18  1  0  0  0  0
 17 25  1  0  0  0  0
 18 19  1  0  0  0  0
 18 21  1  0  0  0  0
 18 26  1  0  0  0  0
 19 20  2  0  0  0  0
 19 36  1  0  0  0  0
 21 22  1  0  0  0  0
 21 27  1  0  0  0  0
 21 28  1  0  0  0  0
 22 23  1  0  0  0  0
 22 24  1  0  0  0  0
 22 29  1  0  0  0  0
 23 30  1  0  0  0  0
 23 31  1  0  0  0  0
 23 32  1  0  0  0  0
 24 33  1  0  0  0  0
 24 34  1  0  0  0  0
 24 35  1  0  0  0  0
 36 37  1  0  0  0  0
 36 41  1  0  0  0  0
 37 38  1  0  0  0  0
 37 40  1  0  0  0  0
 37 42  1  0  0  0  0
 38 39  2  0  0  0  0
 38 46  1  0  0  0  0
 40 43  1  0  0  0  0
 40 44  1  0  0  0  0
 40 45  1  0  0  0  0
 46 47  1  0  0  0  0
 46 48  1  0  0  0  0
 47 49  1  0  0  0  0
 47 50  1  0  0  0  0
 47 51  1  0  0  0  0
M  END
$$$$

  -OEChem-05262216553D

 51 50  0     1  0  0  0  0  0999 V2000
    0.3561   -1.9610   -2.9728 C   0  0  0  0  0  0  0  0  0  0  0  0
   -0.1476   -0.8599   -2.8042 O   0  0  0  0  0  0  0  0  0  0  0  0
   -0.5083   -3.1147   -3.4456 C   0  0  0  0  0  0  0  0  0  0  0  0
   -0.5878   -3.8686   -2.6582 H   0  0  0  0  0  0  0  0  0  0  0  0
   -1.5124   -2.7588   -3.6937 H   0  0  0  0  0  0  0  0  0  0  0  0
   -0.0694   -3.5722   -4.3355 H   0  0  0  0  0  0  0  0  0  0  0  0
    1.6860   -2.1891   -2.6660 N   0  0  0  0  0  0  0  0  0  0  0  0
    2.6749   -1.2047   -2.1709 C   0  0  2  0  0  0  0  0  0  0  0  0
    2.4007   -0.6676   -0.7454 C   0  0  0  0  0  0  0  0  0  0  0  0
    3.2864   -0.7097    0.0957 O   0  0  0  0  0  0  0  0  0  0  0  0
    2.8472   -0.0552   -3.1725 C   0  0  0  0  0  0  0  0  0  0  0  0
    2.0005   -3.1509   -2.7643 H   0  0  0  0  0  0  0  0  0  0  0  0
    3.6385   -1.7220   -2.1145 H   0  0  0  0  0  0  0  0  0  0  0  0
    1.9579    0.5808   -3.2039 H   0  0  0  0  0  0  0  0  0  0  0  0
    3.7023    0.5657   -2.8872 H   0  0  0  0  0  0  0  0  0  0  0  0
    3.0286   -0.4499   -4.1767 H   0  0  0  0  0  0  0  0  0  0  0  0
    1.1189   -0.3680   -0.3423 N   0  0  0  0  0  0  0  0  0  0  0  0
    0.6947    0.3735    0.8563 C   0  0  2  0  0  0  0  0  0  0  0  0
   -0.8165    0.0620    1.0087 C   0  0  0  0  0  0  0  0  0  0  0  0
   -1.1521   -0.9224    1.6541 O   0  0  0  0  0  0  0  0  0  0  0  0
    0.8195    1.9354    0.8765 C   0  0  0  0  0  0  0  0  0  0  0  0
    2.1728    2.6954    0.8457 C   0  0  0  0  0  0  0  0  0  0  0  0
    1.8385    4.1948    0.7351 C   0  0  0  0  0  0  0  0  0  0  0  0
    3.0838    2.4013   -0.3546 C   0  0  0  0  0  0  0  0  0  0  0  0
    0.4350   -0.4408   -1.1000 H   0  0  0  0  0  0  0  0  0  0  0  0
    1.2248   -0.0273    1.7273 H   0  0  0  0  0  0  0  0  0  0  0  0
    0.2960    2.2787    1.7761 H   0  0  0  0  0  0  0  0  0  0  0  0
    0.2633    2.3049    0.0095 H   0  0  0  0  0  0  0  0  0  0  0  0
    2.7227    2.5035    1.7734 H   0  0  0  0  0  0  0  0  0  0  0  0
    1.3544    4.4207   -0.2210 H   0  0  0  0  0  0  0  0  0  0  0  0
    2.7484    4.7986    0.8151 H   0  0  0  0  0  0  0  0  0  0  0  0
    1.1658    4.4971    1.5441 H   0  0  0  0  0  0  0  0  0  0  0  0
    3.8006    1.6199   -0.1072 H   0  0  0  0  0  0  0  0  0  0  0  0
    3.6775    3.2788   -0.6300 H   0  0  0  0  0  0  0  0  0  0  0  0
    2.4931    2.1089   -1.2265 H   0  0  0  0  0  0  0  0  0  0  0  0
   -1.7953    0.8446    0.4105 N   0  0  0  0  0  0  0  0  0  0  0  0
   -3.2378    0.5430    0.2981 C   0  0  2  0  0  0  0  0  0  0  0  0
   -4.0326    0.5935    1.6241 C   0  0  0  0  0  0  0  0  0  0  0  0
   -5.0676    1.2453    1.6769 O   0  0  0  0  0  0  0  0  0  0  0  0
   -3.4611   -0.7913   -0.4276 C   0  0  0  0  0  0  0  0  0  0  0  0
   -1.4456    1.6107   -0.1571 H   0  0  0  0  0  0  0  0  0  0  0  0
   -3.6719    1.3231   -0.3359 H   0  0  0  0  0  0  0  0  0  0  0  0
   -3.1462   -1.6372    0.1904 H   0  0  0  0  0  0  0  0  0  0  0  0
   -4.5230   -0.9170   -0.6608 H   0  0  0  0  0  0  0  0  0  0  0  0
   -2.8955   -0.8140   -1.3643 H   0  0  0  0  0  0  0  0  0  0  0  0
   -3.6092   -0.0866    2.7478 N   0  0  0  0  0  0  0  0  0  0  0  0
   -4.3055   -0.0718    4.0264 C   0  0  0  0  0  0  0  0  0  0  0  0
   -2.7351   -0.6116    2.6539 H   0  0  0  0  0  0  0  0  0  0  0  0
   -3.7858   -0.7120    4.7458 H   0  0  0  0  0  0  0  0  0  0  0  0
   -4.3421    0.9454    4.4297 H   0  0  0  0  0  0  0  0  0  0  0  0
   -5.3290   -0.4431    3.9097 H   0  0  0  0  0  0  0  0  0  0  0  0
  1  2  2  0  0  0  0
  1  3  1  0  0  0  0
  1  7  1  0  0  0  0
  3  4  1  0  0  0  0
  3  5  1  0  0  0  0
  3  6  1  0  0  0  0
  7  8  1  0  0  0  0
  7 12  1  0  0  0  0
  8  9  1  0  0  0  0
  8 11  1  0  0  0  0
  8 13  1  0  0  0  0
  9 10  2  0  0  0  0
  9 17  1  0  0  0  0
 11 14  1  0  0  0  0
 11 15  1  0  0  0  0
 11 16  1  0  0  0  0
 17 18  1  0  0  0  0
 17 25  1  0  0  0  0
 18 19  1  0  0  0  0
 18 21  1  0  0  0  0
 18 26  1  0  0  0  0
 19 20  2  0  0  0  0
 19 36  1  0  0  0  0
 21 22  1  0  0  0  0
 21 27  1  0  0  0  0
 21 28  1  0  0  0  0
 22 23  1  0  0  0  0
 22 24  1  0  0  0  0
 22 29  1  0  0  0  0
 23 30  1  0  0  0  0
 23 31  1  0  0  0  0
 23 32  1  0  0  0  0
 24 33  1  0  0  0  0
 24 34  1  0  0  0  0
 24 35  1  0  0  0  0
 36 37  1  0  0  0  0
 36 41  1  0  0  0  0
 37 38  1  0  0  0  0
 37 40  1  0  0  0  0
 37 42  1  0  0  0  0
 38 39  2  0  0  0  0
 38 46  1  0  0  0  0
 40 43  1  0  0  0  0
 40 44  1  0  0  0  0
 40 45  1  0  0  0  0
 46 47  1  0  0  0  0
 46 48  1  0  0  0  0
 47 49  1  0  0  0  0
 47 50  1  0  0  0  0
 47 51  1  0  0  0  0
M  END
$$$$

  -OEChem-05262216553D

 51 50  0     1  0  0  0  0  0999 V2000
    0.4375   -1.9841   -3.0470 C   0  0  0  0  0  0  0  0  0  0  0  0
   -0.1029   -0.9066   -2.8409 O   0  0  0  0  0  0  0  0  0  0  0  0
   -0.3769   -3.1348   -3.6068 C   0  0  0  0  0  0  0  0  0  0  0  0
   -0.4505   -3.9350   -2.8661 H   0  0  0  0  0  0  0  0  0  0  0  0
   -1.3857   -2.7963   -3.8598 H   0  0  0  0  0  0  0  0  0  0  0  0
    0.0979   -3.5264   -4.5098 H   0  0  0  0  0  0  0  0  0  0  0  0
    1.7647   -2.1907   -2.7144 N   0  0  0  0  0  0  0  0  0  0  0  0
    2.7224   -1.1984   -2.1756 C   0  0  2  0  0  0  0  0  0  0  0  0
    2.4123   -0.6991   -0.7437 C   0  0  0  0  0  0  0  0  0  0  0  0
    3.2821   -0.7402    0.1135 O   0  0  0  0  0  0  0  0  0  0  0  0
    2.8872   -0.0226   -3.1476 C   0  0  0  0  0  0  0  0  0  0  0  0
    2.1118   -3.1352   -2.8602 H   0  0  0  0  0  0  0  0  0  0  0  0
    3.6955   -1.6971   -2.1125 H   0  0  0  0  0  0  0  0  0  0  0  0
    1.9793    0.5858   -3.1932 H   0  0  0  0  0  0  0  0  0  0  0  0
    3.7131    0.6182   -2.8234 H   0  0  0  0  0  0  0  0  0  0  0  0
    3.1114   -0.3895   -4.1537 H   0  0  0  0  0  0  0  0  0  0  0  0
    1.1196   -0.4149   -0.3657 N   0  0  0  0  0  0  0  0  0  0  0  0
    0.6627    0.3132    0.8293 C   0  0  2  0  0  0  0  0  0  0  0  0
   -0.8448   -0.0117    0.9477 C   0  0  0  0  0  0  0  0  0  0  0  0
   -1.2275   -0.7756    1.8237 O   0  0  0  0  0  0  0  0  0  0  0  0
    0.7458    1.8762    0.8677 C   0  0  0  0  0  0  0  0  0  0  0  0
    2.0834    2.6627    0.8630 C   0  0  0  0  0  0  0  0  0  0  0  0
    1.7242    4.1567    0.7634 C   0  0  0  0  0  0  0  0  0  0  0  0
    3.0133    2.3941   -0.3280 C   0  0  0  0  0  0  0  0  0  0  0  0
    0.4541   -0.4897   -1.1387 H   0  0  0  0  0  0  0  0  0  0  0  0
    1.1823   -0.0853    1.7081 H   0  0  0  0  0  0  0  0  0  0  0  0
    0.2061    2.1948    1.7671 H   0  0  0  0  0  0  0  0  0  0  0  0
    0.1835    2.2455    0.0045 H   0  0  0  0  0  0  0  0  0  0  0  0
    2.6250    2.4711    1.7956 H   0  0  0  0  0  0  0  0  0  0  0  0
    1.2431    4.3822   -0.1942 H   0  0  0  0  0  0  0  0  0  0  0  0
    2.6226    4.7756    0.8556 H   0  0  0  0  0  0  0  0  0  0  0  0
    1.0406    4.4401    1.5699 H   0  0  0  0  0  0  0  0  0  0  0  0
    3.7263    1.6079   -0.0864 H   0  0  0  0  0  0  0  0  0  0  0  0
    3.6103    3.2779   -0.5748 H   0  0  0  0  0  0  0  0  0  0  0  0
    2.4360    2.1194   -1.2146 H   0  0  0  0  0  0  0  0  0  0  0  0
   -1.7686    0.5756    0.0939 N   0  0  0  0  0  0  0  0  0  0  0  0
   -3.2097    0.2690   -0.0146 C   0  0  2  0  0  0  0  0  0  0  0  0
   -4.0700    0.7040    1.1946 C   0  0  0  0  0  0  0  0  0  0  0  0
   -5.0955    1.3440    1.0010 O   0  0  0  0  0  0  0  0  0  0  0  0
   -3.4308   -1.2140   -0.3438 C   0  0  0  0  0  0  0  0  0  0  0  0
   -1.3686    1.1541   -0.6400 H   0  0  0  0  0  0  0  0  0  0  0  0
   -3.5873    0.8415   -0.8681 H   0  0  0  0  0  0  0  0  0  0  0  0
   -3.1675   -1.8526    0.5044 H   0  0  0  0  0  0  0  0  0  0  0  0
   -4.4830   -1.3899   -0.5887 H   0  0  0  0  0  0  0  0  0  0  0  0
   -2.8213   -1.5068   -1.2043 H   0  0  0  0  0  0  0  0  0  0  0  0
   -3.7137    0.3799    2.4880 N   0  0  0  0  0  0  0  0  0  0  0  0
   -4.4797    0.7538    3.6680 C   0  0  0  0  0  0  0  0  0  0  0  0
   -2.8521   -0.1627    2.5958 H   0  0  0  0  0  0  0  0  0  0  0  0
   -4.0069    0.3486    4.5678 H   0  0  0  0  0  0  0  0  0  0  0  0
   -4.5289    1.8434    3.7628 H   0  0  0  0  0  0  0  0  0  0  0  0
   -5.4985    0.3577    3.6044 H   0  0  0  0  0  0  0  0  0  0  0  0
  1  2  2  0  0  0  0
  1  3  1  0  0  0  0
  1  7  1  0  0  0  0
  3  4  1  0  0  0  0
  3  5  1  0  0  0  0
  3  6  1  0  0  0  0
  7  8  1  0  0  0  0
  7 12  1  0  0  0  0
  8  9  1  0  0  0  0
  8 11  1  0  0  0  0
  8 13  1  0  0  0  0
  9 10  2  0  0  0  0
  9 17  1  0  0  0  0
 11 14  1  0  0  0  0
 11 15  1  0  0  0  0
 11 16  1  0  0  0  0
 17 18  1  0  0  0  0
 17 25  1  0  0  0  0
 18 19  1  0  0  0  0
 18 21  1  0  0  0  0
 18 26  1  0  0  0  0
 19 20  2  0  0  0  0
 19 36  1  0  0  0  0
 21 22  1  0  0  0  0
 21 27  1  0  0  0  0
 21 28  1  0  0  0  0
 22 23  1  0  0  0  0
 22 24  1  0  0  0  0
 22 29  1  0  0  0  0
 23 30  1  0  0  0  0
 23 31  1  0  0  0  0
 23 32  1  0  0  0  0
 24 33  1  0  0  0  0
 24 34  1  0  0  0  0
 24 35  1  0  0  0  0
 36 37  1  0  0  0  0
 36 41  1  0  0  0  0
 37 38  1  0  0  0  0
 37 40  1  0  0  0  0
 37 42  1  0  0  0  0
 38 39  2  0  0  0  0
 38 46  1  0  0  0  0
 40 43  1  0  0  0  0
 40 44  1  0  0  0  0
 40 45  1  0  0  0  0
 46 47  1  0  0  0  0
 46 48  1  0  0  0  0
 47 49  1  0  0  0  0
 47 50  1  0  0  0  0
 47 51  1  0  0  0  0
M  END
$$$$

  -OEChem-05262216553D

 51 50  0     1  0  0  0  0  0999 V2000
    0.4776   -1.8692   -3.1551 C   0  0  0  0  0  0  0  0  0  0  0  0
   -0.0597   -0.8046   -2.8806 O   0  0  0  0  0  0  0  0  0  0  0  0
   -0.3367   -2.9680   -3.8109 C   0  0  0  0  0  0  0  0  0  0  0  0
   -0.3952   -3.8357   -3.1488 H   0  0  0  0  0  0  0  0  0  0  0  0
   -1.3513   -2.6151   -4.0180 H   0  0  0  0  0  0  0  0  0  0  0  0
    0.1289   -3.2678   -4.7531 H   0  0  0  0  0  0  0  0  0  0  0  0
    1.7957   -2.1150   -2.8098 N   0  0  0  0  0  0  0  0  0  0  0  0
    2.7653   -1.1672   -2.2126 C   0  0  2  0  0  0  0  0  0  0  0  0
    2.4456   -0.7128   -0.7673 C   0  0  0  0  0  0  0  0  0  0  0  0
    3.3185   -0.7375    0.0873 O   0  0  0  0  0  0  0  0  0  0  0  0
    2.9702    0.0389   -3.1377 C   0  0  0  0  0  0  0  0  0  0  0  0
    2.1396   -3.0461   -3.0306 H   0  0  0  0  0  0  0  0  0  0  0  0
    3.7262   -1.6889   -2.1521 H   0  0  0  0  0  0  0  0  0  0  0  0
    2.0682    0.6550   -3.1931 H   0  0  0  0  0  0  0  0  0  0  0  0
    3.7893    0.6620   -2.7649 H   0  0  0  0  0  0  0  0  0  0  0  0
    3.2250   -0.2958   -4.1476 H   0  0  0  0  0  0  0  0  0  0  0  0
    1.1448   -0.4739   -0.3875 N   0  0  0  0  0  0  0  0  0  0  0  0
    0.6557    0.2160    0.8176 C   0  0  2  0  0  0  0  0  0  0  0  0
   -0.8405   -0.1522    0.9254 C   0  0  0  0  0  0  0  0  0  0  0  0
   -1.2660   -0.6613    1.9535 O   0  0  0  0  0  0  0  0  0  0  0  0
    0.6572    1.7788    0.8696 C   0  0  0  0  0  0  0  0  0  0  0  0
    1.9537    2.6299    0.8656 C   0  0  0  0  0  0  0  0  0  0  0  0
    1.5215    4.1053    0.7807 C   0  0  0  0  0  0  0  0  0  0  0  0
    2.8897    2.4115   -0.3297 C   0  0  0  0  0  0  0  0  0  0  0  0
    0.4920   -0.5404   -1.1701 H   0  0  0  0  0  0  0  0  0  0  0  0
    1.1875   -0.1707    1.6942 H   0  0  0  0  0  0  0  0  0  0  0  0
    0.1100    2.0616    1.7764 H   0  0  0  0  0  0  0  0  0  0  0  0
    0.0649    2.1248    0.0158 H   0  0  0  0  0  0  0  0  0  0  0  0
    2.5077    2.4577    1.7948 H   0  0  0  0  0  0  0  0  0  0  0  0
    1.0330    4.3172   -0.1763 H   0  0  0  0  0  0  0  0  0  0  0  0
    2.3880    4.7667    0.8827 H   0  0  0  0  0  0  0  0  0  0  0  0
    0.8214    4.3457    1.5872 H   0  0  0  0  0  0  0  0  0  0  0  0
    3.6269    1.6437   -0.1019 H   0  0  0  0  0  0  0  0  0  0  0  0
    3.4565    3.3190   -0.5609 H   0  0  0  0  0  0  0  0  0  0  0  0
    2.3199    2.1331   -1.2200 H   0  0  0  0  0  0  0  0  0  0  0  0
   -1.7156    0.1776   -0.1017 N   0  0  0  0  0  0  0  0  0  0  0  0
   -3.1562   -0.1374   -0.1889 C   0  0  2  0  0  0  0  0  0  0  0  0
   -4.0559    0.6166    0.8178 C   0  0  0  0  0  0  0  0  0  0  0  0
   -5.0636    1.1833    0.4152 O   0  0  0  0  0  0  0  0  0  0  0  0
   -3.3926   -1.6517   -0.1096 C   0  0  0  0  0  0  0  0  0  0  0  0
   -1.2819    0.5703   -0.9350 H   0  0  0  0  0  0  0  0  0  0  0  0
   -3.4872    0.1834   -1.1822 H   0  0  0  0  0  0  0  0  0  0  0  0
   -3.1776   -2.0351    0.8921 H   0  0  0  0  0  0  0  0  0  0  0  0
   -4.4368   -1.8803   -0.3445 H   0  0  0  0  0  0  0  0  0  0  0  0
   -2.7536   -2.1737   -0.8278 H   0  0  0  0  0  0  0  0  0  0  0  0
   -3.7554    0.6549    2.1643 N   0  0  0  0  0  0  0  0  0  0  0  0
   -4.5660    1.3315    3.1663 C   0  0  0  0  0  0  0  0  0  0  0  0
   -2.9098    0.1543    2.4520 H   0  0  0  0  0  0  0  0  0  0  0  0
   -4.1359    1.1830    4.1614 H   0  0  0  0  0  0  0  0  0  0  0  0
   -4.6065    2.4065    2.9631 H   0  0  0  0  0  0  0  0  0  0  0  0
   -5.5857    0.9327    3.1669 H   0  0  0  0  0  0  0  0  0  0  0  0
  1  2  2  0  0  0  0
  1  3  1  0  0  0  0
  1  7  1  0  0  0  0
  3  4  1  0  0  0  0
  3  5  1  0  0  0  0
  3  6  1  0  0  0  0
  7  8  1  0  0  0  0
  7 12  1  0  0  0  0
  8  9  1  0  0  0  0
  8 11  1  0  0  0  0
  8 13  1  0  0  0  0
  9 10  2  0  0  0  0
  9 17  1  0  0  0  0
 11 14  1  0  0  0  0
 11 15  1  0  0  0  0
 11 16  1  0  0  0  0
 17 18  1  0  0  0  0
 17 25  1  0  0  0  0
 18 19  1  0  0  0  0
 18 21  1  0  0  0  0
 18 26  1  0  0  0  0
 19 20  2  0  0  0  0
 19 36  1  0  0  0  0
 21 22  1  0  0  0  0
 21 27  1  0  0  0  0
 21 28  1  0  0  0  0
 22 23  1  0  0  0  0
 22 24  1  0  0  0  0
 22 29  1  0  0  0  0
 23 30  1  0  0  0  0
 23 31  1  0  0  0  0
 23 32  1  0  0  0  0
 24 33  1  0  0  0  0
 24 34  1  0  0  0  0
 24 35  1  0  0  0  0
 36 37  1  0  0  0  0
 36 41  1  0  0  0  0
 37 38  1  0  0  0  0
 37 40  1  0  0  0  0
 37 42  1  0  0  0  0
 38 39  2  0  0  0  0
 38 46  1  0  0  0  0
 40 43  1  0  0  0  0
 40 44  1  0  0  0  0
 40 45  1  0  0  0  0
 46 47  1  0  0  0  0
 46 48  1  0  0  0  0
 47 49  1  0  0  0  0
 47 50  1  0  0  0  0
 47 51  1  0  0  0  0
M  END
$$$$

  -OEChem-05262216553D

 51 50  0     1  0  0  0  0  0999 V2000
    0.4965   -1.8812   -3.1748 C   0  0  0  0  0  0  0  0  0  0  0  0
   -0.0749   -0.8421   -2.8710 O   0  0  0  0  0  0  0  0  0  0  0  0
   -0.2870   -2.9883   -3.8539 C   0  0  0  0  0  0  0  0  0  0  0  0
   -0.3132   -3.8746   -3.2150 H   0  0  0  0  0  0  0  0  0  0  0  0
   -1.3139   -2.6633   -4.0456 H   0  0  0  0  0  0  0  0  0  0  0  0
    0.1814   -3.2480   -4.8064 H   0  0  0  0  0  0  0  0  0  0  0  0
    1.8239   -2.0948   -2.8422 N   0  0  0  0  0  0  0  0  0  0  0  0
    2.7768   -1.1292   -2.2449 C   0  0  2  0  0  0  0  0  0  0  0  0
    2.4597   -0.6911   -0.7936 C   0  0  0  0  0  0  0  0  0  0  0  0
    3.3349   -0.7091    0.0586 O   0  0  0  0  0  0  0  0  0  0  0  0
    2.9431    0.0863   -3.1658 C   0  0  0  0  0  0  0  0  0  0  0  0
    2.1938   -3.0088   -3.0913 H   0  0  0  0  0  0  0  0  0  0  0  0
    3.7501   -1.6290   -2.1953 H   0  0  0  0  0  0  0  0  0  0  0  0
    2.0257    0.6807   -3.2073 H   0  0  0  0  0  0  0  0  0  0  0  0
    3.7517    0.7271   -2.8000 H   0  0  0  0  0  0  0  0  0  0  0  0
    3.1937   -0.2371   -4.1806 H   0  0  0  0  0  0  0  0  0  0  0  0
    1.1560   -0.4781   -0.4115 N   0  0  0  0  0  0  0  0  0  0  0  0
    0.6486    0.1841    0.8015 C   0  0  2  0  0  0  0  0  0  0  0  0
   -0.8446   -0.2012    0.9132 C   0  0  0  0  0  0  0  0  0  0  0  0
   -1.3170   -0.4680    2.0104 O   0  0  0  0  0  0  0  0  0  0  0  0
    0.6054    1.7455    0.8492 C   0  0  0  0  0  0  0  0  0  0  0  0
    1.8769    2.6342    0.8377 C   0  0  0  0  0  0  0  0  0  0  0  0
    1.4035    4.0966    0.7504 C   0  0  0  0  0  0  0  0  0  0  0  0
    2.8134    2.4408   -0.3615 C   0  0  0  0  0  0  0  0  0  0  0  0
    0.5099   -0.5482   -1.1967 H   0  0  0  0  0  0  0  0  0  0  0  0
    1.1893   -0.1936    1.6763 H   0  0  0  0  0  0  0  0  0  0  0  0
    0.0565    2.0161    1.7588 H   0  0  0  0  0  0  0  0  0  0  0  0
   -0.0054    2.0675   -0.0015 H   0  0  0  0  0  0  0  0  0  0  0  0
    2.4396    2.4809    1.7647 H   0  0  0  0  0  0  0  0  0  0  0  0
    0.8991    4.2898   -0.2021 H   0  0  0  0  0  0  0  0  0  0  0  0
    2.2523    4.7823    0.8391 H   0  0  0  0  0  0  0  0  0  0  0  0
    0.7062    4.3218    1.5637 H   0  0  0  0  0  0  0  0  0  0  0  0
    3.5652    1.6853   -0.1413 H   0  0  0  0  0  0  0  0  0  0  0  0
    3.3627    3.3601   -0.5885 H   0  0  0  0  0  0  0  0  0  0  0  0
    2.2455    2.1578   -1.2515 H   0  0  0  0  0  0  0  0  0  0  0  0
   -1.6693   -0.1567   -0.2056 N   0  0  0  0  0  0  0  0  0  0  0  0
   -3.0974   -0.5258   -0.2816 C   0  0  2  0  0  0  0  0  0  0  0  0
   -4.0623    0.4233    0.4657 C   0  0  0  0  0  0  0  0  0  0  0  0
   -5.0565    0.8456   -0.1107 O   0  0  0  0  0  0  0  0  0  0  0  0
   -3.3150   -1.9808    0.1550 C   0  0  0  0  0  0  0  0  0  0  0  0
   -1.2129    0.0792   -1.0861 H   0  0  0  0  0  0  0  0  0  0  0  0
   -3.3794   -0.4662   -1.3378 H   0  0  0  0  0  0  0  0  0  0  0  0
   -3.1501   -2.1015    1.2297 H   0  0  0  0  0  0  0  0  0  0  0  0
   -4.3416   -2.2880   -0.0675 H   0  0  0  0  0  0  0  0  0  0  0  0
   -2.6301   -2.6453   -0.3799 H   0  0  0  0  0  0  0  0  0  0  0  0
   -3.8393    0.7882    1.7780 N   0  0  0  0  0  0  0  0  0  0  0  0
   -4.7226    1.6495    2.5508 C   0  0  0  0  0  0  0  0  0  0  0  0
   -3.0063    0.3903    2.2209 H   0  0  0  0  0  0  0  0  0  0  0  0
   -4.3413    1.7624    3.5700 H   0  0  0  0  0  0  0  0  0  0  0  0
   -4.7859    2.6416    2.0924 H   0  0  0  0  0  0  0  0  0  0  0  0
   -5.7279    1.2190    2.6032 H   0  0  0  0  0  0  0  0  0  0  0  0
  1  2  2  0  0  0  0
  1  3  1  0  0  0  0
  1  7  1  0  0  0  0
  3  4  1  0  0  0  0
  3  5  1  0  0  0  0
  3  6  1  0  0  0  0
  7  8  1  0  0  0  0
  7 12  1  0  0  0  0
  8  9  1  0  0  0  0
  8 11  1  0  0  0  0
  8 13  1  0  0  0  0
  9 10  2  0  0  0  0
  9 17  1  0  0  0  0
 11 14  1  0  0  0  0
 11 15  1  0  0  0  0
 11 16  1  0  0  0  0
 17 18  1  0  0  0  0
 17 25  1  0  0  0  0
 18 19  1  0  0  0  0
 18 21  1  0  0  0  0
 18 26  1  0  0  0  0
 19 20  2  0  0  0  0
 19 36  1  0  0  0  0
 21 22  1  0  0  0  0
 21 27  1  0  0  0  0
 21 28  1  0  0  0  0
 22 23  1  0  0  0  0
 22 24  1  0  0  0  0
 22 29  1  0  0  0  0
 23 30  1  0  0  0  0
 23 31  1  0  0  0  0
 23 32  1  0  0  0  0
 24 33  1  0  0  0  0
 24 34  1  0  0  0  0
 24 35  1  0  0  0  0
 36 37  1  0  0  0  0
 36 41  1  0  0  0  0
 37 38  1  0  0  0  0
 37 40  1  0  0  0  0
 37 42  1  0  0  0  0
 38 39  2  0  0  0  0
 38 46  1  0  0  0  0
 40 43  1  0  0  0  0
 40 44  1  0  0  0  0
 40 45  1  0  0  0  0
 46 47  1  0  0  0  0
 46 48  1  0  0  0  0
 47 49  1  0  0  0  0
 47 50  1  0  0  0  0
 47 51  1  0  0  0  0
M  END
$$$$

  -OEChem-05262216553D

 51 50  0     1  0  0  0  0  0999 V2000
    0.5628   -1.9905   -3.1820 C   0  0  0  0  0  0  0  0  0  0  0  0
   -0.0728   -0.9889   -2.8774 O   0  0  0  0  0  0  0  0  0  0  0  0
   -0.1429   -3.1327   -3.8884 C   0  0  0  0  0  0  0  0  0  0  0  0
   -0.0661   -4.0465   -3.2939 H   0  0  0  0  0  0  0  0  0  0  0  0
   -1.2011   -2.8948   -4.0307 H   0  0  0  0  0  0  0  0  0  0  0  0
    0.3121   -3.3042   -4.8672 H   0  0  0  0  0  0  0  0  0  0  0  0
    1.8983   -2.1273   -2.8411 N   0  0  0  0  0  0  0  0  0  0  0  0
    2.7882   -1.1131   -2.2278 C   0  0  2  0  0  0  0  0  0  0  0  0
    2.4317   -0.7102   -0.7756 C   0  0  0  0  0  0  0  0  0  0  0  0
    3.2716   -0.7866    0.1083 O   0  0  0  0  0  0  0  0  0  0  0  0
    2.8886    0.1182   -3.1369 C   0  0  0  0  0  0  0  0  0  0  0  0
    2.3226   -3.0166   -3.0926 H   0  0  0  0  0  0  0  0  0  0  0  0
    3.7890   -1.5546   -2.1757 H   0  0  0  0  0  0  0  0  0  0  0  0
    1.9424    0.6665   -3.1684 H   0  0  0  0  0  0  0  0  0  0  0  0
    3.6666    0.7939   -2.7680 H   0  0  0  0  0  0  0  0  0  0  0  0
    3.1506   -0.1814   -4.1561 H   0  0  0  0  0  0  0  0  0  0  0  0
    1.1190   -0.4831   -0.4353 N   0  0  0  0  0  0  0  0  0  0  0  0
    0.5780    0.1482    0.7808 C   0  0  2  0  0  0  0  0  0  0  0  0
   -0.9321   -0.1958    0.8492 C   0  0  0  0  0  0  0  0  0  0  0  0
   -1.4830   -0.2446    1.9417 O   0  0  0  0  0  0  0  0  0  0  0  0
    0.5685    1.7102    0.8573 C   0  0  0  0  0  0  0  0  0  0  0  0
    1.8569    2.5742    0.9093 C   0  0  0  0  0  0  0  0  0  0  0  0
    1.4132    4.0465    0.8333 C   0  0  0  0  0  0  0  0  0  0  0  0
    2.8371    2.3890   -0.2558 C   0  0  0  0  0  0  0  0  0  0  0  0
    0.5109   -0.4949   -1.2520 H   0  0  0  0  0  0  0  0  0  0  0  0
    1.0840   -0.2608    1.6622 H   0  0  0  0  0  0  0  0  0  0  0  0
   -0.0041    1.9807    1.7520 H   0  0  0  0  0  0  0  0  0  0  0  0
   -0.0076    2.0569   -0.0080 H   0  0  0  0  0  0  0  0  0  0  0  0
    2.3809    2.3927    1.8540 H   0  0  0  0  0  0  0  0  0  0  0  0
    0.9446    4.2660   -0.1317 H   0  0  0  0  0  0  0  0  0  0  0  0
    2.2703    4.7148    0.9641 H   0  0  0  0  0  0  0  0  0  0  0  0
    0.6931    4.2695    1.6267 H   0  0  0  0  0  0  0  0  0  0  0  0
    3.5605    1.6085   -0.0272 H   0  0  0  0  0  0  0  0  0  0  0  0
    3.4183    3.2995   -0.4336 H   0  0  0  0  0  0  0  0  0  0  0  0
    2.2990    2.1468   -1.1758 H   0  0  0  0  0  0  0  0  0  0  0  0
   -1.6824   -0.3998   -0.3051 N   0  0  0  0  0  0  0  0  0  0  0  0
   -3.0989   -0.8115   -0.3928 C   0  0  2  0  0  0  0  0  0  0  0  0
   -4.1288    0.2391    0.0823 C   0  0  0  0  0  0  0  0  0  0  0  0
   -5.1212    0.4576   -0.6006 O   0  0  0  0  0  0  0  0  0  0  0  0
   -3.3267   -2.1536    0.3157 C   0  0  0  0  0  0  0  0  0  0  0  0
   -1.1768   -0.3370   -1.1885 H   0  0  0  0  0  0  0  0  0  0  0  0
   -3.3090   -0.9730   -1.4552 H   0  0  0  0  0  0  0  0  0  0  0  0
   -3.2408   -2.0487    1.4012 H   0  0  0  0  0  0  0  0  0  0  0  0
   -4.3292   -2.5303    0.0894 H   0  0  0  0  0  0  0  0  0  0  0  0
   -2.5937   -2.8917   -0.0232 H   0  0  0  0  0  0  0  0  0  0  0  0
   -3.9729    0.9123    1.2769 N   0  0  0  0  0  0  0  0  0  0  0  0
   -4.9485    1.8449    1.8223 C   0  0  0  0  0  0  0  0  0  0  0  0
   -3.1615    0.6438    1.8404 H   0  0  0  0  0  0  0  0  0  0  0  0
   -4.5975    2.2384    2.7811 H   0  0  0  0  0  0  0  0  0  0  0  0
   -5.0994    2.6854    1.1369 H   0  0  0  0  0  0  0  0  0  0  0  0
   -5.9086    1.3437    1.9834 H   0  0  0  0  0  0  0  0  0  0  0  0
  1  2  2  0  0  0  0
  1  3  1  0  0  0  0
  1  7  1  0  0  0  0
  3  4  1  0  0  0  0
  3  5  1  0  0  0  0
  3  6  1  0  0  0  0
  7  8  1  0  0  0  0
  7 12  1  0  0  0  0
  8  9  1  0  0  0  0
  8 11  1  0  0  0  0
  8 13  1  0  0  0  0
  9 10  2  0  0  0  0
  9 17  1  0  0  0  0
 11 14  1  0  0  0  0
 11 15  1  0  0  0  0
 11 16  1  0  0  0  0
 17 18  1  0  0  0  0
 17 25  1  0  0  0  0
 18 19  1  0  0  0  0
 18 21  1  0  0  0  0
 18 26  1  0  0  0  0
 19 20  2  0  0  0  0
 19 36  1  0  0  0  0
 21 22  1  0  0  0  0
 21 27  1  0  0  0  0
 21 28  1  0  0  0  0
 22 23  1  0  0  0  0
 22 24  1  0  0  0  0
 22 29  1  0  0  0  0
 23 30  1  0  0  0  0
 23 31  1  0  0  0  0
 23 32  1  0  0  0  0
 24 33  1  0  0  0  0
 24 34  1  0  0  0  0
 24 35  1  0  0  0  0
 36 37  1  0  0  0  0
 36 41  1  0  0  0  0
 37 38  1  0  0  0  0
 37 40  1  0  0  0  0
 37 42  1  0  0  0  0
 38 39  2  0  0  0  0
 38 46  1  0  0  0  0
 40 43  1  0  0  0  0
 40 44  1  0  0  0  0
 40 45  1  0  0  0  0
 46 47  1  0  0  0  0
 46 48  1  0  0  0  0
 47 49  1  0  0  0  0
 47 50  1  0  0  0  0
 47 51  1  0  0  0  0
M  END
$$$$

  -OEChem-05262216553D

 51 50  0     1  0  0  0  0  0999 V2000
    0.6705   -2.2020   -3.1507 C   0  0  0  0  0  0  0  0  0  0  0  0
   -0.0708   -1.2689   -2.8680 O   0  0  0  0  0  0  0  0  0  0  0  0
    0.0855   -3.4516   -3.7805 C   0  0  0  0  0  0  0  0  0  0  0  0
    0.2288   -4.3076   -3.1163 H   0  0  0  0  0  0  0  0  0  0  0  0
   -0.9859   -3.3199   -3.9578 H   0  0  0  0  0  0  0  0  0  0  0  0
    0.5764   -3.6541   -4.7357 H   0  0  0  0  0  0  0  0  0  0  0  0
    2.0219   -2.1641   -2.8511 N   0  0  0  0  0  0  0  0  0  0  0  0
    2.7863   -1.0417   -2.2606 C   0  0  2  0  0  0  0  0  0  0  0  0
    2.3953   -0.6901   -0.8053 C   0  0  0  0  0  0  0  0  0  0  0  0
    3.2039   -0.8339    0.0992 O   0  0  0  0  0  0  0  0  0  0  0  0
    2.7129    0.1888   -3.1744 C   0  0  0  0  0  0  0  0  0  0  0  0
    2.5424   -3.0104   -3.0685 H   0  0  0  0  0  0  0  0  0  0  0  0
    3.8363   -1.3507   -2.2232 H   0  0  0  0  0  0  0  0  0  0  0  0
    1.7126    0.6322   -3.1651 H   0  0  0  0  0  0  0  0  0  0  0  0
    3.4284    0.9469   -2.8414 H   0  0  0  0  0  0  0  0  0  0  0  0
    2.9609   -0.0873   -4.2038 H   0  0  0  0  0  0  0  0  0  0  0  0
    1.0724   -0.4820   -0.4916 N   0  0  0  0  0  0  0  0  0  0  0  0
    0.5007    0.0721    0.7486 C   0  0  2  0  0  0  0  0  0  0  0  0
   -1.0175   -0.2621    0.7727 C   0  0  0  0  0  0  0  0  0  0  0  0
   -1.6418   -0.1328    1.8189 O   0  0  0  0  0  0  0  0  0  0  0  0
    0.5098    1.6314    0.9037 C   0  0  0  0  0  0  0  0  0  0  0  0
    1.8032    2.4800    1.0344 C   0  0  0  0  0  0  0  0  0  0  0  0
    1.3707    3.9578    1.0199 C   0  0  0  0  0  0  0  0  0  0  0  0
    2.8188    2.3482   -0.1070 C   0  0  0  0  0  0  0  0  0  0  0  0
    0.4890   -0.4383   -1.3269 H   0  0  0  0  0  0  0  0  0  0  0  0
    0.9853   -0.3898    1.6155 H   0  0  0  0  0  0  0  0  0  0  0  0
   -0.0793    1.8693    1.7966 H   0  0  0  0  0  0  0  0  0  0  0  0
   -0.0414    2.0258    0.0424 H   0  0  0  0  0  0  0  0  0  0  0  0
    2.2967    2.2474    1.9842 H   0  0  0  0  0  0  0  0  0  0  0  0
    0.9339    4.2289    0.0529 H   0  0  0  0  0  0  0  0  0  0  0  0
    2.2276    4.6121    1.2104 H   0  0  0  0  0  0  0  0  0  0  0  0
    0.6272    4.1471    1.8008 H   0  0  0  0  0  0  0  0  0  0  0  0
    3.5384    1.5610    0.1116 H   0  0  0  0  0  0  0  0  0  0  0  0
    3.4010    3.2673   -0.2283 H   0  0  0  0  0  0  0  0  0  0  0  0
    2.3104    2.1443   -1.0528 H   0  0  0  0  0  0  0  0  0  0  0  0
   -1.6941   -0.6888   -0.3664 N   0  0  0  0  0  0  0  0  0  0  0  0
   -3.1175   -1.0694   -0.4784 C   0  0  2  0  0  0  0  0  0  0  0  0
   -4.1287    0.0846   -0.2828 C   0  0  0  0  0  0  0  0  0  0  0  0
   -5.0616    0.2058   -1.0666 O   0  0  0  0  0  0  0  0  0  0  0  0
   -3.4501   -2.2492    0.4450 C   0  0  0  0  0  0  0  0  0  0  0  0
   -1.1318   -0.8033   -1.2098 H   0  0  0  0  0  0  0  0  0  0  0  0
   -3.2634   -1.4194   -1.5056 H   0  0  0  0  0  0  0  0  0  0  0  0
   -3.4294   -1.9486    1.4965 H   0  0  0  0  0  0  0  0  0  0  0  0
   -4.4514   -2.6294    0.2196 H   0  0  0  0  0  0  0  0  0  0  0  0
   -2.7310   -3.0606    0.2994 H   0  0  0  0  0  0  0  0  0  0  0  0
   -4.0190    0.9671    0.7729 N   0  0  0  0  0  0  0  0  0  0  0  0
   -4.9818    2.0196    1.0637 C   0  0  0  0  0  0  0  0  0  0  0  0
   -3.2650    0.7760    1.4385 H   0  0  0  0  0  0  0  0  0  0  0  0
   -4.6511    2.6037    1.9278 H   0  0  0  0  0  0  0  0  0  0  0  0
   -5.0808    2.6954    0.2081 H   0  0  0  0  0  0  0  0  0  0  0  0
   -5.9628    1.5893    1.2898 H   0  0  0  0  0  0  0  0  0  0  0  0
  1  2  2  0  0  0  0
  1  3  1  0  0  0  0
  1  7  1  0  0  0  0
  3  4  1  0  0  0  0
  3  5  1  0  0  0  0
  3  6  1  0  0  0  0
  7  8  1  0  0  0  0
  7 12  1  0  0  0  0
  8  9  1  0  0  0  0
  8 11  1  0  0  0  0
  8 13  1  0  0  0  0
  9 10  2  0  0  0  0
  9 17  1  0  0  0  0
 11 14  1  0  0  0  0
 11 15  1  0  0  0  0
 11 16  1  0  0  0  0
 17 18  1  0  0  0  0
 17 25  1  0  0  0  0
 18 19  1  0  0  0  0
 18 21  1  0  0  0  0
 18 26  1  0  0  0  0
 19 20  2  0  0  0  0
 19 36  1  0  0  0  0
 21 22  1  0  0  0  0
 21 27  1  0  0  0  0
 21 28  1  0  0  0  0
 22 23  1  0  0  0  0
 22 24  1  0  0  0  0
 22 29  1  0  0  0  0
 23 30  1  0  0  0  0
 23 31  1  0  0  0  0
 23 32  1  0  0  0  0
 24 33  1  0  0  0  0
 24 34  1  0  0  0  0
 24 35  1  0  0  0  0
 36 37  1  0  0  0  0
 36 41  1  0  0  0  0
 37 38  1  0  0  0  0
 37 40  1  0  0  0  0
 37 42  1  0  0  0  0
 38 39  2  0  0  0  0
 38 46  1  0  0  0  0
 40 43  1  0  0  0  0
 40 44  1  0  0  0  0
 40 45  1  0  0  0  0
 46 47  1  0  0  0  0
 46 48  1  0  0  0  0
 47 49  1  0  0  0  0
 47 50  1  0  0  0  0
 47 51  1  0  0  0  0
M  END
$$$$

  -OEChem-05262216553D

 51 50  0     1  0  0  0  0  0999 V2000
    0.7348   -2.3565   -3.1396 C   0  0  0  0  0  0  0  0  0  0  0  0
   -0.1012   -1.5220   -2.8174 O   0  0  0  0  0  0  0  0  0  0  0  0
    0.2837   -3.6683   -3.7536 C   0  0  0  0  0  0  0  0  0  0  0  0
    0.5428   -4.4994   -3.0928 H   0  0  0  0  0  0  0  0  0  0  0  0
   -0.7996   -3.6632   -3.9048 H   0  0  0  0  0  0  0  0  0  0  0  0
    0.7711   -3.8158   -4.7207 H   0  0  0  0  0  0  0  0  0  0  0  0
    2.0832   -2.1461   -2.9092 N   0  0  0  0  0  0  0  0  0  0  0  0
    2.7197   -0.9337   -2.3488 C   0  0  2  0  0  0  0  0  0  0  0  0
    2.3362   -0.6326   -0.8805 C   0  0  0  0  0  0  0  0  0  0  0  0
    3.1490   -0.8193    0.0127 O   0  0  0  0  0  0  0  0  0  0  0  0
    2.4601    0.2727   -3.2622 C   0  0  0  0  0  0  0  0  0  0  0  0
    2.6958   -2.9227   -3.1449 H   0  0  0  0  0  0  0  0  0  0  0  0
    3.8012   -1.1066   -2.3479 H   0  0  0  0  0  0  0  0  0  0  0  0
    1.4131    0.5872   -3.2208 H   0  0  0  0  0  0  0  0  0  0  0  0
    3.0856    1.1165   -2.9564 H   0  0  0  0  0  0  0  0  0  0  0  0
    2.7061    0.0237   -4.2990 H   0  0  0  0  0  0  0  0  0  0  0  0
    1.0152   -0.4420   -0.5445 N   0  0  0  0  0  0  0  0  0  0  0  0
    0.4626    0.0571    0.7287 C   0  0  2  0  0  0  0  0  0  0  0  0
   -1.0581   -0.2838    0.7552 C   0  0  0  0  0  0  0  0  0  0  0  0
   -1.7360    0.0064    1.7342 O   0  0  0  0  0  0  0  0  0  0  0  0
    0.4950    1.6113    0.9473 C   0  0  0  0  0  0  0  0  0  0  0  0
    1.7984    2.4433    1.0967 C   0  0  0  0  0  0  0  0  0  0  0  0
    1.3762    3.9235    1.1474 C   0  0  0  0  0  0  0  0  0  0  0  0
    2.7996    2.3554   -0.0624 C   0  0  0  0  0  0  0  0  0  0  0  0
    0.4097   -0.3927   -1.3655 H   0  0  0  0  0  0  0  0  0  0  0  0
    0.9561   -0.4449    1.5674 H   0  0  0  0  0  0  0  0  0  0  0  0
   -0.0724    1.8217    1.8604 H   0  0  0  0  0  0  0  0  0  0  0  0
   -0.0663    2.0464    0.1126 H   0  0  0  0  0  0  0  0  0  0  0  0
    2.3020    2.1681    2.0297 H   0  0  0  0  0  0  0  0  0  0  0  0
    0.9321    4.2379    0.1970 H   0  0  0  0  0  0  0  0  0  0  0  0
    2.2391    4.5637    1.3574 H   0  0  0  0  0  0  0  0  0  0  0  0
    0.6413    4.0848    1.9424 H   0  0  0  0  0  0  0  0  0  0  0  0
    3.5250    1.5636    0.1179 H   0  0  0  0  0  0  0  0  0  0  0  0
    3.3780    3.2797   -0.1594 H   0  0  0  0  0  0  0  0  0  0  0  0
    2.2784    2.1842   -1.0074 H   0  0  0  0  0  0  0  0  0  0  0  0
   -1.6733   -0.9468   -0.3020 N   0  0  0  0  0  0  0  0  0  0  0  0
   -3.0799   -1.3910   -0.3949 C   0  0  2  0  0  0  0  0  0  0  0  0
   -4.1305   -0.2575   -0.4591 C   0  0  0  0  0  0  0  0  0  0  0  0
   -5.0234   -0.3111   -1.2951 O   0  0  0  0  0  0  0  0  0  0  0  0
   -3.4207   -2.3873    0.7217 C   0  0  0  0  0  0  0  0  0  0  0  0
   -1.0684   -1.1998   -1.0845 H   0  0  0  0  0  0  0  0  0  0  0  0
   -3.1706   -1.9324   -1.3424 H   0  0  0  0  0  0  0  0  0  0  0  0
   -3.4537   -1.8944    1.6976 H   0  0  0  0  0  0  0  0  0  0  0  0
   -4.4009   -2.8368    0.5349 H   0  0  0  0  0  0  0  0  0  0  0  0
   -2.6741   -3.1861    0.7591 H   0  0  0  0  0  0  0  0  0  0  0  0
   -4.1045    0.8005    0.4273 N   0  0  0  0  0  0  0  0  0  0  0  0
   -5.1089    1.8535    0.4761 C   0  0  0  0  0  0  0  0  0  0  0  0
   -3.3785    0.7615    1.1478 H   0  0  0  0  0  0  0  0  0  0  0  0
   -4.8495    2.5858    1.2466 H   0  0  0  0  0  0  0  0  0  0  0  0
   -5.1685    2.3716   -0.4867 H   0  0  0  0  0  0  0  0  0  0  0  0
   -6.0918    1.4337    0.7129 H   0  0  0  0  0  0  0  0  0  0  0  0
  1  2  2  0  0  0  0
  1  3  1  0  0  0  0
  1  7  1  0  0  0  0
  3  4  1  0  0  0  0
  3  5  1  0  0  0  0
  3  6  1  0  0  0  0
  7  8  1  0  0  0  0
  7 12  1  0  0  0  0
  8  9  1  0  0  0  0
  8 11  1  0  0  0  0
  8 13  1  0  0  0  0
  9 10  2  0  0  0  0
  9 17  1  0  0  0  0
 11 14  1  0  0  0  0
 11 15  1  0  0  0  0
 11 16  1  0  0  0  0
 17 18  1  0  0  0  0
 17 25  1  0  0  0  0
 18 19  1  0  0  0  0
 18 21  1  0  0  0  0
 18 26  1  0  0  0  0
 19 20  2  0  0  0  0
 19 36  1  0  0  0  0
 21 22  1  0  0  0  0
 21 27  1  0  0  0  0
 21 28  1  0  0  0  0
 22 23  1  0  0  0  0
 22 24  1  0  0  0  0
 22 29  1  0  0  0  0
 23 30  1  0  0  0  0
 23 31  1  0  0  0  0
 23 32  1  0  0  0  0
 24 33  1  0  0  0  0
 24 34  1  0  0  0  0
 24 35  1  0  0  0  0
 36 37  1  0  0  0  0
 36 41  1  0  0  0  0
 37 38  1  0  0  0  0
 37 40  1  0  0  0  0
 37 42  1  0  0  0  0
 38 39  2  0  0  0  0
 38 46  1  0  0  0  0
 40 43  1  0  0  0  0
 40 44  1  0  0  0  0
 40 45  1  0  0  0  0
 46 47  1  0  0  0  0
 46 48  1  0  0  0  0
 47 49  1  0  0  0  0
 47 50  1  0  0  0  0
 47 51  1  0  0  0  0
M  END
$$$$

  -OEChem-05262216553D

 51 50  0     1  0  0  0  0  0999 V2000
    0.8148   -2.4298   -3.1190 C   0  0  0  0  0  0  0  0  0  0  0  0
   -0.0950   -1.7065   -2.7366 O   0  0  0  0  0  0  0  0  0  0  0  0
    0.4887   -3.7790   -3.7312 C   0  0  0  0  0  0  0  0  0  0  0  0
    0.8662   -4.5812   -3.0919 H   0  0  0  0  0  0  0  0  0  0  0  0
   -0.5941   -3.8942   -3.8386 H   0  0  0  0  0  0  0  0  0  0  0  0
    0.9483   -3.8631   -4.7193 H   0  0  0  0  0  0  0  0  0  0  0  0
    2.1380   -2.0569   -2.9624 N   0  0  0  0  0  0  0  0  0  0  0  0
    2.6454   -0.7828   -2.4095 C   0  0  2  0  0  0  0  0  0  0  0  0
    2.2801   -0.5464   -0.9250 C   0  0  0  0  0  0  0  0  0  0  0  0
    3.1103   -0.7629   -0.0547 O   0  0  0  0  0  0  0  0  0  0  0  0
    2.2132    0.3901   -3.3014 C   0  0  0  0  0  0  0  0  0  0  0  0
    2.8281   -2.7478   -3.2454 H   0  0  0  0  0  0  0  0  0  0  0  0
    3.7392   -0.8247   -2.4453 H   0  0  0  0  0  0  0  0  0  0  0  0
    1.1350    0.5642   -3.2390 H   0  0  0  0  0  0  0  0  0  0  0  0
    2.7283    1.3058   -2.9964 H   0  0  0  0  0  0  0  0  0  0  0  0
    2.4705    0.1855   -4.3452 H   0  0  0  0  0  0  0  0  0  0  0  0
    0.9626   -0.3992   -0.5535 N   0  0  0  0  0  0  0  0  0  0  0  0
    0.4282    0.0211    0.7558 C   0  0  2  0  0  0  0  0  0  0  0  0
   -1.0860   -0.3600    0.7714 C   0  0  0  0  0  0  0  0  0  0  0  0
   -1.8401    0.0609    1.6417 O   0  0  0  0  0  0  0  0  0  0  0  0
    0.4514    1.5636    1.0529 C   0  0  0  0  0  0  0  0  0  0  0  0
    1.7477    2.4038    1.2202 C   0  0  0  0  0  0  0  0  0  0  0  0
    1.3051    3.8731    1.3539 C   0  0  0  0  0  0  0  0  0  0  0  0
    2.7280    2.3941    0.0393 C   0  0  0  0  0  0  0  0  0  0  0  0
    0.3244   -0.3699   -1.3515 H   0  0  0  0  0  0  0  0  0  0  0  0
    0.9426   -0.5181    1.5582 H   0  0  0  0  0  0  0  0  0  0  0  0
   -0.0926    1.7192    1.9906 H   0  0  0  0  0  0  0  0  0  0  0  0
   -0.1356    2.0349    0.2567 H   0  0  0  0  0  0  0  0  0  0  0  0
    2.2730    2.0883    2.1280 H   0  0  0  0  0  0  0  0  0  0  0  0
    0.8356    4.2271    0.4299 H   0  0  0  0  0  0  0  0  0  0  0  0
    2.1626    4.5160    1.5772 H   0  0  0  0  0  0  0  0  0  0  0  0
    0.5858    3.9830    2.1716 H   0  0  0  0  0  0  0  0  0  0  0  0
    3.4697    1.6071    0.1639 H   0  0  0  0  0  0  0  0  0  0  0  0
    3.2903    3.3316   -0.0191 H   0  0  0  0  0  0  0  0  0  0  0  0
    2.1925    2.2642   -0.9043 H   0  0  0  0  0  0  0  0  0  0  0  0
   -1.6036   -1.2388   -0.1740 N   0  0  0  0  0  0  0  0  0  0  0  0
   -2.9874   -1.7465   -0.2839 C   0  0  2  0  0  0  0  0  0  0  0  0
   -4.0571   -0.6840   -0.6284 C   0  0  0  0  0  0  0  0  0  0  0  0
   -4.8853   -0.9221   -1.4985 O   0  0  0  0  0  0  0  0  0  0  0  0
   -3.3900   -2.5385    0.9674 C   0  0  0  0  0  0  0  0  0  0  0  0
   -0.9486   -1.5492   -0.8939 H   0  0  0  0  0  0  0  0  0  0  0  0
   -2.9911   -2.4524   -1.1208 H   0  0  0  0  0  0  0  0  0  0  0  0
   -3.5118   -1.8796    1.8319 H   0  0  0  0  0  0  0  0  0  0  0  0
   -4.3410   -3.0521    0.7944 H   0  0  0  0  0  0  0  0  0  0  0  0
   -2.6296   -3.2886    1.2043 H   0  0  0  0  0  0  0  0  0  0  0  0
   -4.1218    0.5179    0.0475 N   0  0  0  0  0  0  0  0  0  0  0  0
   -5.1515    1.5242   -0.1677 C   0  0  0  0  0  0  0  0  0  0  0  0
   -3.4547    0.6347    0.8150 H   0  0  0  0  0  0  0  0  0  0  0  0
   -4.9605    2.3986    0.4618 H   0  0  0  0  0  0  0  0  0  0  0  0
   -5.1590    1.8469   -1.2140 H   0  0  0  0  0  0  0  0  0  0  0  0
   -6.1379    1.1221    0.0855 H   0  0  0  0  0  0  0  0  0  0  0  0
  1  2  2  0  0  0  0
  1  3  1  0  0  0  0
  1  7  1  0  0  0  0
  3  4  1  0  0  0  0
  3  5  1  0  0  0  0
  3  6  1  0  0  0  0
  7  8  1  0  0  0  0
  7 12  1  0  0  0  0
  8  9  1  0  0  0  0
  8 11  1  0  0  0  0
  8 13  1  0  0  0  0
  9 10  2  0  0  0  0
  9 17  1  0  0  0  0
 11 14  1  0  0  0  0
 11 15  1  0  0  0  0
 11 16  1  0  0  0  0
 17 18  1  0  0  0  0
 17 25  1  0  0  0  0
 18 19  1  0  0  0  0
 18 21  1  0  0  0  0
 18 26  1  0  0  0  0
 19 20  2  0  0  0  0
 19 36  1  0  0  0  0
 21 22  1  0  0  0  0
 21 27  1  0  0  0  0
 21 28  1  0  0  0  0
 22 23  1  0  0  0  0
 22 24  1  0  0  0  0
 22 29  1  0  0  0  0
 23 30  1  0  0  0  0
 23 31  1  0  0  0  0
 23 32  1  0  0  0  0
 24 33  1  0  0  0  0
 24 34  1  0  0  0  0
 24 35  1  0  0  0  0
 36 37  1  0  0  0  0
 36 41  1  0  0  0  0
 37 38  1  0  0  0  0
 37 40  1  0  0  0  0
 37 42  1  0  0  0  0
 38 39  2  0  0  0  0
 38 46  1  0  0  0  0
 40 43  1  0  0  0  0
 40 44  1  0  0  0  0
 40 45  1  0  0  0  0
 46 47  1  0  0  0  0
 46 48  1  0  0  0  0
 47 49  1  0  0  0  0
 47 50  1  0  0  0  0
 47 51  1  0  0  0  0
M  END
$$$$

  -OEChem-05262216553D

 51 50  0     1  0  0  0  0  0999 V2000
    0.9478   -2.8117   -2.9556 C   0  0  0  0  0  0  0  0  0  0  0  0
   -0.0001   -2.5838   -2.2164 O   0  0  0  0  0  0  0  0  0  0  0  0
    1.1553   -4.2203   -3.4798 C   0  0  0  0  0  0  0  0  0  0  0  0
    2.1284   -4.5991   -3.1571 H   0  0  0  0  0  0  0  0  0  0  0  0
    0.3754   -4.8850   -3.0976 H   0  0  0  0  0  0  0  0  0  0  0  0
    1.1144   -4.2222   -4.5719 H   0  0  0  0  0  0  0  0  0  0  0  0
    1.8529   -1.8253   -3.3092 N   0  0  0  0  0  0  0  0  0  0  0  0
    1.8592   -0.4355   -2.8117 C   0  0  2  0  0  0  0  0  0  0  0  0
    1.9384   -0.3497   -1.2710 C   0  0  0  0  0  0  0  0  0  0  0  0
    3.0059   -0.5732   -0.7155 O   0  0  0  0  0  0  0  0  0  0  0  0
    0.6680    0.3386   -3.3951 C   0  0  0  0  0  0  0  0  0  0  0  0
    2.6684   -2.1389   -3.8270 H   0  0  0  0  0  0  0  0  0  0  0  0
    2.7680    0.0514   -3.1793 H   0  0  0  0  0  0  0  0  0  0  0  0
   -0.2824   -0.1270   -3.1222 H   0  0  0  0  0  0  0  0  0  0  0  0
    0.6658    1.3690   -3.0266 H   0  0  0  0  0  0  0  0  0  0  0  0
    0.7337    0.3624   -4.4868 H   0  0  0  0  0  0  0  0  0  0  0  0
    0.7898   -0.3841   -0.5145 N   0  0  0  0  0  0  0  0  0  0  0  0
    0.6506   -0.1729    0.9376 C   0  0  2  0  0  0  0  0  0  0  0  0
   -0.7687   -0.7294    1.2660 C   0  0  0  0  0  0  0  0  0  0  0  0
   -1.5248   -0.2034    2.0767 O   0  0  0  0  0  0  0  0  0  0  0  0
    0.6701    1.3123    1.4429 C   0  0  0  0  0  0  0  0  0  0  0  0
    1.9076    2.2472    1.3502 C   0  0  0  0  0  0  0  0  0  0  0  0
    1.4476    3.6385    1.8236 C   0  0  0  0  0  0  0  0  0  0  0  0
    2.4848    2.4743   -0.0553 C   0  0  0  0  0  0  0  0  0  0  0  0
   -0.0738   -0.3098   -1.0624 H   0  0  0  0  0  0  0  0  0  0  0  0
    1.4042   -0.7550    1.4770 H   0  0  0  0  0  0  0  0  0  0  0  0
    0.4144    1.2865    2.5079 H   0  0  0  0  0  0  0  0  0  0  0  0
   -0.1511    1.8200    0.9239 H   0  0  0  0  0  0  0  0  0  0  0  0
    2.6981    1.8725    2.0092 H   0  0  0  0  0  0  0  0  0  0  0  0
    0.7043    4.0595    1.1386 H   0  0  0  0  0  0  0  0  0  0  0  0
    2.2971    4.3265    1.8814 H   0  0  0  0  0  0  0  0  0  0  0  0
    1.0014    3.5748    2.8211 H   0  0  0  0  0  0  0  0  0  0  0  0
    3.2967    1.7749   -0.2499 H   0  0  0  0  0  0  0  0  0  0  0  0
    2.9175    3.4751   -0.1517 H   0  0  0  0  0  0  0  0  0  0  0  0
    1.7072    2.3710   -0.8172 H   0  0  0  0  0  0  0  0  0  0  0  0
   -1.2555   -1.7689    0.4812 N   0  0  0  0  0  0  0  0  0  0  0  0
   -2.6538   -1.8139    0.0271 C   0  0  2  0  0  0  0  0  0  0  0  0
   -3.0621   -0.4924   -0.6756 C   0  0  0  0  0  0  0  0  0  0  0  0
   -2.2434    0.1024   -1.3739 O   0  0  0  0  0  0  0  0  0  0  0  0
   -3.6001   -2.2394    1.1626 C   0  0  0  0  0  0  0  0  0  0  0  0
   -0.5772   -2.0793   -0.2210 H   0  0  0  0  0  0  0  0  0  0  0  0
   -2.7153   -2.5917   -0.7403 H   0  0  0  0  0  0  0  0  0  0  0  0
   -3.7181   -1.4435    1.9035 H   0  0  0  0  0  0  0  0  0  0  0  0
   -4.5876   -2.4869    0.7622 H   0  0  0  0  0  0  0  0  0  0  0  0
   -3.2035   -3.1253    1.6679 H   0  0  0  0  0  0  0  0  0  0  0  0
   -4.3411    0.0230   -0.5619 N   0  0  0  0  0  0  0  0  0  0  0  0
   -4.7260    1.3159   -1.1143 C   0  0  0  0  0  0  0  0  0  0  0  0
   -4.9401   -0.4036    0.1384 H   0  0  0  0  0  0  0  0  0  0  0  0
   -5.7907    1.4993   -0.9413 H   0  0  0  0  0  0  0  0  0  0  0  0
   -4.1529    2.1199   -0.6405 H   0  0  0  0  0  0  0  0  0  0  0  0
   -4.5441    1.3421   -2.1940 H   0  0  0  0  0  0  0  0  0  0  0  0
  1  2  2  0  0  0  0
  1  3  1  0  0  0  0
  1  7  1  0  0  0  0
  3  4  1  0  0  0  0
  3  5  1  0  0  0  0
  3  6  1  0  0  0  0
  7  8  1  0  0  0  0
  7 12  1  0  0  0  0
  8  9  1  0  0  0  0
  8 11  1  0  0  0  0
  8 13  1  0  0  0  0
  9 10  2  0  0  0  0
  9 17  1  0  0  0  0
 11 14  1  0  0  0  0
 11 15  1  0  0  0  0
 11 16  1  0  0  0  0
 17 18  1  0  0  0  0
 17 25  1  0  0  0  0
 18 19  1  0  0  0  0
 18 21  1  0  0  0  0
 18 26  1  0  0  0  0
 19 20  2  0  0  0  0
 19 36  1  0  0  0  0
 21 22  1  0  0  0  0
 21 27  1  0  0  0  0
 21 28  1  0  0  0  0
 22 23  1  0  0  0  0
 22 24  1  0  0  0  0
 22 29  1  0  0  0  0
 23 30  1  0  0  0  0
 23 31  1  0  0  0  0
 23 32  1  0  0  0  0
 24 33  1  0  0  0  0
 24 34  1  0  0  0  0
 24 35  1  0  0  0  0
 36 37  1  0  0  0  0
 36 41  1  0  0  0  0
 37 38  1  0  0  0  0
 37 40  1  0  0  0  0
 37 42  1  0  0  0  0
 38 39  2  0  0  0  0
 38 46  1  0  0  0  0
 40 43  1  0  0  0  0
 40 44  1  0  0  0  0
 40 45  1  0  0  0  0
 46 47  1  0  0  0  0
 46 48  1  0  0  0  0
 47 49  1  0  0  0  0
 47 50  1  0  0  0  0
 47 51  1  0  0  0  0
M  END
$$$$

  -OEChem-05262216553D

 51 50  0     1  0  0  0  0  0999 V2000
    0.8905   -2.8752   -2.8664 C   0  0  0  0  0  0  0  0  0  0  0  0
   -0.0078   -2.6644   -2.0630 O   0  0  0  0  0  0  0  0  0  0  0  0
    1.1365   -4.2953   -3.3398 C   0  0  0  0  0  0  0  0  0  0  0  0
    2.1050   -4.6465   -2.9752 H   0  0  0  0  0  0  0  0  0  0  0  0
    0.3553   -4.9605   -2.9611 H   0  0  0  0  0  0  0  0  0  0  0  0
    1.1293   -4.3327   -4.4319 H   0  0  0  0  0  0  0  0  0  0  0  0
    1.7092   -1.8617   -3.3362 N   0  0  0  0  0  0  0  0  0  0  0  0
    1.6813   -0.4546   -2.8918 C   0  0  2  0  0  0  0  0  0  0  0  0
    1.8317   -0.3096   -1.3606 C   0  0  0  0  0  0  0  0  0  0  0  0
    2.9135   -0.5668   -0.8487 O   0  0  0  0  0  0  0  0  0  0  0  0
    0.4318    0.2419   -3.4487 C   0  0  0  0  0  0  0  0  0  0  0  0
    2.5006   -2.1579   -3.8993 H   0  0  0  0  0  0  0  0  0  0  0  0
    2.5504    0.0544   -3.3196 H   0  0  0  0  0  0  0  0  0  0  0  0
   -0.4807   -0.2690   -3.1317 H   0  0  0  0  0  0  0  0  0  0  0  0
    0.3866    1.2797   -3.1038 H   0  0  0  0  0  0  0  0  0  0  0  0
    0.4574    0.2421   -4.5423 H   0  0  0  0  0  0  0  0  0  0  0  0
    0.7189   -0.2821   -0.5507 N   0  0  0  0  0  0  0  0  0  0  0  0
    0.6697   -0.1097    0.9114 C   0  0  2  0  0  0  0  0  0  0  0  0
   -0.7716   -0.5716    1.2685 C   0  0  0  0  0  0  0  0  0  0  0  0
   -1.5458    0.0786    1.9642 O   0  0  0  0  0  0  0  0  0  0  0  0
    0.8224    1.3470    1.4734 C   0  0  0  0  0  0  0  0  0  0  0  0
    2.1183    2.1956    1.3528 C   0  0  0  0  0  0  0  0  0  0  0  0
    1.7840    3.5939    1.9054 C   0  0  0  0  0  0  0  0  0  0  0  0
    2.6326    2.4467   -0.0745 C   0  0  0  0  0  0  0  0  0  0  0  0
   -0.1773   -0.2488   -1.0488 H   0  0  0  0  0  0  0  0  0  0  0  0
    1.3982   -0.7675    1.3954 H   0  0  0  0  0  0  0  0  0  0  0  0
    0.6079    1.2917    2.5464 H   0  0  0  0  0  0  0  0  0  0  0  0
    0.0215    1.9369    1.0126 H   0  0  0  0  0  0  0  0  0  0  0  0
    2.9139    1.7383    1.9504 H   0  0  0  0  0  0  0  0  0  0  0  0
    1.0382    4.0954    1.2795 H   0  0  0  0  0  0  0  0  0  0  0  0
    2.6828    4.2180    1.9445 H   0  0  0  0  0  0  0  0  0  0  0  0
    1.3866    3.5174    2.9226 H   0  0  0  0  0  0  0  0  0  0  0  0
    3.4044    1.7232   -0.3335 H   0  0  0  0  0  0  0  0  0  0  0  0
    3.1011    3.4319   -0.1639 H   0  0  0  0  0  0  0  0  0  0  0  0
    1.8144    2.3993   -0.7988 H   0  0  0  0  0  0  0  0  0  0  0  0
   -1.2198   -1.7422    0.6694 N   0  0  0  0  0  0  0  0  0  0  0  0
   -2.6261   -1.9252    0.2762 C   0  0  2  0  0  0  0  0  0  0  0  0
   -3.1390   -0.7535   -0.6034 C   0  0  0  0  0  0  0  0  0  0  0  0
   -2.3656   -0.1638   -1.3554 O   0  0  0  0  0  0  0  0  0  0  0  0
   -3.5113   -2.2117    1.5012 C   0  0  0  0  0  0  0  0  0  0  0  0
   -0.5435   -2.1160   -0.0029 H   0  0  0  0  0  0  0  0  0  0  0  0
   -2.6666   -2.8157   -0.3587 H   0  0  0  0  0  0  0  0  0  0  0  0
   -3.6620   -1.3103    2.1024 H   0  0  0  0  0  0  0  0  0  0  0  0
   -4.4905   -2.5829    1.1854 H   0  0  0  0  0  0  0  0  0  0  0  0
   -3.0437   -2.9734    2.1324 H   0  0  0  0  0  0  0  0  0  0  0  0
   -4.4730   -0.3861   -0.6027 N   0  0  0  0  0  0  0  0  0  0  0  0
   -4.9801    0.7606   -1.3460 C   0  0  0  0  0  0  0  0  0  0  0  0
   -5.0571   -0.7949    0.1203 H   0  0  0  0  0  0  0  0  0  0  0  0
   -6.0640    0.8429   -1.2208 H   0  0  0  0  0  0  0  0  0  0  0  0
   -4.5166    1.6850   -0.9856 H   0  0  0  0  0  0  0  0  0  0  0  0
   -4.7651    0.6514   -2.4144 H   0  0  0  0  0  0  0  0  0  0  0  0
  1  2  2  0  0  0  0
  1  3  1  0  0  0  0
  1  7  1  0  0  0  0
  3  4  1  0  0  0  0
  3  5  1  0  0  0  0
  3  6  1  0  0  0  0
  7  8  1  0  0  0  0
  7 12  1  0  0  0  0
  8  9  1  0  0  0  0
  8 11  1  0  0  0  0
  8 13  1  0  0  0  0
  9 10  2  0  0  0  0
  9 17  1  0  0  0  0
 11 14  1  0  0  0  0
 11 15  1  0  0  0  0
 11 16  1  0  0  0  0
 17 18  1  0  0  0  0
 17 25  1  0  0  0  0
 18 19  1  0  0  0  0
 18 21  1  0  0  0  0
 18 26  1  0  0  0  0
 19 20  2  0  0  0  0
 19 36  1  0  0  0  0
 21 22  1  0  0  0  0
 21 27  1  0  0  0  0
 21 28  1  0  0  0  0
 22 23  1  0  0  0  0
 22 24  1  0  0  0  0
 22 29  1  0  0  0  0
 23 30  1  0  0  0  0
 23 31  1  0  0  0  0
 23 32  1  0  0  0  0
 24 33  1  0  0  0  0
 24 34  1  0  0  0  0
 24 35  1  0  0  0  0
 36 37  1  0  0  0  0
 36 41  1  0  0  0  0
 37 38  1  0  0  0  0
 37 40  1  0  0  0  0
 37 42  1  0  0  0  0
 38 39  2  0  0  0  0
 38 46  1  0  0  0  0
 40 43  1  0  0  0  0
 40 44  1  0  0  0  0
 40 45  1  0  0  0  0
 46 47  1  0  0  0  0
 46 48  1  0  0  0  0
 47 49  1  0  0  0  0
 47 50  1  0  0  0  0
 47 51  1  0  0  0  0
M  END
$$$$

  -OEChem-05262216553D

 51 50  0     1  0  0  0  0  0999 V2000
    0.9611   -2.9657   -2.7057 C   0  0  0  0  0  0  0  0  0  0  0  0
    0.0933   -2.7577   -1.8682 O   0  0  0  0  0  0  0  0  0  0  0  0
    1.2889   -4.3983   -3.0827 C   0  0  0  0  0  0  0  0  0  0  0  0
    2.3395   -4.6097   -2.8686 H   0  0  0  0  0  0  0  0  0  0  0  0
    0.6672   -5.0924   -2.5100 H   0  0  0  0  0  0  0  0  0  0  0  0
    1.1010   -4.5561   -4.1473 H   0  0  0  0  0  0  0  0  0  0  0  0
    1.6726   -1.9380   -3.3036 N   0  0  0  0  0  0  0  0  0  0  0  0
    1.5659   -0.5048   -2.9651 C   0  0  2  0  0  0  0  0  0  0  0  0
    1.7548   -0.2364   -1.4546 C   0  0  0  0  0  0  0  0  0  0  0  0
    2.8496   -0.4677   -0.9585 O   0  0  0  0  0  0  0  0  0  0  0  0
    0.2554    0.0615   -3.5287 C   0  0  0  0  0  0  0  0  0  0  0  0
    2.4545   -2.2230   -3.8851 H   0  0  0  0  0  0  0  0  0  0  0  0
    2.3852    0.0255   -3.4603 H   0  0  0  0  0  0  0  0  0  0  0  0
   -0.6078   -0.4903   -3.1490 H   0  0  0  0  0  0  0  0  0  0  0  0
    0.1435    1.1152   -3.2542 H   0  0  0  0  0  0  0  0  0  0  0  0
    0.2527   -0.0136   -4.6200 H   0  0  0  0  0  0  0  0  0  0  0  0
    0.6577   -0.1732   -0.6242 N   0  0  0  0  0  0  0  0  0  0  0  0
    0.6482   -0.0508    0.8423 C   0  0  2  0  0  0  0  0  0  0  0  0
   -0.8111   -0.4426    1.1930 C   0  0  0  0  0  0  0  0  0  0  0  0
   -1.6158    0.3033    1.7443 O   0  0  0  0  0  0  0  0  0  0  0  0
    0.8830    1.3691    1.4680 C   0  0  0  0  0  0  0  0  0  0  0  0
    2.2133    2.1643    1.3630 C   0  0  0  0  0  0  0  0  0  0  0  0
    1.9489    3.5466    1.9900 C   0  0  0  0  0  0  0  0  0  0  0  0
    2.7041    2.4674   -0.0636 C   0  0  0  0  0  0  0  0  0  0  0  0
   -0.2511   -0.2385   -1.0945 H   0  0  0  0  0  0  0  0  0  0  0  0
    1.3452   -0.7670    1.2890 H   0  0  0  0  0  0  0  0  0  0  0  0
    0.6732    1.2744    2.5393 H   0  0  0  0  0  0  0  0  0  0  0  0
    0.1114    2.0206    1.0420 H   0  0  0  0  0  0  0  0  0  0  0  0
    3.0005    1.6437    1.9186 H   0  0  0  0  0  0  0  0  0  0  0  0
    1.2115    4.1084    1.4070 H   0  0  0  0  0  0  0  0  0  0  0  0
    2.8731    4.1311    2.0387 H   0  0  0  0  0  0  0  0  0  0  0  0
    1.5703    3.4360    3.0110 H   0  0  0  0  0  0  0  0  0  0  0  0
    3.4755    1.7571   -0.3592 H   0  0  0  0  0  0  0  0  0  0  0  0
    3.1660    3.4576   -0.1292 H   0  0  0  0  0  0  0  0  0  0  0  0
    1.8749    2.4399   -0.7761 H   0  0  0  0  0  0  0  0  0  0  0  0
   -1.2107   -1.7146    0.8087 N   0  0  0  0  0  0  0  0  0  0  0  0
   -2.6141   -2.0151    0.4803 C   0  0  2  0  0  0  0  0  0  0  0  0
   -3.2123   -0.9991   -0.5309 C   0  0  0  0  0  0  0  0  0  0  0  0
   -2.4990   -0.5008   -1.3986 O   0  0  0  0  0  0  0  0  0  0  0  0
   -3.4496   -2.1742    1.7619 C   0  0  0  0  0  0  0  0  0  0  0  0
   -0.5276   -2.1625    0.1913 H   0  0  0  0  0  0  0  0  0  0  0  0
   -2.6259   -2.9835   -0.0290 H   0  0  0  0  0  0  0  0  0  0  0  0
   -3.6040   -1.2111    2.2574 H   0  0  0  0  0  0  0  0  0  0  0  0
   -4.4282   -2.6041    1.5290 H   0  0  0  0  0  0  0  0  0  0  0  0
   -2.9400   -2.8442    2.4610 H   0  0  0  0  0  0  0  0  0  0  0  0
   -4.5555   -0.6670   -0.5067 N   0  0  0  0  0  0  0  0  0  0  0  0
   -5.1301    0.3642   -1.3619 C   0  0  0  0  0  0  0  0  0  0  0  0
   -5.0828   -0.9740    0.3046 H   0  0  0  0  0  0  0  0  0  0  0  0
   -6.2091    0.4360   -1.1954 H   0  0  0  0  0  0  0  0  0  0  0  0
   -4.6785    1.3375   -1.1432 H   0  0  0  0  0  0  0  0  0  0  0  0
   -4.9602    0.1261   -2.4172 H   0  0  0  0  0  0  0  0  0  0  0  0
  1  2  2  0  0  0  0
  1  3  1  0  0  0  0
  1  7  1  0  0  0  0
  3  4  1  0  0  0  0
  3  5  1  0  0  0  0
  3  6  1  0  0  0  0
  7  8  1  0  0  0  0
  7 12  1  0  0  0  0
  8  9  1  0  0  0  0
  8 11  1  0  0  0  0
  8 13  1  0  0  0  0
  9 10  2  0  0  0  0
  9 17  1  0  0  0  0
 11 14  1  0  0  0  0
 11 15  1  0  0  0  0
 11 16  1  0  0  0  0
 17 18  1  0  0  0  0
 17 25  1  0  0  0  0
 18 19  1  0  0  0  0
 18 21  1  0  0  0  0
 18 26  1  0  0  0  0
 19 20  2  0  0  0  0
 19 36  1  0  0  0  0
 21 22  1  0  0  0  0
 21 27  1  0  0  0  0
 21 28  1  0  0  0  0
 22 23  1  0  0  0  0
 22 24  1  0  0  0  0
 22 29  1  0  0  0  0
 23 30  1  0  0  0  0
 23 31  1  0  0  0  0
 23 32  1  0  0  0  0
 24 33  1  0  0  0  0
 24 34  1  0  0  0  0
 24 35  1  0  0  0  0
 36 37  1  0  0  0  0
 36 41  1  0  0  0  0
 37 38  1  0  0  0  0
 37 40  1  0  0  0  0
 37 42  1  0  0  0  0
 38 39  2  0  0  0  0
 38 46  1  0  0  0  0
 40 43  1  0  0  0  0
 40 44  1  0  0  0  0
 40 45  1  0  0  0  0
 46 47  1  0  0  0  0
 46 48  1  0  0  0  0
 47 49  1  0  0  0  0
 47 50  1  0  0  0  0
 47 51  1  0  0  0  0
M  END
$$$$

  -OEChem-05262216553D

 51 50  0     1  0  0  0  0  0999 V2000
    1.7288   -3.0443   -3.3010 C   0  0  0  0  0  0  0  0  0  0  0  0
    0.7519   -3.4459   -2.6891 O   0  0  0  0  0  0  0  0  0  0  0  0
    2.7424   -4.0453   -3.8231 C   0  0  0  0  0  0  0  0  0  0  0  0
    3.7082   -3.8827   -3.3381 H   0  0  0  0  0  0  0  0  0  0  0  0
    2.4093   -5.0650   -3.6103 H   0  0  0  0  0  0  0  0  0  0  0  0
    2.8587   -3.9309   -4.9035 H   0  0  0  0  0  0  0  0  0  0  0  0
    1.9478   -1.6955   -3.5164 N   0  0  0  0  0  0  0  0  0  0  0  0
    1.2010   -0.6161   -2.8431 C   0  0  2  0  0  0  0  0  0  0  0  0
    1.3610   -0.6486   -1.3018 C   0  0  0  0  0  0  0  0  0  0  0  0
    2.4146   -1.0301   -0.8040 O   0  0  0  0  0  0  0  0  0  0  0  0
   -0.2649   -0.5962   -3.3101 C   0  0  0  0  0  0  0  0  0  0  0  0
    2.8730   -1.4657   -3.8652 H   0  0  0  0  0  0  0  0  0  0  0  0
    1.6415    0.3325   -3.1624 H   0  0  0  0  0  0  0  0  0  0  0  0
   -0.8151   -1.4626   -2.9313 H   0  0  0  0  0  0  0  0  0  0  0  0
   -0.7678    0.3089   -2.9557 H   0  0  0  0  0  0  0  0  0  0  0  0
   -0.3128   -0.6097   -4.4030 H   0  0  0  0  0  0  0  0  0  0  0  0
    0.3180   -0.3497   -0.4502 N   0  0  0  0  0  0  0  0  0  0  0  0
    0.4170   -0.0699    0.9936 C   0  0  2  0  0  0  0  0  0  0  0  0
   -1.0434   -0.2085    1.4878 C   0  0  0  0  0  0  0  0  0  0  0  0
   -1.7938    0.7481    1.6555 O   0  0  0  0  0  0  0  0  0  0  0  0
    0.8900    1.3565    1.4459 C   0  0  0  0  0  0  0  0  0  0  0  0
    2.3135    1.9251    1.1915 C   0  0  0  0  0  0  0  0  0  0  0  0
    2.2957    3.3897    1.6692 C   0  0  0  0  0  0  0  0  0  0  0  0
    2.7553    1.9993   -0.2807 C   0  0  0  0  0  0  0  0  0  0  0  0
   -0.6027   -0.2445   -0.8868 H   0  0  0  0  0  0  0  0  0  0  0  0
    1.0461   -0.8227    1.4793 H   0  0  0  0  0  0  0  0  0  0  0  0
    0.7262    1.4102    2.5279 H   0  0  0  0  0  0  0  0  0  0  0  0
    0.2028    2.0708    0.9785 H   0  0  0  0  0  0  0  0  0  0  0  0
    3.0485    1.3512    1.7659 H   0  0  0  0  0  0  0  0  0  0  0  0
    1.6186    3.9950    1.0570 H   0  0  0  0  0  0  0  0  0  0  0  0
    3.2987    3.8250    1.6141 H   0  0  0  0  0  0  0  0  0  0  0  0
    1.9644    3.4475    2.7109 H   0  0  0  0  0  0  0  0  0  0  0  0
    3.3793    1.1434   -0.5351 H   0  0  0  0  0  0  0  0  0  0  0  0
    3.3682    2.8858   -0.4723 H   0  0  0  0  0  0  0  0  0  0  0  0
    1.8888    2.0443   -0.9464 H   0  0  0  0  0  0  0  0  0  0  0  0
   -1.5442   -1.4954    1.5960 N   0  0  0  0  0  0  0  0  0  0  0  0
   -2.9640   -1.7877    1.3251 C   0  0  2  0  0  0  0  0  0  0  0  0
   -3.4601   -1.1615   -0.0096 C   0  0  0  0  0  0  0  0  0  0  0  0
   -2.6875   -1.0414   -0.9582 O   0  0  0  0  0  0  0  0  0  0  0  0
   -3.8272   -1.4031    2.5382 C   0  0  0  0  0  0  0  0  0  0  0  0
   -0.8848   -2.1976    1.2667 H   0  0  0  0  0  0  0  0  0  0  0  0
   -3.0564   -2.8706    1.1995 H   0  0  0  0  0  0  0  0  0  0  0  0
   -3.9004   -0.3165    2.6431 H   0  0  0  0  0  0  0  0  0  0  0  0
   -4.8375   -1.8093    2.4325 H   0  0  0  0  0  0  0  0  0  0  0  0
   -3.3895   -1.8097    3.4552 H   0  0  0  0  0  0  0  0  0  0  0  0
   -4.7759   -0.7654   -0.1723 N   0  0  0  0  0  0  0  0  0  0  0  0
   -5.2556   -0.0815   -1.3671 C   0  0  0  0  0  0  0  0  0  0  0  0
   -5.3517   -0.7437    0.6637 H   0  0  0  0  0  0  0  0  0  0  0  0
   -6.3280    0.1185   -1.2835 H   0  0  0  0  0  0  0  0  0  0  0  0
   -4.7333    0.8722   -1.4975 H   0  0  0  0  0  0  0  0  0  0  0  0
   -5.0894   -0.6993   -2.2558 H   0  0  0  0  0  0  0  0  0  0  0  0
  1  2  2  0  0  0  0
  1  3  1  0  0  0  0
  1  7  1  0  0  0  0
  3  4  1  0  0  0  0
  3  5  1  0  0  0  0
  3  6  1  0  0  0  0
  7  8  1  0  0  0  0
  7 12  1  0  0  0  0
  8  9  1  0  0  0  0
  8 11  1  0  0  0  0
  8 13  1  0  0  0  0
  9 10  2  0  0  0  0
  9 17  1  0  0  0  0
 11 14  1  0  0  0  0
 11 15  1  0  0  0  0
 11 16  1  0  0  0  0
 17 18  1  0  0  0  0
 17 25  1  0  0  0  0
 18 19  1  0  0  0  0
 18 21  1  0  0  0  0
 18 26  1  0  0  0  0
 19 20  2  0  0  0  0
 19 36  1  0  0  0  0
 21 22  1  0  0  0  0
 21 27  1  0  0  0  0
 21 28  1  0  0  0  0
 22 23  1  0  0  0  0
 22 24  1  0  0  0  0
 22 29  1  0  0  0  0
 23 30  1  0  0  0  0
 23 31  1  0  0  0  0
 23 32  1  0  0  0  0
 24 33  1  0  0  0  0
 24 34  1  0  0  0  0
 24 35  1  0  0  0  0
 36 37  1  0  0  0  0
 36 41  1  0  0  0  0
 37 38  1  0  0  0  0
 37 40  1  0  0  0  0
 37 42  1  0  0  0  0
 38 39  2  0  0  0  0
 38 46  1  0  0  0  0
 40 43  1  0  0  0  0
 40 44  1  0  0  0  0
 40 45  1  0  0  0  0
 46 47  1  0  0  0  0
 46 48  1  0  0  0  0
 47 49  1  0  0  0  0
 47 50  1  0  0  0  0
 47 51  1  0  0  0  0
M  END
$$$$

  -OEChem-05262216553D

 51 50  0     1  0  0  0  0  0999 V2000
   -0.0585   -1.9525   -3.0798 C   0  0  0  0  0  0  0  0  0  0  0  0
   -0.6604   -0.9479   -2.7346 O   0  0  0  0  0  0  0  0  0  0  0  0
   -0.8246   -3.1248   -3.6633 C   0  0  0  0  0  0  0  0  0  0  0  0
   -0.9131   -3.9203   -2.9189 H   0  0  0  0  0  0  0  0  0  0  0  0
   -1.8274   -2.8085   -3.9638 H   0  0  0  0  0  0  0  0  0  0  0  0
   -0.3053   -3.5143   -4.5423 H   0  0  0  0  0  0  0  0  0  0  0  0
    1.3109   -2.0499   -2.9118 N   0  0  0  0  0  0  0  0  0  0  0  0
    2.2220   -1.0058   -2.3940 C   0  0  2  0  0  0  0  0  0  0  0  0
    2.0383   -0.6784   -0.8930 C   0  0  0  0  0  0  0  0  0  0  0  0
    2.9781   -0.8344   -0.1247 O   0  0  0  0  0  0  0  0  0  0  0  0
    2.1515    0.2614   -3.2570 C   0  0  0  0  0  0  0  0  0  0  0  0
    1.7242   -2.9412   -3.1719 H   0  0  0  0  0  0  0  0  0  0  0  0
    3.2405   -1.3960   -2.4921 H   0  0  0  0  0  0  0  0  0  0  0  0
    1.2032    0.7878   -3.1149 H   0  0  0  0  0  0  0  0  0  0  0  0
    2.9648    0.9430   -2.9891 H   0  0  0  0  0  0  0  0  0  0  0  0
    2.2521    0.0063   -4.3161 H   0  0  0  0  0  0  0  0  0  0  0  0
    0.7886   -0.4926   -0.3450 N   0  0  0  0  0  0  0  0  0  0  0  0
    0.4841    0.0740    0.9792 C   0  0  2  0  0  0  0  0  0  0  0  0
   -0.9901   -0.3112    1.2497 C   0  0  0  0  0  0  0  0  0  0  0  0
   -1.9239    0.3314    0.7834 O   0  0  0  0  0  0  0  0  0  0  0  0
    0.5463    1.6272    1.1708 C   0  0  0  0  0  0  0  0  0  0  0  0
    1.8548    2.4570    1.0711 C   0  0  0  0  0  0  0  0  0  0  0  0
    1.4505    3.9388    1.1799 C   0  0  0  0  0  0  0  0  0  0  0  0
    2.6197    2.3490   -0.2549 C   0  0  0  0  0  0  0  0  0  0  0  0
    0.0413   -0.4333   -1.0461 H   0  0  0  0  0  0  0  0  0  0  0  0
    1.1291   -0.3917    1.7310 H   0  0  0  0  0  0  0  0  0  0  0  0
    0.1214    1.8390    2.1584 H   0  0  0  0  0  0  0  0  0  0  0  0
   -0.1352    2.0577    0.4283 H   0  0  0  0  0  0  0  0  0  0  0  0
    2.5226    2.1914    1.8977 H   0  0  0  0  0  0  0  0  0  0  0  0
    0.8359    4.2413    0.3253 H   0  0  0  0  0  0  0  0  0  0  0  0
    2.3377    4.5793    1.2144 H   0  0  0  0  0  0  0  0  0  0  0  0
    0.8776    4.1123    2.0962 H   0  0  0  0  0  0  0  0  0  0  0  0
    3.3590    1.5514   -0.2083 H   0  0  0  0  0  0  0  0  0  0  0  0
    3.1768    3.2669   -0.4681 H   0  0  0  0  0  0  0  0  0  0  0  0
    1.9282    2.1744   -1.0834 H   0  0  0  0  0  0  0  0  0  0  0  0
   -1.2421   -1.5128    1.8927 N   0  0  0  0  0  0  0  0  0  0  0  0
   -2.5503   -2.1847    2.0465 C   0  0  2  0  0  0  0  0  0  0  0  0
   -3.1733   -2.6914    0.7237 C   0  0  0  0  0  0  0  0  0  0  0  0
   -3.6223   -3.8292    0.6686 O   0  0  0  0  0  0  0  0  0  0  0  0
   -3.5466   -1.3105    2.8213 C   0  0  0  0  0  0  0  0  0  0  0  0
   -0.4149   -2.0607    2.1146 H   0  0  0  0  0  0  0  0  0  0  0  0
   -2.3751   -3.0763    2.6572 H   0  0  0  0  0  0  0  0  0  0  0  0
   -3.8682   -0.4502    2.2275 H   0  0  0  0  0  0  0  0  0  0  0  0
   -4.4351   -1.8955    3.0787 H   0  0  0  0  0  0  0  0  0  0  0  0
   -3.0923   -0.9455    3.7472 H   0  0  0  0  0  0  0  0  0  0  0  0
   -3.2231   -1.8937   -0.4019 N   0  0  0  0  0  0  0  0  0  0  0  0
   -3.8664   -2.2732   -1.6506 C   0  0  0  0  0  0  0  0  0  0  0  0
   -2.8857   -0.9334   -0.2886 H   0  0  0  0  0  0  0  0  0  0  0  0
   -3.6360   -1.5383   -2.4283 H   0  0  0  0  0  0  0  0  0  0  0  0
   -3.5105   -3.2529   -1.9854 H   0  0  0  0  0  0  0  0  0  0  0  0
   -4.9526   -2.3168   -1.5223 H   0  0  0  0  0  0  0  0  0  0  0  0
  1  2  2  0  0  0  0
  1  3  1  0  0  0  0
  1  7  1  0  0  0  0
  3  4  1  0  0  0  0
  3  5  1  0  0  0  0
  3  6  1  0  0  0  0
  7  8  1  0  0  0  0
  7 12  1  0  0  0  0
  8  9  1  0  0  0  0
  8 11  1  0  0  0  0
  8 13  1  0  0  0  0
  9 10  2  0  0  0  0
  9 17  1  0  0  0  0
 11 14  1  0  0  0  0
 11 15  1  0  0  0  0
 11 16  1  0  0  0  0
 17 18  1  0  0  0  0
 17 25  1  0  0  0  0
 18 19  1  0  0  0  0
 18 21  1  0  0  0  0
 18 26  1  0  0  0  0
 19 20  2  0  0  0  0
 19 36  1  0  0  0  0
 21 22  1  0  0  0  0
 21 27  1  0  0  0  0
 21 28  1  0  0  0  0
 22 23  1  0  0  0  0
 22 24  1  0  0  0  0
 22 29  1  0  0  0  0
 23 30  1  0  0  0  0
 23 31  1  0  0  0  0
 23 32  1  0  0  0  0
 24 33  1  0  0  0  0
 24 34  1  0  0  0  0
 24 35  1  0  0  0  0
 36 37  1  0  0  0  0
 36 41  1  0  0  0  0
 37 38  1  0  0  0  0
 37 40  1  0  0  0  0
 37 42  1  0  0  0  0
 38 39  2  0  0  0  0
 38 46  1  0  0  0  0
 40 43  1  0  0  0  0
 40 44  1  0  0  0  0
 40 45  1  0  0  0  0
 46 47  1  0  0  0  0
 46 48  1  0  0  0  0
 47 49  1  0  0  0  0
 47 50  1  0  0  0  0
 47 51  1  0  0  0  0
M  END
$$$$

  -OEChem-05262216553D

 51 50  0     1  0  0  0  0  0999 V2000
   -0.0660   -2.0617   -3.0464 C   0  0  0  0  0  0  0  0  0  0  0  0
   -0.6895   -1.0680   -2.7093 O   0  0  0  0  0  0  0  0  0  0  0  0
   -0.8142   -3.2708   -3.5751 C   0  0  0  0  0  0  0  0  0  0  0  0
   -0.8039   -4.0703   -2.8300 H   0  0  0  0  0  0  0  0  0  0  0  0
   -1.8521   -3.0050   -3.7942 H   0  0  0  0  0  0  0  0  0  0  0  0
   -0.3460   -3.6316   -4.4941 H   0  0  0  0  0  0  0  0  0  0  0  0
    1.3098   -2.1143   -2.9151 N   0  0  0  0  0  0  0  0  0  0  0  0
    2.1980   -1.0364   -2.4285 C   0  0  2  0  0  0  0  0  0  0  0  0
    2.0344   -0.6967   -0.9280 C   0  0  0  0  0  0  0  0  0  0  0  0
    2.9815   -0.8573   -0.1696 O   0  0  0  0  0  0  0  0  0  0  0  0
    2.0697    0.2187   -3.3023 C   0  0  0  0  0  0  0  0  0  0  0  0
    1.7439   -2.9988   -3.1650 H   0  0  0  0  0  0  0  0  0  0  0  0
    3.2257   -1.3964   -2.5445 H   0  0  0  0  0  0  0  0  0  0  0  0
    1.1117    0.7214   -3.1385 H   0  0  0  0  0  0  0  0  0  0  0  0
    2.8716    0.9244   -3.0643 H   0  0  0  0  0  0  0  0  0  0  0  0
    2.1476   -0.0450   -4.3614 H   0  0  0  0  0  0  0  0  0  0  0  0
    0.7947   -0.4785   -0.3684 N   0  0  0  0  0  0  0  0  0  0  0  0
    0.5162    0.0867    0.9617 C   0  0  2  0  0  0  0  0  0  0  0  0
   -0.9644   -0.2519    1.2499 C   0  0  0  0  0  0  0  0  0  0  0  0
   -1.8687    0.2646    0.6035 O   0  0  0  0  0  0  0  0  0  0  0  0
    0.5977    1.6374    1.1576 C   0  0  0  0  0  0  0  0  0  0  0  0
    1.9147    2.4504    1.0399 C   0  0  0  0  0  0  0  0  0  0  0  0
    1.5319    3.9371    1.1592 C   0  0  0  0  0  0  0  0  0  0  0  0
    2.6570    2.3327   -0.2982 C   0  0  0  0  0  0  0  0  0  0  0  0
    0.0305   -0.4317   -1.0527 H   0  0  0  0  0  0  0  0  0  0  0  0
    1.1608   -0.3953    1.7031 H   0  0  0  0  0  0  0  0  0  0  0  0
    0.1933    1.8501    2.1537 H   0  0  0  0  0  0  0  0  0  0  0  0
   -0.0934    2.0779    0.4300 H   0  0  0  0  0  0  0  0  0  0  0  0
    2.5918    2.1741    1.8552 H   0  0  0  0  0  0  0  0  0  0  0  0
    0.9071    4.2503    0.3158 H   0  0  0  0  0  0  0  0  0  0  0  0
    2.4279    4.5656    1.1807 H   0  0  0  0  0  0  0  0  0  0  0  0
    0.9772    4.1162    2.0855 H   0  0  0  0  0  0  0  0  0  0  0  0
    3.3875    1.5265   -0.2615 H   0  0  0  0  0  0  0  0  0  0  0  0
    3.2212    3.2439   -0.5210 H   0  0  0  0  0  0  0  0  0  0  0  0
    1.9514    2.1641   -1.1163 H   0  0  0  0  0  0  0  0  0  0  0  0
   -1.2545   -1.2643    2.1503 N   0  0  0  0  0  0  0  0  0  0  0  0
   -2.5748   -1.8837    2.3924 C   0  0  2  0  0  0  0  0  0  0  0  0
   -3.1429   -2.6802    1.1929 C   0  0  0  0  0  0  0  0  0  0  0  0
   -3.5376   -3.8261    1.3661 O   0  0  0  0  0  0  0  0  0  0  0  0
   -3.5944   -0.8542    2.8995 C   0  0  0  0  0  0  0  0  0  0  0  0
   -0.4455   -1.7376    2.5435 H   0  0  0  0  0  0  0  0  0  0  0  0
   -2.4370   -2.6115    3.1986 H   0  0  0  0  0  0  0  0  0  0  0  0
   -3.8802   -0.1530    2.1102 H   0  0  0  0  0  0  0  0  0  0  0  0
   -4.4998   -1.3641    3.2435 H   0  0  0  0  0  0  0  0  0  0  0  0
   -3.1774   -0.2864    3.7366 H   0  0  0  0  0  0  0  0  0  0  0  0
   -3.2031   -2.1342   -0.0739 N   0  0  0  0  0  0  0  0  0  0  0  0
   -3.7501   -2.8143   -1.2378 C   0  0  0  0  0  0  0  0  0  0  0  0
   -2.8677   -1.1708   -0.1690 H   0  0  0  0  0  0  0  0  0  0  0  0
   -3.6650   -2.1722   -2.1198 H   0  0  0  0  0  0  0  0  0  0  0  0
   -3.2041   -3.7431   -1.4309 H   0  0  0  0  0  0  0  0  0  0  0  0
   -4.8074   -3.0509   -1.0809 H   0  0  0  0  0  0  0  0  0  0  0  0
  1  2  2  0  0  0  0
  1  3  1  0  0  0  0
  1  7  1  0  0  0  0
  3  4  1  0  0  0  0
  3  5  1  0  0  0  0
  3  6  1  0  0  0  0
  7  8  1  0  0  0  0
  7 12  1  0  0  0  0
  8  9  1  0  0  0  0
  8 11  1  0  0  0  0
  8 13  1  0  0  0  0
  9 10  2  0  0  0  0
  9 17  1  0  0  0  0
 11 14  1  0  0  0  0
 11 15  1  0  0  0  0
 11 16  1  0  0  0  0
 17 18  1  0  0  0  0
 17 25  1  0  0  0  0
 18 19  1  0  0  0  0
 18 21  1  0  0  0  0
 18 26  1  0  0  0  0
 19 20  2  0  0  0  0
 19 36  1  0  0  0  0
 21 22  1  0  0  0  0
 21 27  1  0  0  0  0
 21 28  1  0  0  0  0
 22 23  1  0  0  0  0
 22 24  1  0  0  0  0
 22 29  1  0  0  0  0
 23 30  1  0  0  0  0
 23 31  1  0  0  0  0
 23 32  1  0  0  0  0
 24 33  1  0  0  0  0
 24 34  1  0  0  0  0
 24 35  1  0  0  0  0
 36 37  1  0  0  0  0
 36 41  1  0  0  0  0
 37 38  1  0  0  0  0
 37 40  1  0  0  0  0
 37 42  1  0  0  0  0
 38 39  2  0  0  0  0
 38 46  1  0  0  0  0
 40 43  1  0  0  0  0
 40 44  1  0  0  0  0
 40 45  1  0  0  0  0
 46 47  1  0  0  0  0
 46 48  1  0  0  0  0
 47 49  1  0  0  0  0
 47 50  1  0  0  0  0
 47 51  1  0  0  0  0
M  END
$$$$

  -OEChem-05262216553D

 51 50  0     1  0  0  0  0  0999 V2000
   -0.0358   -2.1967   -2.9857 C   0  0  0  0  0  0  0  0  0  0  0  0
   -0.7093   -1.2275   -2.6758 O   0  0  0  0  0  0  0  0  0  0  0  0
   -0.7242   -3.4822   -3.4033 C   0  0  0  0  0  0  0  0  0  0  0  0
   -0.5940   -4.2426   -2.6292 H   0  0  0  0  0  0  0  0  0  0  0  0
   -1.7937   -3.3066   -3.5493 H   0  0  0  0  0  0  0  0  0  0  0  0
   -0.2996   -3.8485   -4.3412 H   0  0  0  0  0  0  0  0  0  0  0  0
    1.3448   -2.1554   -2.9177 N   0  0  0  0  0  0  0  0  0  0  0  0
    2.1763   -1.0125   -2.4842 C   0  0  2  0  0  0  0  0  0  0  0  0
    2.0400   -0.6705   -0.9825 C   0  0  0  0  0  0  0  0  0  0  0  0
    2.9964   -0.8442   -0.2383 O   0  0  0  0  0  0  0  0  0  0  0  0
    1.9332    0.2201   -3.3665 C   0  0  0  0  0  0  0  0  0  0  0  0
    1.8228   -3.0293   -3.1191 H   0  0  0  0  0  0  0  0  0  0  0  0
    3.2213   -1.3037   -2.6338 H   0  0  0  0  0  0  0  0  0  0  0  0
    0.9518    0.6628   -3.1727 H   0  0  0  0  0  0  0  0  0  0  0  0
    2.6953    0.9794   -3.1671 H   0  0  0  0  0  0  0  0  0  0  0  0
    1.9893   -0.0530   -4.4244 H   0  0  0  0  0  0  0  0  0  0  0  0
    0.8097   -0.4374   -0.4085 N   0  0  0  0  0  0  0  0  0  0  0  0
    0.5507    0.0990    0.9367 C   0  0  2  0  0  0  0  0  0  0  0  0
   -0.9346   -0.2066    1.2345 C   0  0  0  0  0  0  0  0  0  0  0  0
   -1.8130    0.1743    0.4690 O   0  0  0  0  0  0  0  0  0  0  0  0
    0.6457    1.6445    1.1551 C   0  0  0  0  0  0  0  0  0  0  0  0
    1.9689    2.4462    1.0316 C   0  0  0  0  0  0  0  0  0  0  0  0
    1.6042    3.9348    1.1782 C   0  0  0  0  0  0  0  0  0  0  0  0
    2.6901    2.3409   -0.3196 C   0  0  0  0  0  0  0  0  0  0  0  0
    0.0257   -0.4135   -1.0719 H   0  0  0  0  0  0  0  0  0  0  0  0
    1.1942   -0.4089    1.6616 H   0  0  0  0  0  0  0  0  0  0  0  0
    0.2584    1.8463    2.1600 H   0  0  0  0  0  0  0  0  0  0  0  0
   -0.0543    2.0999    0.4448 H   0  0  0  0  0  0  0  0  0  0  0  0
    2.6549    2.1500    1.8322 H   0  0  0  0  0  0  0  0  0  0  0  0
    0.9729    4.2679    0.3475 H   0  0  0  0  0  0  0  0  0  0  0  0
    2.5078    4.5525    1.1975 H   0  0  0  0  0  0  0  0  0  0  0  0
    1.0629    4.1057    2.1139 H   0  0  0  0  0  0  0  0  0  0  0  0
    3.4216    1.5347   -0.3019 H   0  0  0  0  0  0  0  0  0  0  0  0
    3.2506    3.2540   -0.5443 H   0  0  0  0  0  0  0  0  0  0  0  0
    1.9716    2.1791   -1.1278 H   0  0  0  0  0  0  0  0  0  0  0  0
   -1.2639   -0.9970    2.3241 N   0  0  0  0  0  0  0  0  0  0  0  0
   -2.5987   -1.5471    2.6431 C   0  0  2  0  0  0  0  0  0  0  0  0
   -3.1330   -2.5704    1.6115 C   0  0  0  0  0  0  0  0  0  0  0  0
   -3.4705   -3.6843    1.9914 O   0  0  0  0  0  0  0  0  0  0  0  0
   -3.6215   -0.4302    2.8954 C   0  0  0  0  0  0  0  0  0  0  0  0
   -0.4751   -1.3754    2.8415 H   0  0  0  0  0  0  0  0  0  0  0  0
   -2.4962   -2.0953    3.5854 H   0  0  0  0  0  0  0  0  0  0  0  0
   -3.8640    0.1060    1.9736 H   0  0  0  0  0  0  0  0  0  0  0  0
   -4.5478   -0.8557    3.2935 H   0  0  0  0  0  0  0  0  0  0  0  0
   -3.2288    0.2865    3.6228 H   0  0  0  0  0  0  0  0  0  0  0  0
   -3.2101   -2.2681    0.2662 N   0  0  0  0  0  0  0  0  0  0  0  0
   -3.6478   -3.2000   -0.7621 C   0  0  0  0  0  0  0  0  0  0  0  0
   -2.8714   -1.3412   -0.0098 H   0  0  0  0  0  0  0  0  0  0  0  0
   -3.6455   -2.7070   -1.7390 H   0  0  0  0  0  0  0  0  0  0  0  0
   -2.9767   -4.0638   -0.8065 H   0  0  0  0  0  0  0  0  0  0  0  0
   -4.6639   -3.5514   -0.5544 H   0  0  0  0  0  0  0  0  0  0  0  0
  1  2  2  0  0  0  0
  1  3  1  0  0  0  0
  1  7  1  0  0  0  0
  3  4  1  0  0  0  0
  3  5  1  0  0  0  0
  3  6  1  0  0  0  0
  7  8  1  0  0  0  0
  7 12  1  0  0  0  0
  8  9  1  0  0  0  0
  8 11  1  0  0  0  0
  8 13  1  0  0  0  0
  9 10  2  0  0  0  0
  9 17  1  0  0  0  0
 11 14  1  0  0  0  0
 11 15  1  0  0  0  0
 11 16  1  0  0  0  0
 17 18  1  0  0  0  0
 17 25  1  0  0  0  0
 18 19  1  0  0  0  0
 18 21  1  0  0  0  0
 18 26  1  0  0  0  0
 19 20  2  0  0  0  0
 19 36  1  0  0  0  0
 21 22  1  0  0  0  0
 21 27  1  0  0  0  0
 21 28  1  0  0  0  0
 22 23  1  0  0  0  0
 22 24  1  0  0  0  0
 22 29  1  0  0  0  0
 23 30  1  0  0  0  0
 23 31  1  0  0  0  0
 23 32  1  0  0  0  0
 24 33  1  0  0  0  0
 24 34  1  0  0  0  0
 24 35  1  0  0  0  0
 36 37  1  0  0  0  0
 36 41  1  0  0  0  0
 37 38  1  0  0  0  0
 37 40  1  0  0  0  0
 37 42  1  0  0  0  0
 38 39  2  0  0  0  0
 38 46  1  0  0  0  0
 40 43  1  0  0  0  0
 40 44  1  0  0  0  0
 40 45  1  0  0  0  0
 46 47  1  0  0  0  0
 46 48  1  0  0  0  0
 47 49  1  0  0  0  0
 47 50  1  0  0  0  0
 47 51  1  0  0  0  0
M  END
$$$$

  -OEChem-05262216553D

 51 50  0     1  0  0  0  0  0999 V2000
    0.0842   -2.3488   -2.9345 C   0  0  0  0  0  0  0  0  0  0  0  0
   -0.6514   -1.4198   -2.6447 O   0  0  0  0  0  0  0  0  0  0  0  0
   -0.5162   -3.6991   -3.2777 C   0  0  0  0  0  0  0  0  0  0  0  0
   -0.2163   -4.4412   -2.5335 H   0  0  0  0  0  0  0  0  0  0  0  0
   -1.6080   -3.6344   -3.2895 H   0  0  0  0  0  0  0  0  0  0  0  0
   -0.1736   -4.0219   -4.2639 H   0  0  0  0  0  0  0  0  0  0  0  0
    1.4590   -2.2018   -2.9095 N   0  0  0  0  0  0  0  0  0  0  0  0
    2.2082   -0.9937   -2.5057 C   0  0  2  0  0  0  0  0  0  0  0  0
    2.0704   -0.6515   -1.0044 C   0  0  0  0  0  0  0  0  0  0  0  0
    3.0226   -0.8326   -0.2567 O   0  0  0  0  0  0  0  0  0  0  0  0
    1.8543    0.2088   -3.3934 C   0  0  0  0  0  0  0  0  0  0  0  0
    1.9963   -3.0467   -3.0825 H   0  0  0  0  0  0  0  0  0  0  0  0
    3.2695   -1.2049   -2.6728 H   0  0  0  0  0  0  0  0  0  0  0  0
    0.8512    0.5867   -3.1746 H   0  0  0  0  0  0  0  0  0  0  0  0
    2.5681    1.0208   -3.2254 H   0  0  0  0  0  0  0  0  0  0  0  0
    1.8962   -0.0732   -4.4495 H   0  0  0  0  0  0  0  0  0  0  0  0
    0.8398   -0.4026   -0.4374 N   0  0  0  0  0  0  0  0  0  0  0  0
    0.5706    0.1195    0.9119 C   0  0  2  0  0  0  0  0  0  0  0  0
   -0.9231   -0.1574    1.1988 C   0  0  0  0  0  0  0  0  0  0  0  0
   -1.7671    0.0520    0.3348 O   0  0  0  0  0  0  0  0  0  0  0  0
    0.6756    1.6625    1.1382 C   0  0  0  0  0  0  0  0  0  0  0  0
    2.0055    2.4555    1.0304 C   0  0  0  0  0  0  0  0  0  0  0  0
    1.6497    3.9459    1.1803 C   0  0  0  0  0  0  0  0  0  0  0  0
    2.7417    2.3508   -0.3128 C   0  0  0  0  0  0  0  0  0  0  0  0
    0.0475   -0.4208   -1.0917 H   0  0  0  0  0  0  0  0  0  0  0  0
    1.1992   -0.4044    1.6387 H   0  0  0  0  0  0  0  0  0  0  0  0
    0.2836    1.8640    2.1413 H   0  0  0  0  0  0  0  0  0  0  0  0
   -0.0175    2.1239    0.4248 H   0  0  0  0  0  0  0  0  0  0  0  0
    2.6806    2.1513    1.8375 H   0  0  0  0  0  0  0  0  0  0  0  0
    1.0333    4.2884    0.3423 H   0  0  0  0  0  0  0  0  0  0  0  0
    2.5576    4.5565    1.2161 H   0  0  0  0  0  0  0  0  0  0  0  0
    1.0959    4.1157    2.1089 H   0  0  0  0  0  0  0  0  0  0  0  0
    3.4665    1.5389   -0.2897 H   0  0  0  0  0  0  0  0  0  0  0  0
    3.3124    3.2604   -0.5253 H   0  0  0  0  0  0  0  0  0  0  0  0
    2.0325    2.1985   -1.1310 H   0  0  0  0  0  0  0  0  0  0  0  0
   -1.3066   -0.6777    2.4248 N   0  0  0  0  0  0  0  0  0  0  0  0
   -2.6620   -1.1305    2.8061 C   0  0  2  0  0  0  0  0  0  0  0  0
   -3.1810   -2.3536    2.0120 C   0  0  0  0  0  0  0  0  0  0  0  0
   -3.6054   -3.3272    2.6208 O   0  0  0  0  0  0  0  0  0  0  0  0
   -3.6745    0.0225    2.7561 C   0  0  0  0  0  0  0  0  0  0  0  0
   -0.5475   -0.9051    3.0610 H   0  0  0  0  0  0  0  0  0  0  0  0
   -2.6046   -1.4527    3.8509 H   0  0  0  0  0  0  0  0  0  0  0  0
   -3.8800    0.3291    1.7266 H   0  0  0  0  0  0  0  0  0  0  0  0
   -4.6194   -0.2913    3.2104 H   0  0  0  0  0  0  0  0  0  0  0  0
   -3.2947    0.8872    3.3081 H   0  0  0  0  0  0  0  0  0  0  0  0
   -3.1684   -2.3773    0.6313 N   0  0  0  0  0  0  0  0  0  0  0  0
   -3.6506   -3.4879   -0.1759 C   0  0  0  0  0  0  0  0  0  0  0  0
   -2.8063   -1.5388    0.1664 H   0  0  0  0  0  0  0  0  0  0  0  0
   -3.4922   -3.2755   -1.2377 H   0  0  0  0  0  0  0  0  0  0  0  0
   -3.1138   -4.4080    0.0774 H   0  0  0  0  0  0  0  0  0  0  0  0
   -4.7210   -3.6450   -0.0086 H   0  0  0  0  0  0  0  0  0  0  0  0
  1  2  2  0  0  0  0
  1  3  1  0  0  0  0
  1  7  1  0  0  0  0
  3  4  1  0  0  0  0
  3  5  1  0  0  0  0
  3  6  1  0  0  0  0
  7  8  1  0  0  0  0
  7 12  1  0  0  0  0
  8  9  1  0  0  0  0
  8 11  1  0  0  0  0
  8 13  1  0  0  0  0
  9 10  2  0  0  0  0
  9 17  1  0  0  0  0
 11 14  1  0  0  0  0
 11 15  1  0  0  0  0
 11 16  1  0  0  0  0
 17 18  1  0  0  0  0
 17 25  1  0  0  0  0
 18 19  1  0  0  0  0
 18 21  1  0  0  0  0
 18 26  1  0  0  0  0
 19 20  2  0  0  0  0
 19 36  1  0  0  0  0
 21 22  1  0  0  0  0
 21 27  1  0  0  0  0
 21 28  1  0  0  0  0
 22 23  1  0  0  0  0
 22 24  1  0  0  0  0
 22 29  1  0  0  0  0
 23 30  1  0  0  0  0
 23 31  1  0  0  0  0
 23 32  1  0  0  0  0
 24 33  1  0  0  0  0
 24 34  1  0  0  0  0
 24 35  1  0  0  0  0
 36 37  1  0  0  0  0
 36 41  1  0  0  0  0
 37 38  1  0  0  0  0
 37 40  1  0  0  0  0
 37 42  1  0  0  0  0
 38 39  2  0  0  0  0
 38 46  1  0  0  0  0
 40 43  1  0  0  0  0
 40 44  1  0  0  0  0
 40 45  1  0  0  0  0
 46 47  1  0  0  0  0
 46 48  1  0  0  0  0
 47 49  1  0  0  0  0
 47 50  1  0  0  0  0
 47 51  1  0  0  0  0
M  END
$$$$

  -OEChem-05262216553D

 51 50  0     1  0  0  0  0  0999 V2000
    0.1956   -1.8434   -3.2080 C   0  0  0  0  0  0  0  0  0  0  0  0
   -0.2520   -0.7350   -2.9669 O   0  0  0  0  0  0  0  0  0  0  0  0
   -0.7049   -2.9077   -3.8052 C   0  0  0  0  0  0  0  0  0  0  0  0
   -0.8083   -3.7427   -3.1079 H   0  0  0  0  0  0  0  0  0  0  0  0
   -1.6966   -2.4925   -4.0069 H   0  0  0  0  0  0  0  0  0  0  0  0
   -0.2803   -3.2750   -4.7426 H   0  0  0  0  0  0  0  0  0  0  0  0
    1.5038   -2.1564   -2.8900 N   0  0  0  0  0  0  0  0  0  0  0  0
    2.5145   -1.2453   -2.3106 C   0  0  2  0  0  0  0  0  0  0  0  0
    2.2363   -0.7947   -0.8551 C   0  0  0  0  0  0  0  0  0  0  0  0
    3.1553   -0.8147   -0.0457 O   0  0  0  0  0  0  0  0  0  0  0  0
    2.7619   -0.0432   -3.2326 C   0  0  0  0  0  0  0  0  0  0  0  0
    1.7877   -3.1145   -3.0742 H   0  0  0  0  0  0  0  0  0  0  0  0
    3.4541   -1.8061   -2.2687 H   0  0  0  0  0  0  0  0  0  0  0  0
    1.8932    0.6203   -3.2653 H   0  0  0  0  0  0  0  0  0  0  0  0
    3.6196    0.5342   -2.8736 H   0  0  0  0  0  0  0  0  0  0  0  0
    2.9770   -0.3830   -4.2499 H   0  0  0  0  0  0  0  0  0  0  0  0
    0.9577   -0.6168   -0.3689 N   0  0  0  0  0  0  0  0  0  0  0  0
    0.5958    0.0097    0.9149 C   0  0  2  0  0  0  0  0  0  0  0  0
   -0.8770   -0.3542    1.2266 C   0  0  0  0  0  0  0  0  0  0  0  0
   -1.6829   -0.5474    0.3224 O   0  0  0  0  0  0  0  0  0  0  0  0
    0.5542    1.5725    0.9765 C   0  0  0  0  0  0  0  0  0  0  0  0
    1.8062    2.4757    0.8168 C   0  0  0  0  0  0  0  0  0  0  0  0
    1.3032    3.9308    0.7994 C   0  0  0  0  0  0  0  0  0  0  0  0
    2.5893    2.3085   -0.4923 C   0  0  0  0  0  0  0  0  0  0  0  0
    0.2278   -0.6108   -1.0908 H   0  0  0  0  0  0  0  0  0  0  0  0
    1.2497   -0.3757    1.7036 H   0  0  0  0  0  0  0  0  0  0  0  0
    0.1152    1.8456    1.9423 H   0  0  0  0  0  0  0  0  0  0  0  0
   -0.1557    1.8862    0.2015 H   0  0  0  0  0  0  0  0  0  0  0  0
    2.4821    2.3237    1.6650 H   0  0  0  0  0  0  0  0  0  0  0  0
    0.6791    4.1186   -0.0807 H   0  0  0  0  0  0  0  0  0  0  0  0
    2.1454    4.6301    0.7846 H   0  0  0  0  0  0  0  0  0  0  0  0
    0.7103    4.1417    1.6950 H   0  0  0  0  0  0  0  0  0  0  0  0
    3.3859    1.5761   -0.3716 H   0  0  0  0  0  0  0  0  0  0  0  0
    3.0774    3.2430   -0.7869 H   0  0  0  0  0  0  0  0  0  0  0  0
    1.9209    2.0077   -1.3035 H   0  0  0  0  0  0  0  0  0  0  0  0
   -1.2872   -0.4619    2.5472 N   0  0  0  0  0  0  0  0  0  0  0  0
   -2.6583   -0.7080    3.0421 C   0  0  2  0  0  0  0  0  0  0  0  0
   -3.2337   -2.1069    2.7183 C   0  0  0  0  0  0  0  0  0  0  0  0
   -3.6688   -2.8012    3.6279 O   0  0  0  0  0  0  0  0  0  0  0  0
   -3.6157    0.3995    2.5795 C   0  0  0  0  0  0  0  0  0  0  0  0
   -0.5576   -0.3452    3.2449 H   0  0  0  0  0  0  0  0  0  0  0  0
   -2.6144   -0.6505    4.1348 H   0  0  0  0  0  0  0  0  0  0  0  0
   -3.7857    0.3539    1.4999 H   0  0  0  0  0  0  0  0  0  0  0  0
   -4.5829    0.2911    3.0801 H   0  0  0  0  0  0  0  0  0  0  0  0
   -3.2066    1.3836    2.8266 H   0  0  0  0  0  0  0  0  0  0  0  0
   -3.2795   -2.5865    1.4249 N   0  0  0  0  0  0  0  0  0  0  0  0
   -3.7979   -3.8953    1.0547 C   0  0  0  0  0  0  0  0  0  0  0  0
   -2.8669   -1.9837    0.7069 H   0  0  0  0  0  0  0  0  0  0  0  0
   -4.8284   -4.0118    1.4060 H   0  0  0  0  0  0  0  0  0  0  0  0
   -3.7899   -4.0094   -0.0333 H   0  0  0  0  0  0  0  0  0  0  0  0
   -3.1828   -4.6881    1.4926 H   0  0  0  0  0  0  0  0  0  0  0  0
  1  2  2  0  0  0  0
  1  3  1  0  0  0  0
  1  7  1  0  0  0  0
  3  4  1  0  0  0  0
  3  5  1  0  0  0  0
  3  6  1  0  0  0  0
  7  8  1  0  0  0  0
  7 12  1  0  0  0  0
  8  9  1  0  0  0  0
  8 11  1  0  0  0  0
  8 13  1  0  0  0  0
  9 10  2  0  0  0  0
  9 17  1  0  0  0  0
 11 14  1  0  0  0  0
 11 15  1  0  0  0  0
 11 16  1  0  0  0  0
 17 18  1  0  0  0  0
 17 25  1  0  0  0  0
 18 19  1  0  0  0  0
 18 21  1  0  0  0  0
 18 26  1  0  0  0  0
 19 20  2  0  0  0  0
 19 36  1  0  0  0  0
 21 22  1  0  0  0  0
 21 27  1  0  0  0  0
 21 28  1  0  0  0  0
 22 23  1  0  0  0  0
 22 24  1  0  0  0  0
 22 29  1  0  0  0  0
 23 30  1  0  0  0  0
 23 31  1  0  0  0  0
 23 32  1  0  0  0  0
 24 33  1  0  0  0  0
 24 34  1  0  0  0  0
 24 35  1  0  0  0  0
 36 37  1  0  0  0  0
 36 41  1  0  0  0  0
 37 38  1  0  0  0  0
 37 40  1  0  0  0  0
 37 42  1  0  0  0  0
 38 39  2  0  0  0  0
 38 46  1  0  0  0  0
 40 43  1  0  0  0  0
 40 44  1  0  0  0  0
 40 45  1  0  0  0  0
 46 47  1  0  0  0  0
 46 48  1  0  0  0  0
 47 49  1  0  0  0  0
 47 50  1  0  0  0  0
 47 51  1  0  0  0  0
M  END
$$$$

  -OEChem-05262216553D

 51 50  0     1  0  0  0  0  0999 V2000
    0.2255   -1.7876   -3.1446 C   0  0  0  0  0  0  0  0  0  0  0  0
   -0.1539   -0.6461   -2.9424 O   0  0  0  0  0  0  0  0  0  0  0  0
   -0.7380   -2.8143   -3.7090 C   0  0  0  0  0  0  0  0  0  0  0  0
   -0.8362   -3.6545   -3.0172 H   0  0  0  0  0  0  0  0  0  0  0  0
   -1.7239   -2.3644   -3.8558 H   0  0  0  0  0  0  0  0  0  0  0  0
   -0.3727   -3.1822   -4.6707 H   0  0  0  0  0  0  0  0  0  0  0  0
    1.5101   -2.1694   -2.8039 N   0  0  0  0  0  0  0  0  0  0  0  0
    2.5665   -1.3068   -2.2298 C   0  0  2  0  0  0  0  0  0  0  0  0
    2.2933   -0.8059   -0.7899 C   0  0  0  0  0  0  0  0  0  0  0  0
    3.2091   -0.8063    0.0228 O   0  0  0  0  0  0  0  0  0  0  0  0
    2.8981   -0.1430   -3.1742 C   0  0  0  0  0  0  0  0  0  0  0  0
    1.7330   -3.1506   -2.9461 H   0  0  0  0  0  0  0  0  0  0  0  0
    3.4701   -1.9211   -2.1597 H   0  0  0  0  0  0  0  0  0  0  0  0
    2.0701    0.5684   -3.2364 H   0  0  0  0  0  0  0  0  0  0  0  0
    3.7817    0.3923   -2.8131 H   0  0  0  0  0  0  0  0  0  0  0  0
    3.1089   -0.5176   -4.1802 H   0  0  0  0  0  0  0  0  0  0  0  0
    1.0134   -0.6098   -0.3171 N   0  0  0  0  0  0  0  0  0  0  0  0
    0.6297    0.0394    0.9483 C   0  0  2  0  0  0  0  0  0  0  0  0
   -0.8541   -0.3204    1.2353 C   0  0  0  0  0  0  0  0  0  0  0  0
   -1.5728   -0.7849    0.3555 O   0  0  0  0  0  0  0  0  0  0  0  0
    0.5983    1.6064    0.9588 C   0  0  0  0  0  0  0  0  0  0  0  0
    1.8575    2.5005    0.7936 C   0  0  0  0  0  0  0  0  0  0  0  0
    1.3614    3.9566    0.7204 C   0  0  0  0  0  0  0  0  0  0  0  0
    2.6669    2.2938   -0.4941 C   0  0  0  0  0  0  0  0  0  0  0  0
    0.2880   -0.6323   -1.0420 H   0  0  0  0  0  0  0  0  0  0  0  0
    1.2652   -0.3302    1.7595 H   0  0  0  0  0  0  0  0  0  0  0  0
    0.1499    1.9180    1.9077 H   0  0  0  0  0  0  0  0  0  0  0  0
   -0.0984    1.8978    0.1637 H   0  0  0  0  0  0  0  0  0  0  0  0
    2.5159    2.3732    1.6596 H   0  0  0  0  0  0  0  0  0  0  0  0
    0.7610    4.1213   -0.1808 H   0  0  0  0  0  0  0  0  0  0  0  0
    2.2072    4.6515    0.7065 H   0  0  0  0  0  0  0  0  0  0  0  0
    0.7474    4.1968    1.5939 H   0  0  0  0  0  0  0  0  0  0  0  0
    3.4651    1.5708   -0.3338 H   0  0  0  0  0  0  0  0  0  0  0  0
    3.1566    3.2199   -0.8113 H   0  0  0  0  0  0  0  0  0  0  0  0
    2.0160    1.9628   -1.3076 H   0  0  0  0  0  0  0  0  0  0  0  0
   -1.3844   -0.1106    2.5007 N   0  0  0  0  0  0  0  0  0  0  0  0
   -2.7916   -0.2761    2.9245 C   0  0  2  0  0  0  0  0  0  0  0  0
   -3.3152   -1.7316    2.9380 C   0  0  0  0  0  0  0  0  0  0  0  0
   -3.8875   -2.1527    3.9346 O   0  0  0  0  0  0  0  0  0  0  0  0
   -3.7224    0.6288    2.1047 C   0  0  0  0  0  0  0  0  0  0  0  0
   -0.7288    0.2276    3.1995 H   0  0  0  0  0  0  0  0  0  0  0  0
   -2.8489    0.0694    3.9618 H   0  0  0  0  0  0  0  0  0  0  0  0
   -3.7997    0.2857    1.0688 H   0  0  0  0  0  0  0  0  0  0  0  0
   -4.7268    0.6241    2.5397 H   0  0  0  0  0  0  0  0  0  0  0  0
   -3.3503    1.6576    2.1043 H   0  0  0  0  0  0  0  0  0  0  0  0
   -3.1739   -2.5602    1.8435 N   0  0  0  0  0  0  0  0  0  0  0  0
   -3.6853   -3.9216    1.7742 C   0  0  0  0  0  0  0  0  0  0  0  0
   -2.6989   -2.1555    1.0317 H   0  0  0  0  0  0  0  0  0  0  0  0
   -3.4503   -4.3630    0.8009 H   0  0  0  0  0  0  0  0  0  0  0  0
   -3.2319   -4.5416    2.5546 H   0  0  0  0  0  0  0  0  0  0  0  0
   -4.7726   -3.9290    1.9043 H   0  0  0  0  0  0  0  0  0  0  0  0
  1  2  2  0  0  0  0
  1  3  1  0  0  0  0
  1  7  1  0  0  0  0
  3  4  1  0  0  0  0
  3  5  1  0  0  0  0
  3  6  1  0  0  0  0
  7  8  1  0  0  0  0
  7 12  1  0  0  0  0
  8  9  1  0  0  0  0
  8 11  1  0  0  0  0
  8 13  1  0  0  0  0
  9 10  2  0  0  0  0
  9 17  1  0  0  0  0
 11 14  1  0  0  0  0
 11 15  1  0  0  0  0
 11 16  1  0  0  0  0
 17 18  1  0  0  0  0
 17 25  1  0  0  0  0
 18 19  1  0  0  0  0
 18 21  1  0  0  0  0
 18 26  1  0  0  0  0
 19 20  2  0  0  0  0
 19 36  1  0  0  0  0
 21 22  1  0  0  0  0
 21 27  1  0  0  0  0
 21 28  1  0  0  0  0
 22 23  1  0  0  0  0
 22 24  1  0  0  0  0
 22 29  1  0  0  0  0
 23 30  1  0  0  0  0
 23 31  1  0  0  0  0
 23 32  1  0  0  0  0
 24 33  1  0  0  0  0
 24 34  1  0  0  0  0
 24 35  1  0  0  0  0
 36 37  1  0  0  0  0
 36 41  1  0  0  0  0
 37 38  1  0  0  0  0
 37 40  1  0  0  0  0
 37 42  1  0  0  0  0
 38 39  2  0  0  0  0
 38 46  1  0  0  0  0
 40 43  1  0  0  0  0
 40 44  1  0  0  0  0
 40 45  1  0  0  0  0
 46 47  1  0  0  0  0
 46 48  1  0  0  0  0
 47 49  1  0  0  0  0
 47 50  1  0  0  0  0
 47 51  1  0  0  0  0
M  END
$$$$

  -OEChem-05262216553D

 51 50  0     1  0  0  0  0  0999 V2000
    0.1809   -1.8752   -3.1008 C   0  0  0  0  0  0  0  0  0  0  0  0
   -0.2697   -0.7494   -2.9630 O   0  0  0  0  0  0  0  0  0  0  0  0
   -0.7245   -2.9950   -3.5767 C   0  0  0  0  0  0  0  0  0  0  0  0
   -0.8524   -3.7330   -2.7808 H   0  0  0  0  0  0  0  0  0  0  0  0
   -1.7068   -2.5968   -3.8474 H   0  0  0  0  0  0  0  0  0  0  0  0
   -0.2893   -3.4831   -4.4521 H   0  0  0  0  0  0  0  0  0  0  0  0
    1.4932   -2.1555   -2.7662 N   0  0  0  0  0  0  0  0  0  0  0  0
    2.5065   -1.2004   -2.2654 C   0  0  2  0  0  0  0  0  0  0  0  0
    2.2249   -0.6257   -0.8557 C   0  0  0  0  0  0  0  0  0  0  0  0
    3.1547   -0.4832   -0.0715 O   0  0  0  0  0  0  0  0  0  0  0  0
    2.7576   -0.0802   -3.2841 C   0  0  0  0  0  0  0  0  0  0  0  0
    1.7706   -3.1294   -2.8491 H   0  0  0  0  0  0  0  0  0  0  0  0
    3.4444   -1.7573   -2.1724 H   0  0  0  0  0  0  0  0  0  0  0  0
    1.8850    0.5714   -3.3832 H   0  0  0  0  0  0  0  0  0  0  0  0
    3.6070    0.5319   -2.9654 H   0  0  0  0  0  0  0  0  0  0  0  0
    2.9877   -0.5040   -4.2660 H   0  0  0  0  0  0  0  0  0  0  0  0
    0.9373   -0.4448   -0.3953 N   0  0  0  0  0  0  0  0  0  0  0  0
    0.5336    0.1482    0.8896 C   0  0  2  0  0  0  0  0  0  0  0  0
   -0.8056   -0.5072    1.3353 C   0  0  0  0  0  0  0  0  0  0  0  0
   -1.3508   -1.3606    0.6410 O   0  0  0  0  0  0  0  0  0  0  0  0
    0.2248    1.6797    0.8176 C   0  0  0  0  0  0  0  0  0  0  0  0
    1.3210    2.7338    0.5065 C   0  0  0  0  0  0  0  0  0  0  0  0
    0.6165    4.0958    0.3791 C   0  0  0  0  0  0  0  0  0  0  0  0
    2.0829    2.5384   -0.8113 C   0  0  0  0  0  0  0  0  0  0  0  0
    0.2015   -0.5875   -1.0935 H   0  0  0  0  0  0  0  0  0  0  0  0
    1.2959   -0.0448    1.6516 H   0  0  0  0  0  0  0  0  0  0  0  0
   -0.2016    1.9835    1.7779 H   0  0  0  0  0  0  0  0  0  0  0  0
   -0.5624    1.7985    0.0640 H   0  0  0  0  0  0  0  0  0  0  0  0
    2.0396    2.7665    1.3325 H   0  0  0  0  0  0  0  0  0  0  0  0
   -0.0593    4.1068   -0.4825 H   0  0  0  0  0  0  0  0  0  0  0  0
    1.3503    4.8986    0.2549 H   0  0  0  0  0  0  0  0  0  0  0  0
    0.0337    4.3120    1.2797 H   0  0  0  0  0  0  0  0  0  0  0  0
    1.4305    2.1031   -1.5738 H   0  0  0  0  0  0  0  0  0  0  0  0
    2.9533    1.9018   -0.6589 H   0  0  0  0  0  0  0  0  0  0  0  0
    2.4627    3.4909   -1.1940 H   0  0  0  0  0  0  0  0  0  0  0  0
   -1.4127   -0.1292    2.5255 N   0  0  0  0  0  0  0  0  0  0  0  0
   -2.7303   -0.5581    3.0431 C   0  0  2  0  0  0  0  0  0  0  0  0
   -2.8294   -2.0426    3.4663 C   0  0  0  0  0  0  0  0  0  0  0  0
   -3.3568   -2.3264    4.5339 O   0  0  0  0  0  0  0  0  0  0  0  0
   -3.8531   -0.1984    2.0605 C   0  0  0  0  0  0  0  0  0  0  0  0
   -0.8960    0.5437    3.0843 H   0  0  0  0  0  0  0  0  0  0  0  0
   -2.9105    0.0214    3.9544 H   0  0  0  0  0  0  0  0  0  0  0  0
   -3.8062   -0.8170    1.1595 H   0  0  0  0  0  0  0  0  0  0  0  0
   -4.8275   -0.3591    2.5324 H   0  0  0  0  0  0  0  0  0  0  0  0
   -3.7800    0.8526    1.7662 H   0  0  0  0  0  0  0  0  0  0  0  0
   -2.3608   -3.0571    2.6565 N   0  0  0  0  0  0  0  0  0  0  0  0
   -2.4974   -4.4745    2.9598 C   0  0  0  0  0  0  0  0  0  0  0  0
   -1.9818   -2.7681    1.7504 H   0  0  0  0  0  0  0  0  0  0  0  0
   -3.5543   -4.7596    2.9850 H   0  0  0  0  0  0  0  0  0  0  0  0
   -1.9935   -5.0730    2.1950 H   0  0  0  0  0  0  0  0  0  0  0  0
   -2.0462   -4.7046    3.9306 H   0  0  0  0  0  0  0  0  0  0  0  0
  1  2  2  0  0  0  0
  1  3  1  0  0  0  0
  1  7  1  0  0  0  0
  3  4  1  0  0  0  0
  3  5  1  0  0  0  0
  3  6  1  0  0  0  0
  7  8  1  0  0  0  0
  7 12  1  0  0  0  0
  8  9  1  0  0  0  0
  8 11  1  0  0  0  0
  8 13  1  0  0  0  0
  9 10  2  0  0  0  0
  9 17  1  0  0  0  0
 11 14  1  0  0  0  0
 11 15  1  0  0  0  0
 11 16  1  0  0  0  0
 17 18  1  0  0  0  0
 17 25  1  0  0  0  0
 18 19  1  0  0  0  0
 18 21  1  0  0  0  0
 18 26  1  0  0  0  0
 19 20  2  0  0  0  0
 19 36  1  0  0  0  0
 21 22  1  0  0  0  0
 21 27  1  0  0  0  0
 21 28  1  0  0  0  0
 22 23  1  0  0  0  0
 22 24  1  0  0  0  0
 22 29  1  0  0  0  0
 23 30  1  0  0  0  0
 23 31  1  0  0  0  0
 23 32  1  0  0  0  0
 24 33  1  0  0  0  0
 24 34  1  0  0  0  0
 24 35  1  0  0  0  0
 36 37  1  0  0  0  0
 36 41  1  0  0  0  0
 37 38  1  0  0  0  0
 37 40  1  0  0  0  0
 37 42  1  0  0  0  0
 38 39  2  0  0  0  0
 38 46  1  0  0  0  0
 40 43  1  0  0  0  0
 40 44  1  0  0  0  0
 40 45  1  0  0  0  0
 46 47  1  0  0  0  0
 46 48  1  0  0  0  0
 47 49  1  0  0  0  0
 47 50  1  0  0  0  0
 47 51  1  0  0  0  0
M  END
$$$$

  -OEChem-05262216553D

 51 50  0     1  0  0  0  0  0999 V2000
    0.1676   -1.9635   -3.0294 C   0  0  0  0  0  0  0  0  0  0  0  0
   -0.3433   -0.8615   -2.9067 O   0  0  0  0  0  0  0  0  0  0  0  0
   -0.6876   -3.1458   -3.4435 C   0  0  0  0  0  0  0  0  0  0  0  0
   -0.7251   -3.8803   -2.6348 H   0  0  0  0  0  0  0  0  0  0  0  0
   -1.7063   -2.8147   -3.6653 H   0  0  0  0  0  0  0  0  0  0  0  0
   -0.2698   -3.6163   -4.3368 H   0  0  0  0  0  0  0  0  0  0  0  0
    1.5068   -2.1582   -2.7434 N   0  0  0  0  0  0  0  0  0  0  0  0
    2.4788   -1.1360   -2.2966 C   0  0  2  0  0  0  0  0  0  0  0  0
    2.2204   -0.5719   -0.8793 C   0  0  0  0  0  0  0  0  0  0  0  0
    3.1567   -0.4689   -0.0967 O   0  0  0  0  0  0  0  0  0  0  0  0
    2.6080   -0.0059   -3.3274 C   0  0  0  0  0  0  0  0  0  0  0  0
    1.8335   -3.1187   -2.7992 H   0  0  0  0  0  0  0  0  0  0  0  0
    3.4549   -1.6295   -2.2457 H   0  0  0  0  0  0  0  0  0  0  0  0
    1.6964    0.5963   -3.3748 H   0  0  0  0  0  0  0  0  0  0  0  0
    3.4385    0.6540   -3.0575 H   0  0  0  0  0  0  0  0  0  0  0  0
    2.8036   -0.4189   -4.3214 H   0  0  0  0  0  0  0  0  0  0  0  0
    0.9395   -0.3610   -0.4143 N   0  0  0  0  0  0  0  0  0  0  0  0
    0.5555    0.2142    0.8853 C   0  0  2  0  0  0  0  0  0  0  0  0
   -0.8079   -0.4194    1.3041 C   0  0  0  0  0  0  0  0  0  0  0  0
   -1.2261   -1.4233    0.7344 O   0  0  0  0  0  0  0  0  0  0  0  0
    0.3169    1.7618    0.8478 C   0  0  0  0  0  0  0  0  0  0  0  0
    1.4557    2.7786    0.5669 C   0  0  0  0  0  0  0  0  0  0  0  0
    0.8030    4.1694    0.4714 C   0  0  0  0  0  0  0  0  0  0  0  0
    2.2111    2.5912   -0.7558 C   0  0  0  0  0  0  0  0  0  0  0  0
    0.1943   -0.5248   -1.0982 H   0  0  0  0  0  0  0  0  0  0  0  0
    1.3060   -0.0283    1.6448 H   0  0  0  0  0  0  0  0  0  0  0  0
   -0.0844    2.0642    1.8184 H   0  0  0  0  0  0  0  0  0  0  0  0
   -0.4668    1.9339    0.1009 H   0  0  0  0  0  0  0  0  0  0  0  0
    2.1730    2.7620    1.3946 H   0  0  0  0  0  0  0  0  0  0  0  0
    0.1278    4.2254   -0.3890 H   0  0  0  0  0  0  0  0  0  0  0  0
    1.5666    4.9466    0.3649 H   0  0  0  0  0  0  0  0  0  0  0  0
    0.2288    4.3875    1.3773 H   0  0  0  0  0  0  0  0  0  0  0  0
    1.5452    2.1978   -1.5291 H   0  0  0  0  0  0  0  0  0  0  0  0
    3.0596    1.9227   -0.6199 H   0  0  0  0  0  0  0  0  0  0  0  0
    2.6230    3.5397   -1.1144 H   0  0  0  0  0  0  0  0  0  0  0  0
   -1.5844    0.1267    2.3189 N   0  0  0  0  0  0  0  0  0  0  0  0
   -2.9343   -0.2939    2.7539 C   0  0  2  0  0  0  0  0  0  0  0  0
   -3.0099   -1.6774    3.4412 C   0  0  0  0  0  0  0  0  0  0  0  0
   -3.6050   -1.7860    4.5054 O   0  0  0  0  0  0  0  0  0  0  0  0
   -3.9409   -0.2047    1.5983 C   0  0  0  0  0  0  0  0  0  0  0  0
   -1.1809    0.9290    2.7929 H   0  0  0  0  0  0  0  0  0  0  0  0
   -3.2577    0.4295    3.5095 H   0  0  0  0  0  0  0  0  0  0  0  0
   -3.7507   -0.9744    0.8446 H   0  0  0  0  0  0  0  0  0  0  0  0
   -4.9579   -0.3448    1.9780 H   0  0  0  0  0  0  0  0  0  0  0  0
   -3.8831    0.7762    1.1171 H   0  0  0  0  0  0  0  0  0  0  0  0
   -2.4397   -2.7971    2.8711 N   0  0  0  0  0  0  0  0  0  0  0  0
   -2.5147   -4.1360    3.4380 C   0  0  0  0  0  0  0  0  0  0  0  0
   -1.9727   -2.6540    1.9713 H   0  0  0  0  0  0  0  0  0  0  0  0
   -3.5551   -4.4742    3.4843 H   0  0  0  0  0  0  0  0  0  0  0  0
   -1.9487   -4.8382    2.8184 H   0  0  0  0  0  0  0  0  0  0  0  0
   -2.0934   -4.1493    4.4487 H   0  0  0  0  0  0  0  0  0  0  0  0
  1  2  2  0  0  0  0
  1  3  1  0  0  0  0
  1  7  1  0  0  0  0
  3  4  1  0  0  0  0
  3  5  1  0  0  0  0
  3  6  1  0  0  0  0
  7  8  1  0  0  0  0
  7 12  1  0  0  0  0
  8  9  1  0  0  0  0
  8 11  1  0  0  0  0
  8 13  1  0  0  0  0
  9 10  2  0  0  0  0
  9 17  1  0  0  0  0
 11 14  1  0  0  0  0
 11 15  1  0  0  0  0
 11 16  1  0  0  0  0
 17 18  1  0  0  0  0
 17 25  1  0  0  0  0
 18 19  1  0  0  0  0
 18 21  1  0  0  0  0
 18 26  1  0  0  0  0
 19 20  2  0  0  0  0
 19 36  1  0  0  0  0
 21 22  1  0  0  0  0
 21 27  1  0  0  0  0
 21 28  1  0  0  0  0
 22 23  1  0  0  0  0
 22 24  1  0  0  0  0
 22 29  1  0  0  0  0
 23 30  1  0  0  0  0
 23 31  1  0  0  0  0
 23 32  1  0  0  0  0
 24 33  1  0  0  0  0
 24 34  1  0  0  0  0
 24 35  1  0  0  0  0
 36 37  1  0  0  0  0
 36 41  1  0  0  0  0
 37 38  1  0  0  0  0
 37 40  1  0  0  0  0
 37 42  1  0  0  0  0
 38 39  2  0  0  0  0
 38 46  1  0  0  0  0
 40 43  1  0  0  0  0
 40 44  1  0  0  0  0
 40 45  1  0  0  0  0
 46 47  1  0  0  0  0
 46 48  1  0  0  0  0
 47 49  1  0  0  0  0
 47 50  1  0  0  0  0
 47 51  1  0  0  0  0
M  END
$$$$

  -OEChem-05262216553D

 51 50  0     1  0  0  0  0  0999 V2000
    0.0874   -1.9815   -2.9880 C   0  0  0  0  0  0  0  0  0  0  0  0
   -0.4446   -0.8892   -2.8621 O   0  0  0  0  0  0  0  0  0  0  0  0
   -0.7591   -3.1928   -3.3304 C   0  0  0  0  0  0  0  0  0  0  0  0
   -0.7270   -3.9138   -2.5095 H   0  0  0  0  0  0  0  0  0  0  0  0
   -1.7982   -2.8928   -3.4931 H   0  0  0  0  0  0  0  0  0  0  0  0
   -0.3839   -3.6678   -4.2401 H   0  0  0  0  0  0  0  0  0  0  0  0
    1.4445   -2.1396   -2.7699 N   0  0  0  0  0  0  0  0  0  0  0  0
    2.4114   -1.0923   -2.3716 C   0  0  2  0  0  0  0  0  0  0  0  0
    2.2029   -0.5342   -0.9438 C   0  0  0  0  0  0  0  0  0  0  0  0
    3.1559   -0.4729   -0.1777 O   0  0  0  0  0  0  0  0  0  0  0  0
    2.4611    0.0403   -3.4061 C   0  0  0  0  0  0  0  0  0  0  0  0
    1.7876   -3.0951   -2.8162 H   0  0  0  0  0  0  0  0  0  0  0  0
    3.4015   -1.5598   -2.3684 H   0  0  0  0  0  0  0  0  0  0  0  0
    1.5359    0.6235   -3.4034 H   0  0  0  0  0  0  0  0  0  0  0  0
    3.2908    0.7171   -3.1797 H   0  0  0  0  0  0  0  0  0  0  0  0
    2.6121   -0.3684   -4.4097 H   0  0  0  0  0  0  0  0  0  0  0  0
    0.9366   -0.2909   -0.4564 N   0  0  0  0  0  0  0  0  0  0  0  0
    0.5818    0.2712    0.8566 C   0  0  2  0  0  0  0  0  0  0  0  0
   -0.7980   -0.3459    1.2496 C   0  0  0  0  0  0  0  0  0  0  0  0
   -1.0890   -1.4736    0.8626 O   0  0  0  0  0  0  0  0  0  0  0  0
    0.4094    1.8270    0.8736 C   0  0  0  0  0  0  0  0  0  0  0  0
    1.5897    2.8026    0.6216 C   0  0  0  0  0  0  0  0  0  0  0  0
    0.9960    4.2220    0.5778 C   0  0  0  0  0  0  0  0  0  0  0  0
    2.3297    2.6278   -0.7121 C   0  0  0  0  0  0  0  0  0  0  0  0
    0.1774   -0.4509   -1.1250 H   0  0  0  0  0  0  0  0  0  0  0  0
    1.3232   -0.0223    1.6068 H   0  0  0  0  0  0  0  0  0  0  0  0
    0.0350    2.1066    1.8622 H   0  0  0  0  0  0  0  0  0  0  0  0
   -0.3721    2.0613    0.1417 H   0  0  0  0  0  0  0  0  0  0  0  0
    2.3101    2.7264    1.4432 H   0  0  0  0  0  0  0  0  0  0  0  0
    0.3166    4.3353   -0.2735 H   0  0  0  0  0  0  0  0  0  0  0  0
    1.7907    4.9697    0.4902 H   0  0  0  0  0  0  0  0  0  0  0  0
    0.4393    4.4333    1.4961 H   0  0  0  0  0  0  0  0  0  0  0  0
    1.6481    2.2741   -1.4908 H   0  0  0  0  0  0  0  0  0  0  0  0
    3.1593    1.9315   -0.6003 H   0  0  0  0  0  0  0  0  0  0  0  0
    2.7672    3.5728   -1.0491 H   0  0  0  0  0  0  0  0  0  0  0  0
   -1.7224    0.3241    2.0426 N   0  0  0  0  0  0  0  0  0  0  0  0
   -3.0959   -0.1035    2.3886 C   0  0  2  0  0  0  0  0  0  0  0  0
   -3.1940   -1.3248    3.3326 C   0  0  0  0  0  0  0  0  0  0  0  0
   -3.9447   -1.2760    4.2983 O   0  0  0  0  0  0  0  0  0  0  0  0
   -3.9424   -0.3202    1.1262 C   0  0  0  0  0  0  0  0  0  0  0  0
   -1.4372    1.2440    2.3627 H   0  0  0  0  0  0  0  0  0  0  0  0
   -3.5530    0.7282    2.9345 H   0  0  0  0  0  0  0  0  0  0  0  0
   -3.6196   -1.2105    0.5787 H   0  0  0  0  0  0  0  0  0  0  0  0
   -4.9940   -0.4526    1.3996 H   0  0  0  0  0  0  0  0  0  0  0  0
   -3.8638    0.5454    0.4615 H   0  0  0  0  0  0  0  0  0  0  0  0
   -2.4653   -2.4742    3.1041 N   0  0  0  0  0  0  0  0  0  0  0  0
   -2.5444   -3.6723    3.9272 C   0  0  0  0  0  0  0  0  0  0  0  0
   -1.8815   -2.4759    2.2630 H   0  0  0  0  0  0  0  0  0  0  0  0
   -1.8546   -4.4337    3.5506 H   0  0  0  0  0  0  0  0  0  0  0  0
   -2.2748   -3.4435    4.9635 H   0  0  0  0  0  0  0  0  0  0  0  0
   -3.5593   -4.0826    3.9076 H   0  0  0  0  0  0  0  0  0  0  0  0
  1  2  2  0  0  0  0
  1  3  1  0  0  0  0
  1  7  1  0  0  0  0
  3  4  1  0  0  0  0
  3  5  1  0  0  0  0
  3  6  1  0  0  0  0
  7  8  1  0  0  0  0
  7 12  1  0  0  0  0
  8  9  1  0  0  0  0
  8 11  1  0  0  0  0
  8 13  1  0  0  0  0
  9 10  2  0  0  0  0
  9 17  1  0  0  0  0
 11 14  1  0  0  0  0
 11 15  1  0  0  0  0
 11 16  1  0  0  0  0
 17 18  1  0  0  0  0
 17 25  1  0  0  0  0
 18 19  1  0  0  0  0
 18 21  1  0  0  0  0
 18 26  1  0  0  0  0
 19 20  2  0  0  0  0
 19 36  1  0  0  0  0
 21 22  1  0  0  0  0
 21 27  1  0  0  0  0
 21 28  1  0  0  0  0
 22 23  1  0  0  0  0
 22 24  1  0  0  0  0
 22 29  1  0  0  0  0
 23 30  1  0  0  0  0
 23 31  1  0  0  0  0
 23 32  1  0  0  0  0
 24 33  1  0  0  0  0
 24 34  1  0  0  0  0
 24 35  1  0  0  0  0
 36 37  1  0  0  0  0
 36 41  1  0  0  0  0
 37 38  1  0  0  0  0
 37 40  1  0  0  0  0
 37 42  1  0  0  0  0
 38 39  2  0  0  0  0
 38 46  1  0  0  0  0
 40 43  1  0  0  0  0
 40 44  1  0  0  0  0
 40 45  1  0  0  0  0
 46 47  1  0  0  0  0
 46 48  1  0  0  0  0
 47 49  1  0  0  0  0
 47 50  1  0  0  0  0
 47 51  1  0  0  0  0
M  END
$$$$

  -OEChem-05262216553D

 51 50  0     1  0  0  0  0  0999 V2000
    0.2588   -2.1063   -2.8777 C   0  0  0  0  0  0  0  0  0  0  0  0
   -0.3194   -1.0315   -2.8228 O   0  0  0  0  0  0  0  0  0  0  0  0
   -0.5314   -3.3669   -3.1729 C   0  0  0  0  0  0  0  0  0  0  0  0
   -0.5179   -4.0272   -2.3020 H   0  0  0  0  0  0  0  0  0  0  0  0
   -1.5698   -3.1151   -3.4063 H   0  0  0  0  0  0  0  0  0  0  0  0
   -0.0968   -3.8912   -4.0275 H   0  0  0  0  0  0  0  0  0  0  0  0
    1.6144   -2.1988   -2.6169 N   0  0  0  0  0  0  0  0  0  0  0  0
    2.5283   -1.0969   -2.2402 C   0  0  2  0  0  0  0  0  0  0  0  0
    2.2560   -0.4915   -0.8437 C   0  0  0  0  0  0  0  0  0  0  0  0
    3.1734   -0.4000   -0.0385 O   0  0  0  0  0  0  0  0  0  0  0  0
    2.5611   -0.0048   -3.3182 C   0  0  0  0  0  0  0  0  0  0  0  0
    1.9926   -3.1420   -2.5972 H   0  0  0  0  0  0  0  0  0  0  0  0
    3.5360   -1.5227   -2.1917 H   0  0  0  0  0  0  0  0  0  0  0  0
    1.6186    0.5490   -3.3542 H   0  0  0  0  0  0  0  0  0  0  0  0
    3.3653    0.7064   -3.1054 H   0  0  0  0  0  0  0  0  0  0  0  0
    2.7430   -0.4477   -4.3019 H   0  0  0  0  0  0  0  0  0  0  0  0
    0.9668   -0.2415   -0.4253 N   0  0  0  0  0  0  0  0  0  0  0  0
    0.5485    0.3635    0.8483 C   0  0  2  0  0  0  0  0  0  0  0  0
   -0.8417   -0.2563    1.1879 C   0  0  0  0  0  0  0  0  0  0  0  0
   -1.0018   -1.4646    1.0513 O   0  0  0  0  0  0  0  0  0  0  0  0
    0.3788    1.9187    0.8204 C   0  0  0  0  0  0  0  0  0  0  0  0
    1.5721    2.8873    0.6054 C   0  0  0  0  0  0  0  0  0  0  0  0
    0.9835    4.3055    0.4989 C   0  0  0  0  0  0  0  0  0  0  0  0
    2.3772    2.6810   -0.6862 C   0  0  0  0  0  0  0  0  0  0  0  0
    0.2432   -0.4352   -1.1236 H   0  0  0  0  0  0  0  0  0  0  0  0
    1.2512    0.0921    1.6432 H   0  0  0  0  0  0  0  0  0  0  0  0
   -0.0506    2.2150    1.7828 H   0  0  0  0  0  0  0  0  0  0  0  0
   -0.3584    2.1381    0.0395 H   0  0  0  0  0  0  0  0  0  0  0  0
    2.2500    2.8299    1.4642 H   0  0  0  0  0  0  0  0  0  0  0  0
    0.3574    4.4040   -0.3942 H   0  0  0  0  0  0  0  0  0  0  0  0
    1.7833    5.0511    0.4467 H   0  0  0  0  0  0  0  0  0  0  0  0
    0.3722    4.5335    1.3776 H   0  0  0  0  0  0  0  0  0  0  0  0
    1.7344    2.3117   -1.4903 H   0  0  0  0  0  0  0  0  0  0  0  0
    3.1979    1.9855   -0.5189 H   0  0  0  0  0  0  0  0  0  0  0  0
    2.8344    3.6174   -1.0211 H   0  0  0  0  0  0  0  0  0  0  0  0
   -1.9207    0.4986    1.6331 N   0  0  0  0  0  0  0  0  0  0  0  0
   -3.3101    0.0434    1.8598 C   0  0  2  0  0  0  0  0  0  0  0  0
   -3.5087   -0.9324    3.0440 C   0  0  0  0  0  0  0  0  0  0  0  0
   -4.4070   -0.7214    3.8485 O   0  0  0  0  0  0  0  0  0  0  0  0
   -3.9187   -0.5311    0.5727 C   0  0  0  0  0  0  0  0  0  0  0  0
   -1.7447    1.4936    1.7315 H   0  0  0  0  0  0  0  0  0  0  0  0
   -3.8927    0.9356    2.1121 H   0  0  0  0  0  0  0  0  0  0  0  0
   -3.4548   -1.4846    0.3039 H   0  0  0  0  0  0  0  0  0  0  0  0
   -4.9911   -0.7019    0.7104 H   0  0  0  0  0  0  0  0  0  0  0  0
   -3.7834    0.1686   -0.2575 H   0  0  0  0  0  0  0  0  0  0  0  0
   -2.7108   -2.0469    3.2043 N   0  0  0  0  0  0  0  0  0  0  0  0
   -2.8750   -3.0292    4.2660 C   0  0  0  0  0  0  0  0  0  0  0  0
   -1.9950   -2.1934    2.4870 H   0  0  0  0  0  0  0  0  0  0  0  0
   -3.8538   -3.5137    4.1905 H   0  0  0  0  0  0  0  0  0  0  0  0
   -2.1004   -3.7983    4.1902 H   0  0  0  0  0  0  0  0  0  0  0  0
   -2.7915   -2.5504    5.2470 H   0  0  0  0  0  0  0  0  0  0  0  0
  1  2  2  0  0  0  0
  1  3  1  0  0  0  0
  1  7  1  0  0  0  0
  3  4  1  0  0  0  0
  3  5  1  0  0  0  0
  3  6  1  0  0  0  0
  7  8  1  0  0  0  0
  7 12  1  0  0  0  0
  8  9  1  0  0  0  0
  8 11  1  0  0  0  0
  8 13  1  0  0  0  0
  9 10  2  0  0  0  0
  9 17  1  0  0  0  0
 11 14  1  0  0  0  0
 11 15  1  0  0  0  0
 11 16  1  0  0  0  0
 17 18  1  0  0  0  0
 17 25  1  0  0  0  0
 18 19  1  0  0  0  0
 18 21  1  0  0  0  0
 18 26  1  0  0  0  0
 19 20  2  0  0  0  0
 19 36  1  0  0  0  0
 21 22  1  0  0  0  0
 21 27  1  0  0  0  0
 21 28  1  0  0  0  0
 22 23  1  0  0  0  0
 22 24  1  0  0  0  0
 22 29  1  0  0  0  0
 23 30  1  0  0  0  0
 23 31  1  0  0  0  0
 23 32  1  0  0  0  0
 24 33  1  0  0  0  0
 24 34  1  0  0  0  0
 24 35  1  0  0  0  0
 36 37  1  0  0  0  0
 36 41  1  0  0  0  0
 37 38  1  0  0  0  0
 37 40  1  0  0  0  0
 37 42  1  0  0  0  0
 38 39  2  0  0  0  0
 38 46  1  0  0  0  0
 40 43  1  0  0  0  0
 40 44  1  0  0  0  0
 40 45  1  0  0  0  0
 46 47  1  0  0  0  0
 46 48  1  0  0  0  0
 47 49  1  0  0  0  0
 47 50  1  0  0  0  0
 47 51  1  0  0  0  0
M  END
$$$$

  -OEChem-05262216553D

 51 50  0     1  0  0  0  0  0999 V2000
    0.1963   -2.0431   -2.9839 C   0  0  0  0  0  0  0  0  0  0  0  0
   -0.4000   -0.9846   -2.8523 O   0  0  0  0  0  0  0  0  0  0  0  0
   -0.5782   -3.2973   -3.3420 C   0  0  0  0  0  0  0  0  0  0  0  0
   -0.4689   -4.0432   -2.5505 H   0  0  0  0  0  0  0  0  0  0  0  0
   -1.6404   -3.0642   -3.4596 H   0  0  0  0  0  0  0  0  0  0  0  0
   -0.2041   -3.7134   -4.2806 H   0  0  0  0  0  0  0  0  0  0  0  0
    1.5596   -2.1254   -2.7618 N   0  0  0  0  0  0  0  0  0  0  0  0
    2.4696   -1.0276   -2.3649 C   0  0  2  0  0  0  0  0  0  0  0  0
    2.2270   -0.4748   -0.9409 C   0  0  0  0  0  0  0  0  0  0  0  0
    3.1608   -0.4075   -0.1529 O   0  0  0  0  0  0  0  0  0  0  0  0
    2.4596    0.1019   -3.4040 C   0  0  0  0  0  0  0  0  0  0  0  0
    1.9566   -3.0596   -2.8150 H   0  0  0  0  0  0  0  0  0  0  0  0
    3.4832   -1.4421   -2.3573 H   0  0  0  0  0  0  0  0  0  0  0  0
    1.5083    0.6416   -3.3961 H   0  0  0  0  0  0  0  0  0  0  0  0
    3.2590    0.8172   -3.1865 H   0  0  0  0  0  0  0  0  0  0  0  0
    2.6215   -0.3030   -4.4074 H   0  0  0  0  0  0  0  0  0  0  0  0
    0.9468   -0.2287   -0.4932 N   0  0  0  0  0  0  0  0  0  0  0  0
    0.5526    0.3634    0.7938 C   0  0  2  0  0  0  0  0  0  0  0  0
   -0.8272   -0.2605    1.1500 C   0  0  0  0  0  0  0  0  0  0  0  0
   -0.9057   -1.4766    1.2760 O   0  0  0  0  0  0  0  0  0  0  0  0
    0.3968    1.9190    0.8132 C   0  0  0  0  0  0  0  0  0  0  0  0
    1.5990    2.8783    0.6099 C   0  0  0  0  0  0  0  0  0  0  0  0
    1.0311    4.3074    0.5512 C   0  0  0  0  0  0  0  0  0  0  0  0
    2.3843    2.6952   -0.6969 C   0  0  0  0  0  0  0  0  0  0  0  0
    0.2150   -0.3860   -1.1917 H   0  0  0  0  0  0  0  0  0  0  0  0
    1.2683    0.0715    1.5700 H   0  0  0  0  0  0  0  0  0  0  0  0
   -0.0337    2.1879    1.7839 H   0  0  0  0  0  0  0  0  0  0  0  0
   -0.3369    2.1689    0.0386 H   0  0  0  0  0  0  0  0  0  0  0  0
    2.2870    2.7874    1.4576 H   0  0  0  0  0  0  0  0  0  0  0  0
    0.3905    4.4394   -0.3271 H   0  0  0  0  0  0  0  0  0  0  0  0
    1.8419    5.0416    0.5035 H   0  0  0  0  0  0  0  0  0  0  0  0
    0.4405    4.5208    1.4477 H   0  0  0  0  0  0  0  0  0  0  0  0
    1.7281    2.3465   -1.4993 H   0  0  0  0  0  0  0  0  0  0  0  0
    3.2034    1.9921   -0.5551 H   0  0  0  0  0  0  0  0  0  0  0  0
    2.8417    3.6358   -1.0192 H   0  0  0  0  0  0  0  0  0  0  0  0
   -1.9793    0.4961    1.3275 N   0  0  0  0  0  0  0  0  0  0  0  0
   -3.3593    0.0027    1.5291 C   0  0  2  0  0  0  0  0  0  0  0  0
   -3.6239   -0.6812    2.8906 C   0  0  0  0  0  0  0  0  0  0  0  0
   -4.6272   -0.3833    3.5257 O   0  0  0  0  0  0  0  0  0  0  0  0
   -3.8001   -0.9024    0.3694 C   0  0  0  0  0  0  0  0  0  0  0  0
   -1.8650    1.4974    1.2045 H   0  0  0  0  0  0  0  0  0  0  0  0
   -4.0114    0.8819    1.5076 H   0  0  0  0  0  0  0  0  0  0  0  0
   -3.2743   -1.8613    0.3913 H   0  0  0  0  0  0  0  0  0  0  0  0
   -4.8738   -1.1028    0.4389 H   0  0  0  0  0  0  0  0  0  0  0  0
   -3.5997   -0.4171   -0.5907 H   0  0  0  0  0  0  0  0  0  0  0  0
   -2.7601   -1.6290    3.4004 N   0  0  0  0  0  0  0  0  0  0  0  0
   -2.9811   -2.3541    4.6430 C   0  0  0  0  0  0  0  0  0  0  0  0
   -1.9704   -1.8843    2.8009 H   0  0  0  0  0  0  0  0  0  0  0  0
   -3.8753   -2.9808    4.5658 H   0  0  0  0  0  0  0  0  0  0  0  0
   -2.1230   -2.9970    4.8609 H   0  0  0  0  0  0  0  0  0  0  0  0
   -3.1095   -1.6562    5.4768 H   0  0  0  0  0  0  0  0  0  0  0  0
  1  2  2  0  0  0  0
  1  3  1  0  0  0  0
  1  7  1  0  0  0  0
  3  4  1  0  0  0  0
  3  5  1  0  0  0  0
  3  6  1  0  0  0  0
  7  8  1  0  0  0  0
  7 12  1  0  0  0  0
  8  9  1  0  0  0  0
  8 11  1  0  0  0  0
  8 13  1  0  0  0  0
  9 10  2  0  0  0  0
  9 17  1  0  0  0  0
 11 14  1  0  0  0  0
 11 15  1  0  0  0  0
 11 16  1  0  0  0  0
 17 18  1  0  0  0  0
 17 25  1  0  0  0  0
 18 19  1  0  0  0  0
 18 21  1  0  0  0  0
 18 26  1  0  0  0  0
 19 20  2  0  0  0  0
 19 36  1  0  0  0  0
 21 22  1  0  0  0  0
 21 27  1  0  0  0  0
 21 28  1  0  0  0  0
 22 23  1  0  0  0  0
 22 24  1  0  0  0  0
 22 29  1  0  0  0  0
 23 30  1  0  0  0  0
 23 31  1  0  0  0  0
 23 32  1  0  0  0  0
 24 33  1  0  0  0  0
 24 34  1  0  0  0  0
 24 35  1  0  0  0  0
 36 37  1  0  0  0  0
 36 41  1  0  0  0  0
 37 38  1  0  0  0  0
 37 40  1  0  0  0  0
 37 42  1  0  0  0  0
 38 39  2  0  0  0  0
 38 46  1  0  0  0  0
 40 43  1  0  0  0  0
 40 44  1  0  0  0  0
 40 45  1  0  0  0  0
 46 47  1  0  0  0  0
 46 48  1  0  0  0  0
 47 49  1  0  0  0  0
 47 50  1  0  0  0  0
 47 51  1  0  0  0  0
M  END
$$$$

  -OEChem-05262216553D

 51 50  0     1  0  0  0  0  0999 V2000
    0.2431   -2.1133   -2.8636 C   0  0  0  0  0  0  0  0  0  0  0  0
   -0.3868   -1.0709   -2.7597 O   0  0  0  0  0  0  0  0  0  0  0  0
   -0.4963   -3.4079   -3.1440 C   0  0  0  0  0  0  0  0  0  0  0  0
   -0.3586   -4.1039   -2.3126 H   0  0  0  0  0  0  0  0  0  0  0  0
   -1.5659   -3.2139   -3.2650 H   0  0  0  0  0  0  0  0  0  0  0  0
   -0.1168   -3.8655   -4.0607 H   0  0  0  0  0  0  0  0  0  0  0  0
    1.6128   -2.1421   -2.6676 N   0  0  0  0  0  0  0  0  0  0  0  0
    2.4944   -1.0035   -2.3241 C   0  0  2  0  0  0  0  0  0  0  0  0
    2.2554   -0.4093   -0.9164 C   0  0  0  0  0  0  0  0  0  0  0  0
    3.1925   -0.3073   -0.1366 O   0  0  0  0  0  0  0  0  0  0  0  0
    2.4343    0.0886   -3.4005 C   0  0  0  0  0  0  0  0  0  0  0  0
    2.0389   -3.0647   -2.6932 H   0  0  0  0  0  0  0  0  0  0  0  0
    3.5205   -1.3861   -2.3184 H   0  0  0  0  0  0  0  0  0  0  0  0
    1.4645    0.5942   -3.4010 H   0  0  0  0  0  0  0  0  0  0  0  0
    3.2100    0.8383   -3.2158 H   0  0  0  0  0  0  0  0  0  0  0  0
    2.6018   -0.3447   -4.3910 H   0  0  0  0  0  0  0  0  0  0  0  0
    0.9741   -0.1660   -0.4712 N   0  0  0  0  0  0  0  0  0  0  0  0
    0.5716    0.4604    0.7959 C   0  0  2  0  0  0  0  0  0  0  0  0
   -0.7957   -0.1739    1.1678 C   0  0  0  0  0  0  0  0  0  0  0  0
   -0.8172   -1.3379    1.5476 O   0  0  0  0  0  0  0  0  0  0  0  0
    0.3898    2.0127    0.7737 C   0  0  0  0  0  0  0  0  0  0  0  0
    1.5782    2.9832    0.5439 C   0  0  0  0  0  0  0  0  0  0  0  0
    0.9915    4.4024    0.4461 C   0  0  0  0  0  0  0  0  0  0  0  0
    2.3678    2.7730   -0.7565 C   0  0  0  0  0  0  0  0  0  0  0  0
    0.2444   -0.3534   -1.1641 H   0  0  0  0  0  0  0  0  0  0  0  0
    1.2914    0.2021    1.5805 H   0  0  0  0  0  0  0  0  0  0  0  0
   -0.0603    2.2980    1.7314 H   0  0  0  0  0  0  0  0  0  0  0  0
   -0.3367    2.2327   -0.0159 H   0  0  0  0  0  0  0  0  0  0  0  0
    2.2664    2.9257    1.3943 H   0  0  0  0  0  0  0  0  0  0  0  0
    0.3489    4.5020   -0.4351 H   0  0  0  0  0  0  0  0  0  0  0  0
    1.7926    5.1455    0.3776 H   0  0  0  0  0  0  0  0  0  0  0  0
    0.3980    4.6328    1.3363 H   0  0  0  0  0  0  0  0  0  0  0  0
    1.7173    2.3961   -1.5510 H   0  0  0  0  0  0  0  0  0  0  0  0
    3.1932    2.0816   -0.5944 H   0  0  0  0  0  0  0  0  0  0  0  0
    2.8172    3.7093   -1.1028 H   0  0  0  0  0  0  0  0  0  0  0  0
   -1.9997    0.5041    1.0247 N   0  0  0  0  0  0  0  0  0  0  0  0
   -3.3624   -0.0667    1.0933 C   0  0  2  0  0  0  0  0  0  0  0  0
   -3.8264   -0.5356    2.4928 C   0  0  0  0  0  0  0  0  0  0  0  0
   -4.9489   -0.2376    2.8803 O   0  0  0  0  0  0  0  0  0  0  0  0
   -3.5366   -1.1874    0.0580 C   0  0  0  0  0  0  0  0  0  0  0  0
   -1.9206    1.4518    0.6692 H   0  0  0  0  0  0  0  0  0  0  0  0
   -4.0507    0.7362    0.8095 H   0  0  0  0  0  0  0  0  0  0  0  0
   -2.9653   -2.0774    0.3373 H   0  0  0  0  0  0  0  0  0  0  0  0
   -4.5916   -1.4697   -0.0135 H   0  0  0  0  0  0  0  0  0  0  0  0
   -3.2000   -0.8526   -0.9281 H   0  0  0  0  0  0  0  0  0  0  0  0
   -3.0184   -1.3070    3.3035 N   0  0  0  0  0  0  0  0  0  0  0  0
   -3.4307   -1.8533    4.5888 C   0  0  0  0  0  0  0  0  0  0  0  0
   -2.1159   -1.5816    2.9054 H   0  0  0  0  0  0  0  0  0  0  0  0
   -4.2576   -2.5587    4.4570 H   0  0  0  0  0  0  0  0  0  0  0  0
   -2.5953   -2.3810    5.0589 H   0  0  0  0  0  0  0  0  0  0  0  0
   -3.7542   -1.0513    5.2604 H   0  0  0  0  0  0  0  0  0  0  0  0
  1  2  2  0  0  0  0
  1  3  1  0  0  0  0
  1  7  1  0  0  0  0
  3  4  1  0  0  0  0
  3  5  1  0  0  0  0
  3  6  1  0  0  0  0
  7  8  1  0  0  0  0
  7 12  1  0  0  0  0
  8  9  1  0  0  0  0
  8 11  1  0  0  0  0
  8 13  1  0  0  0  0
  9 10  2  0  0  0  0
  9 17  1  0  0  0  0
 11 14  1  0  0  0  0
 11 15  1  0  0  0  0
 11 16  1  0  0  0  0
 17 18  1  0  0  0  0
 17 25  1  0  0  0  0
 18 19  1  0  0  0  0
 18 21  1  0  0  0  0
 18 26  1  0  0  0  0
 19 20  2  0  0  0  0
 19 36  1  0  0  0  0
 21 22  1  0  0  0  0
 21 27  1  0  0  0  0
 21 28  1  0  0  0  0
 22 23  1  0  0  0  0
 22 24  1  0  0  0  0
 22 29  1  0  0  0  0
 23 30  1  0  0  0  0
 23 31  1  0  0  0  0
 23 32  1  0  0  0  0
 24 33  1  0  0  0  0
 24 34  1  0  0  0  0
 24 35  1  0  0  0  0
 36 37  1  0  0  0  0
 36 41  1  0  0  0  0
 37 38  1  0  0  0  0
 37 40  1  0  0  0  0
 37 42  1  0  0  0  0
 38 39  2  0  0  0  0
 38 46  1  0  0  0  0
 40 43  1  0  0  0  0
 40 44  1  0  0  0  0
 40 45  1  0  0  0  0
 46 47  1  0  0  0  0
 46 48  1  0  0  0  0
 47 49  1  0  0  0  0
 47 50  1  0  0  0  0
 47 51  1  0  0  0  0
M  END
$$$$

  -OEChem-05262216553D

 51 50  0     1  0  0  0  0  0999 V2000
    0.3365   -2.1537   -2.8768 C   0  0  0  0  0  0  0  0  0  0  0  0
   -0.3222   -1.1287   -2.7760 O   0  0  0  0  0  0  0  0  0  0  0  0
   -0.3648   -3.4647   -3.1774 C   0  0  0  0  0  0  0  0  0  0  0  0
   -0.2405   -4.1552   -2.3393 H   0  0  0  0  0  0  0  0  0  0  0  0
   -1.4334   -3.2941   -3.3359 H   0  0  0  0  0  0  0  0  0  0  0  0
    0.0558   -3.9167   -4.0789 H   0  0  0  0  0  0  0  0  0  0  0  0
    1.7025   -2.1502   -2.6549 N   0  0  0  0  0  0  0  0  0  0  0  0
    2.5516   -0.9908   -2.2996 C   0  0  2  0  0  0  0  0  0  0  0  0
    2.2745   -0.3956   -0.8993 C   0  0  0  0  0  0  0  0  0  0  0  0
    3.1916   -0.2779   -0.0990 O   0  0  0  0  0  0  0  0  0  0  0  0
    2.4822    0.0946   -3.3822 C   0  0  0  0  0  0  0  0  0  0  0  0
    2.1538   -3.0607   -2.6852 H   0  0  0  0  0  0  0  0  0  0  0  0
    3.5862   -1.3491   -2.2746 H   0  0  0  0  0  0  0  0  0  0  0  0
    1.5021    0.5802   -3.3971 H   0  0  0  0  0  0  0  0  0  0  0  0
    3.2398    0.8613   -3.1919 H   0  0  0  0  0  0  0  0  0  0  0  0
    2.6707   -0.3399   -4.3685 H   0  0  0  0  0  0  0  0  0  0  0  0
    0.9801   -0.1614   -0.4886 N   0  0  0  0  0  0  0  0  0  0  0  0
    0.5363    0.4753    0.7594 C   0  0  2  0  0  0  0  0  0  0  0  0
   -0.8295   -0.1698    1.1005 C   0  0  0  0  0  0  0  0  0  0  0  0
   -0.8495   -1.2012    1.7590 O   0  0  0  0  0  0  0  0  0  0  0  0
    0.3280    2.0224    0.7297 C   0  0  0  0  0  0  0  0  0  0  0  0
    1.5080    3.0077    0.5267 C   0  0  0  0  0  0  0  0  0  0  0  0
    0.9061    4.4188    0.4102 C   0  0  0  0  0  0  0  0  0  0  0  0
    2.3347    2.7993   -0.7501 C   0  0  0  0  0  0  0  0  0  0  0  0
    0.2727   -0.3575   -1.2020 H   0  0  0  0  0  0  0  0  0  0  0  0
    1.2400    0.2332    1.5640 H   0  0  0  0  0  0  0  0  0  0  0  0
   -0.1535    2.2988    1.6745 H   0  0  0  0  0  0  0  0  0  0  0  0
   -0.3818    2.2338   -0.0761 H   0  0  0  0  0  0  0  0  0  0  0  0
    2.1736    2.9625    1.3955 H   0  0  0  0  0  0  0  0  0  0  0  0
    0.2849    4.5069   -0.4873 H   0  0  0  0  0  0  0  0  0  0  0  0
    1.6990    5.1720    0.3593 H   0  0  0  0  0  0  0  0  0  0  0  0
    0.2870    4.6440    1.2843 H   0  0  0  0  0  0  0  0  0  0  0  0
    1.7100    2.4137   -1.5609 H   0  0  0  0  0  0  0  0  0  0  0  0
    3.1602    2.1148   -0.5613 H   0  0  0  0  0  0  0  0  0  0  0  0
    2.7855    3.7384   -1.0864 H   0  0  0  0  0  0  0  0  0  0  0  0
   -2.0249    0.3623    0.6363 N   0  0  0  0  0  0  0  0  0  0  0  0
   -3.3589   -0.2733    0.6714 C   0  0  2  0  0  0  0  0  0  0  0  0
   -3.9949   -0.4102    2.0744 C   0  0  0  0  0  0  0  0  0  0  0  0
   -5.1602   -0.0724    2.2381 O   0  0  0  0  0  0  0  0  0  0  0  0
   -3.3390   -1.6244   -0.0580 C   0  0  0  0  0  0  0  0  0  0  0  0
   -1.9302    1.1890    0.0543 H   0  0  0  0  0  0  0  0  0  0  0  0
   -4.0314    0.3802    0.1063 H   0  0  0  0  0  0  0  0  0  0  0  0
   -2.7711   -2.3714    0.5043 H   0  0  0  0  0  0  0  0  0  0  0  0
   -4.3606   -1.9970   -0.1825 H   0  0  0  0  0  0  0  0  0  0  0  0
   -2.8868   -1.5156   -1.0489 H   0  0  0  0  0  0  0  0  0  0  0  0
   -3.2852   -0.9159    3.1445 N   0  0  0  0  0  0  0  0  0  0  0  0
   -3.8347   -1.0962    4.4803 C   0  0  0  0  0  0  0  0  0  0  0  0
   -2.3260   -1.2157    2.9478 H   0  0  0  0  0  0  0  0  0  0  0  0
   -4.6758   -1.7968    4.4566 H   0  0  0  0  0  0  0  0  0  0  0  0
   -3.0683   -1.4963    5.1512 H   0  0  0  0  0  0  0  0  0  0  0  0
   -4.1824   -0.1394    4.8837 H   0  0  0  0  0  0  0  0  0  0  0  0
  1  2  2  0  0  0  0
  1  3  1  0  0  0  0
  1  7  1  0  0  0  0
  3  4  1  0  0  0  0
  3  5  1  0  0  0  0
  3  6  1  0  0  0  0
  7  8  1  0  0  0  0
  7 12  1  0  0  0  0
  8  9  1  0  0  0  0
  8 11  1  0  0  0  0
  8 13  1  0  0  0  0
  9 10  2  0  0  0  0
  9 17  1  0  0  0  0
 11 14  1  0  0  0  0
 11 15  1  0  0  0  0
 11 16  1  0  0  0  0
 17 18  1  0  0  0  0
 17 25  1  0  0  0  0
 18 19  1  0  0  0  0
 18 21  1  0  0  0  0
 18 26  1  0  0  0  0
 19 20  2  0  0  0  0
 19 36  1  0  0  0  0
 21 22  1  0  0  0  0
 21 27  1  0  0  0  0
 21 28  1  0  0  0  0
 22 23  1  0  0  0  0
 22 24  1  0  0  0  0
 22 29  1  0  0  0  0
 23 30  1  0  0  0  0
 23 31  1  0  0  0  0
 23 32  1  0  0  0  0
 24 33  1  0  0  0  0
 24 34  1  0  0  0  0
 24 35  1  0  0  0  0
 36 37  1  0  0  0  0
 36 41  1  0  0  0  0
 37 38  1  0  0  0  0
 37 40  1  0  0  0  0
 37 42  1  0  0  0  0
 38 39  2  0  0  0  0
 38 46  1  0  0  0  0
 40 43  1  0  0  0  0
 40 44  1  0  0  0  0
 40 45  1  0  0  0  0
 46 47  1  0  0  0  0
 46 48  1  0  0  0  0
 47 49  1  0  0  0  0
 47 50  1  0  0  0  0
 47 51  1  0  0  0  0
M  END
$$$$

  -OEChem-05262216553D

 51 50  0     1  0  0  0  0  0999 V2000
    0.4652   -2.1300   -2.9836 C   0  0  0  0  0  0  0  0  0  0  0  0
   -0.1912   -1.1059   -2.8592 O   0  0  0  0  0  0  0  0  0  0  0  0
   -0.2224   -3.4073   -3.4276 C   0  0  0  0  0  0  0  0  0  0  0  0
   -0.2017   -4.1430   -2.6194 H   0  0  0  0  0  0  0  0  0  0  0  0
   -1.2644   -3.2037   -3.6909 H   0  0  0  0  0  0  0  0  0  0  0  0
    0.2849   -3.8222   -4.3021 H   0  0  0  0  0  0  0  0  0  0  0  0
    1.8118   -2.1585   -2.6658 N   0  0  0  0  0  0  0  0  0  0  0  0
    2.6551   -1.0268   -2.2188 C   0  0  2  0  0  0  0  0  0  0  0  0
    2.3012   -0.4614   -0.8232 C   0  0  0  0  0  0  0  0  0  0  0  0
    3.1768   -0.3431    0.0220 O   0  0  0  0  0  0  0  0  0  0  0  0
    2.6776    0.0867   -3.2747 C   0  0  0  0  0  0  0  0  0  0  0  0
    2.2612   -3.0674   -2.7406 H   0  0  0  0  0  0  0  0  0  0  0  0
    3.6789   -1.4062   -2.1351 H   0  0  0  0  0  0  0  0  0  0  0  0
    1.7066    0.5851   -3.3487 H   0  0  0  0  0  0  0  0  0  0  0  0
    3.4285    0.8382   -3.0107 H   0  0  0  0  0  0  0  0  0  0  0  0
    2.9329   -0.3249   -4.2557 H   0  0  0  0  0  0  0  0  0  0  0  0
    0.9870   -0.2319   -0.4766 N   0  0  0  0  0  0  0  0  0  0  0  0
    0.4848    0.4055    0.7498 C   0  0  2  0  0  0  0  0  0  0  0  0
   -0.8925   -0.2337    1.0380 C   0  0  0  0  0  0  0  0  0  0  0  0
   -0.9984   -1.0553    1.9386 O   0  0  0  0  0  0  0  0  0  0  0  0
    0.2529    1.9480    0.7089 C   0  0  0  0  0  0  0  0  0  0  0  0
    1.4281    2.9463    0.5493 C   0  0  0  0  0  0  0  0  0  0  0  0
    0.8170    4.3507    0.4056 C   0  0  0  0  0  0  0  0  0  0  0  0
    2.3044    2.7409   -0.6940 C   0  0  0  0  0  0  0  0  0  0  0  0
    0.3204   -0.4078   -1.2326 H   0  0  0  0  0  0  0  0  0  0  0  0
    1.1560    0.1729    1.5845 H   0  0  0  0  0  0  0  0  0  0  0  0
   -0.2662    2.2175    1.6359 H   0  0  0  0  0  0  0  0  0  0  0  0
   -0.4344    2.1500   -0.1185 H   0  0  0  0  0  0  0  0  0  0  0  0
    2.0604    2.9100    1.4431 H   0  0  0  0  0  0  0  0  0  0  0  0
    0.2317    4.4308   -0.5166 H   0  0  0  0  0  0  0  0  0  0  0  0
    1.6034    5.1120    0.3850 H   0  0  0  0  0  0  0  0  0  0  0  0
    0.1607    4.5702    1.2537 H   0  0  0  0  0  0  0  0  0  0  0  0
    1.7106    2.3594   -1.5293 H   0  0  0  0  0  0  0  0  0  0  0  0
    3.1204    2.0539   -0.4758 H   0  0  0  0  0  0  0  0  0  0  0  0
    2.7689    3.6807   -1.0090 H   0  0  0  0  0  0  0  0  0  0  0  0
   -2.0053    0.1104    0.2831 N   0  0  0  0  0  0  0  0  0  0  0  0
   -3.3433   -0.5144    0.3233 C   0  0  2  0  0  0  0  0  0  0  0  0
   -4.1465   -0.2733    1.6230 C   0  0  0  0  0  0  0  0  0  0  0  0
   -5.2884    0.1622    1.5503 O   0  0  0  0  0  0  0  0  0  0  0  0
   -3.2545   -2.0122   -0.0010 C   0  0  0  0  0  0  0  0  0  0  0  0
   -1.8263    0.7609   -0.4768 H   0  0  0  0  0  0  0  0  0  0  0  0
   -3.9298   -0.0518   -0.4771 H   0  0  0  0  0  0  0  0  0  0  0  0
   -2.7686   -2.5656    0.8080 H   0  0  0  0  0  0  0  0  0  0  0  0
   -4.2587   -2.4249   -0.1408 H   0  0  0  0  0  0  0  0  0  0  0  0
   -2.6841   -2.1683   -0.9219 H   0  0  0  0  0  0  0  0  0  0  0  0
   -3.6084   -0.5465    2.8641 N   0  0  0  0  0  0  0  0  0  0  0  0
   -4.2994   -0.3227    4.1257 C   0  0  0  0  0  0  0  0  0  0  0  0
   -2.6402   -0.8802    2.8714 H   0  0  0  0  0  0  0  0  0  0  0  0
   -3.6846   -0.6767    4.9588 H   0  0  0  0  0  0  0  0  0  0  0  0
   -4.4978    0.7444    4.2693 H   0  0  0  0  0  0  0  0  0  0  0  0
   -5.2505   -0.8651    4.1435 H   0  0  0  0  0  0  0  0  0  0  0  0
  1  2  2  0  0  0  0
  1  3  1  0  0  0  0
  1  7  1  0  0  0  0
  3  4  1  0  0  0  0
  3  5  1  0  0  0  0
  3  6  1  0  0  0  0
  7  8  1  0  0  0  0
  7 12  1  0  0  0  0
  8  9  1  0  0  0  0
  8 11  1  0  0  0  0
  8 13  1  0  0  0  0
  9 10  2  0  0  0  0
  9 17  1  0  0  0  0
 11 14  1  0  0  0  0
 11 15  1  0  0  0  0
 11 16  1  0  0  0  0
 17 18  1  0  0  0  0
 17 25  1  0  0  0  0
 18 19  1  0  0  0  0
 18 21  1  0  0  0  0
 18 26  1  0  0  0  0
 19 20  2  0  0  0  0
 19 36  1  0  0  0  0
 21 22  1  0  0  0  0
 21 27  1  0  0  0  0
 21 28  1  0  0  0  0
 22 23  1  0  0  0  0
 22 24  1  0  0  0  0
 22 29  1  0  0  0  0
 23 30  1  0  0  0  0
 23 31  1  0  0  0  0
 23 32  1  0  0  0  0
 24 33  1  0  0  0  0
 24 34  1  0  0  0  0
 24 35  1  0  0  0  0
 36 37  1  0  0  0  0
 36 41  1  0  0  0  0
 37 38  1  0  0  0  0
 37 40  1  0  0  0  0
 37 42  1  0  0  0  0
 38 39  2  0  0  0  0
 38 46  1  0  0  0  0
 40 43  1  0  0  0  0
 40 44  1  0  0  0  0
 40 45  1  0  0  0  0
 46 47  1  0  0  0  0
 46 48  1  0  0  0  0
 47 49  1  0  0  0  0
 47 50  1  0  0  0  0
 47 51  1  0  0  0  0
M  END
$$$$

  -OEChem-05262216553D

 51 50  0     1  0  0  0  0  0999 V2000
    0.4664   -2.0838   -3.0517 C   0  0  0  0  0  0  0  0  0  0  0  0
   -0.2155   -1.0868   -2.8569 O   0  0  0  0  0  0  0  0  0  0  0  0
   -0.1980   -3.3516   -3.5536 C   0  0  0  0  0  0  0  0  0  0  0  0
   -0.1227   -4.1377   -2.7982 H   0  0  0  0  0  0  0  0  0  0  0  0
   -1.2553   -3.1667   -3.7642 H   0  0  0  0  0  0  0  0  0  0  0  0
    0.2874   -3.6906   -4.4720 H   0  0  0  0  0  0  0  0  0  0  0  0
    1.8208   -2.0955   -2.7633 N   0  0  0  0  0  0  0  0  0  0  0  0
    2.6575   -0.9632   -2.3019 C   0  0  2  0  0  0  0  0  0  0  0  0
    2.3274   -0.4372   -0.8845 C   0  0  0  0  0  0  0  0  0  0  0  0
    3.2185   -0.3034   -0.0585 O   0  0  0  0  0  0  0  0  0  0  0  0
    2.6345    0.1759   -3.3295 C   0  0  0  0  0  0  0  0  0  0  0  0
    2.2915   -2.9850   -2.9098 H   0  0  0  0  0  0  0  0  0  0  0  0
    3.6894   -1.3266   -2.2508 H   0  0  0  0  0  0  0  0  0  0  0  0
    1.6488    0.6475   -3.3770 H   0  0  0  0  0  0  0  0  0  0  0  0
    3.3677    0.9414   -3.0568 H   0  0  0  0  0  0  0  0  0  0  0  0
    2.8865   -0.2037   -4.3243 H   0  0  0  0  0  0  0  0  0  0  0  0
    1.0157   -0.2493   -0.5086 N   0  0  0  0  0  0  0  0  0  0  0  0
    0.5084    0.3632    0.7285 C   0  0  2  0  0  0  0  0  0  0  0  0
   -0.8413   -0.3205    1.0328 C   0  0  0  0  0  0  0  0  0  0  0  0
   -1.0138   -0.8747    2.1099 O   0  0  0  0  0  0  0  0  0  0  0  0
    0.1993    1.8899    0.6971 C   0  0  0  0  0  0  0  0  0  0  0  0
    1.3228    2.9419    0.5151 C   0  0  0  0  0  0  0  0  0  0  0  0
    0.6459    4.3171    0.3874 C   0  0  0  0  0  0  0  0  0  0  0  0
    2.1839    2.7750   -0.7434 C   0  0  0  0  0  0  0  0  0  0  0  0
    0.3471   -0.4259   -1.2608 H   0  0  0  0  0  0  0  0  0  0  0  0
    1.2017    0.1561    1.5518 H   0  0  0  0  0  0  0  0  0  0  0  0
   -0.3086    2.1326    1.6375 H   0  0  0  0  0  0  0  0  0  0  0  0
   -0.5214    2.0567   -0.1103 H   0  0  0  0  0  0  0  0  0  0  0  0
    1.9737    2.9338    1.3962 H   0  0  0  0  0  0  0  0  0  0  0  0
    0.0398    4.3721   -0.5229 H   0  0  0  0  0  0  0  0  0  0  0  0
    1.3963    5.1134    0.3538 H   0  0  0  0  0  0  0  0  0  0  0  0
   -0.0034    4.5048    1.2484 H   0  0  0  0  0  0  0  0  0  0  0  0
    1.5847    2.3942   -1.5753 H   0  0  0  0  0  0  0  0  0  0  0  0
    3.0168    2.1013   -0.5487 H   0  0  0  0  0  0  0  0  0  0  0  0
    2.6233    3.7299   -1.0486 H   0  0  0  0  0  0  0  0  0  0  0  0
   -1.8800   -0.2457    0.1145 N   0  0  0  0  0  0  0  0  0  0  0  0
   -3.1825   -0.9400    0.1793 C   0  0  2  0  0  0  0  0  0  0  0  0
   -4.1495   -0.4395    1.2776 C   0  0  0  0  0  0  0  0  0  0  0  0
   -5.3252   -0.2450    0.9965 O   0  0  0  0  0  0  0  0  0  0  0  0
   -2.9869   -2.4594    0.2736 C   0  0  0  0  0  0  0  0  0  0  0  0
   -1.6473    0.2070   -0.7663 H   0  0  0  0  0  0  0  0  0  0  0  0
   -3.6884   -0.7437   -0.7718 H   0  0  0  0  0  0  0  0  0  0  0  0
   -2.5754   -2.7462    1.2458 H   0  0  0  0  0  0  0  0  0  0  0  0
   -3.9473   -2.9690    0.1469 H   0  0  0  0  0  0  0  0  0  0  0  0
   -2.3057   -2.8044   -0.5101 H   0  0  0  0  0  0  0  0  0  0  0  0
   -3.7248   -0.2294    2.5739 N   0  0  0  0  0  0  0  0  0  0  0  0
   -4.5996    0.1739    3.6655 C   0  0  0  0  0  0  0  0  0  0  0  0
   -2.7473   -0.4622    2.7701 H   0  0  0  0  0  0  0  0  0  0  0  0
   -5.3946   -0.5647    3.8113 H   0  0  0  0  0  0  0  0  0  0  0  0
   -4.0286    0.2559    4.5953 H   0  0  0  0  0  0  0  0  0  0  0  0
   -5.0552    1.1464    3.4516 H   0  0  0  0  0  0  0  0  0  0  0  0
  1  2  2  0  0  0  0
  1  3  1  0  0  0  0
  1  7  1  0  0  0  0
  3  4  1  0  0  0  0
  3  5  1  0  0  0  0
  3  6  1  0  0  0  0
  7  8  1  0  0  0  0
  7 12  1  0  0  0  0
  8  9  1  0  0  0  0
  8 11  1  0  0  0  0
  8 13  1  0  0  0  0
  9 10  2  0  0  0  0
  9 17  1  0  0  0  0
 11 14  1  0  0  0  0
 11 15  1  0  0  0  0
 11 16  1  0  0  0  0
 17 18  1  0  0  0  0
 17 25  1  0  0  0  0
 18 19  1  0  0  0  0
 18 21  1  0  0  0  0
 18 26  1  0  0  0  0
 19 20  2  0  0  0  0
 19 36  1  0  0  0  0
 21 22  1  0  0  0  0
 21 27  1  0  0  0  0
 21 28  1  0  0  0  0
 22 23  1  0  0  0  0
 22 24  1  0  0  0  0
 22 29  1  0  0  0  0
 23 30  1  0  0  0  0
 23 31  1  0  0  0  0
 23 32  1  0  0  0  0
 24 33  1  0  0  0  0
 24 34  1  0  0  0  0
 24 35  1  0  0  0  0
 36 37  1  0  0  0  0
 36 41  1  0  0  0  0
 37 38  1  0  0  0  0
 37 40  1  0  0  0  0
 37 42  1  0  0  0  0
 38 39  2  0  0  0  0
 38 46  1  0  0  0  0
 40 43  1  0  0  0  0
 40 44  1  0  0  0  0
 40 45  1  0  0  0  0
 46 47  1  0  0  0  0
 46 48  1  0  0  0  0
 47 49  1  0  0  0  0
 47 50  1  0  0  0  0
 47 51  1  0  0  0  0
M  END
$$$$

  -OEChem-05262216553D

 51 50  0     1  0  0  0  0  0999 V2000
    0.4925   -2.0780   -3.0788 C   0  0  0  0  0  0  0  0  0  0  0  0
   -0.2066   -1.0967   -2.8615 O   0  0  0  0  0  0  0  0  0  0  0  0
   -0.1535   -3.3463   -3.6025 C   0  0  0  0  0  0  0  0  0  0  0  0
   -0.1130   -4.1290   -2.8406 H   0  0  0  0  0  0  0  0  0  0  0  0
   -1.2001   -3.1593   -3.8599 H   0  0  0  0  0  0  0  0  0  0  0  0
    0.3700   -3.6912   -4.4976 H   0  0  0  0  0  0  0  0  0  0  0  0
    1.8478   -2.0775   -2.7926 N   0  0  0  0  0  0  0  0  0  0  0  0
    2.6743   -0.9455   -2.3114 C   0  0  2  0  0  0  0  0  0  0  0  0
    2.3372   -0.4492   -0.8852 C   0  0  0  0  0  0  0  0  0  0  0  0
    3.2172   -0.3512   -0.0429 O   0  0  0  0  0  0  0  0  0  0  0  0
    2.6393    0.2100   -3.3204 C   0  0  0  0  0  0  0  0  0  0  0  0
    2.3281   -2.9586   -2.9570 H   0  0  0  0  0  0  0  0  0  0  0  0
    3.7098   -1.2992   -2.2657 H   0  0  0  0  0  0  0  0  0  0  0  0
    1.6473    0.6687   -3.3653 H   0  0  0  0  0  0  0  0  0  0  0  0
    3.3608    0.9815   -3.0328 H   0  0  0  0  0  0  0  0  0  0  0  0
    2.9013   -0.1499   -4.3199 H   0  0  0  0  0  0  0  0  0  0  0  0
    1.0219   -0.2647   -0.5250 N   0  0  0  0  0  0  0  0  0  0  0  0
    0.4906    0.3125    0.7191 C   0  0  2  0  0  0  0  0  0  0  0  0
   -0.8700   -0.3662    0.9891 C   0  0  0  0  0  0  0  0  0  0  0  0
   -1.1635   -0.6980    2.1299 O   0  0  0  0  0  0  0  0  0  0  0  0
    0.1690    1.8358    0.7050 C   0  0  0  0  0  0  0  0  0  0  0  0
    1.2876    2.8985    0.5558 C   0  0  0  0  0  0  0  0  0  0  0  0
    0.6039    4.2709    0.4368 C   0  0  0  0  0  0  0  0  0  0  0  0
    2.1732    2.7553   -0.6881 C   0  0  0  0  0  0  0  0  0  0  0  0
    0.3733   -0.3967   -1.3014 H   0  0  0  0  0  0  0  0  0  0  0  0
    1.1690    0.0919    1.5509 H   0  0  0  0  0  0  0  0  0  0  0  0
   -0.3531    2.0627    1.6418 H   0  0  0  0  0  0  0  0  0  0  0  0
   -0.5451    2.0040   -0.1087 H   0  0  0  0  0  0  0  0  0  0  0  0
    1.9227    2.8823    1.4482 H   0  0  0  0  0  0  0  0  0  0  0  0
    0.0148    4.3356   -0.4839 H   0  0  0  0  0  0  0  0  0  0  0  0
    1.3494    5.0726    0.4296 H   0  0  0  0  0  0  0  0  0  0  0  0
   -0.0631    4.4409    1.2880 H   0  0  0  0  0  0  0  0  0  0  0  0
    1.5890    2.3972   -1.5404 H   0  0  0  0  0  0  0  0  0  0  0  0
    2.9980    2.0724   -0.4914 H   0  0  0  0  0  0  0  0  0  0  0  0
    2.6234    3.7147   -0.9618 H   0  0  0  0  0  0  0  0  0  0  0  0
   -1.7866   -0.5334   -0.0423 N   0  0  0  0  0  0  0  0  0  0  0  0
   -3.0703   -1.2623    0.0119 C   0  0  2  0  0  0  0  0  0  0  0  0
   -4.1784   -0.6025    0.8651 C   0  0  0  0  0  0  0  0  0  0  0  0
   -5.3156   -0.5319    0.4171 O   0  0  0  0  0  0  0  0  0  0  0  0
   -2.8521   -2.7206    0.4370 C   0  0  0  0  0  0  0  0  0  0  0  0
   -1.4657   -0.2492   -0.9660 H   0  0  0  0  0  0  0  0  0  0  0  0
   -3.4588   -1.2839   -1.0117 H   0  0  0  0  0  0  0  0  0  0  0  0
   -2.5516   -2.7862    1.4869 H   0  0  0  0  0  0  0  0  0  0  0  0
   -3.7789   -3.2893    0.3119 H   0  0  0  0  0  0  0  0  0  0  0  0
   -2.0755   -3.1842   -0.1785 H   0  0  0  0  0  0  0  0  0  0  0  0
   -3.9245   -0.1206    2.1333 N   0  0  0  0  0  0  0  0  0  0  0  0
   -4.9417    0.4322    3.0161 C   0  0  0  0  0  0  0  0  0  0  0  0
   -2.9747   -0.2658    2.4870 H   0  0  0  0  0  0  0  0  0  0  0  0
   -5.7008   -0.3228    3.2458 H   0  0  0  0  0  0  0  0  0  0  0  0
   -4.4864    0.7634    3.9545 H   0  0  0  0  0  0  0  0  0  0  0  0
   -5.4298    1.2924    2.5464 H   0  0  0  0  0  0  0  0  0  0  0  0
  1  2  2  0  0  0  0
  1  3  1  0  0  0  0
  1  7  1  0  0  0  0
  3  4  1  0  0  0  0
  3  5  1  0  0  0  0
  3  6  1  0  0  0  0
  7  8  1  0  0  0  0
  7 12  1  0  0  0  0
  8  9  1  0  0  0  0
  8 11  1  0  0  0  0
  8 13  1  0  0  0  0
  9 10  2  0  0  0  0
  9 17  1  0  0  0  0
 11 14  1  0  0  0  0
 11 15  1  0  0  0  0
 11 16  1  0  0  0  0
 17 18  1  0  0  0  0
 17 25  1  0  0  0  0
 18 19  1  0  0  0  0
 18 21  1  0  0  0  0
 18 26  1  0  0  0  0
 19 20  2  0  0  0  0
 19 36  1  0  0  0  0
 21 22  1  0  0  0  0
 21 27  1  0  0  0  0
 21 28  1  0  0  0  0
 22 23  1  0  0  0  0
 22 24  1  0  0  0  0
 22 29  1  0  0  0  0
 23 30  1  0  0  0  0
 23 31  1  0  0  0  0
 23 32  1  0  0  0  0
 24 33  1  0  0  0  0
 24 34  1  0  0  0  0
 24 35  1  0  0  0  0
 36 37  1  0  0  0  0
 36 41  1  0  0  0  0
 37 38  1  0  0  0  0
 37 40  1  0  0  0  0
 37 42  1  0  0  0  0
 38 39  2  0  0  0  0
 38 46  1  0  0  0  0
 40 43  1  0  0  0  0
 40 44  1  0  0  0  0
 40 45  1  0  0  0  0
 46 47  1  0  0  0  0
 46 48  1  0  0  0  0
 47 49  1  0  0  0  0
 47 50  1  0  0  0  0
 47 51  1  0  0  0  0
M  END
$$$$

  -OEChem-05262216553D

 51 50  0     1  0  0  0  0  0999 V2000
    0.6747   -2.2173   -3.0766 C   0  0  0  0  0  0  0  0  0  0  0  0
   -0.1163   -1.3157   -2.8282 O   0  0  0  0  0  0  0  0  0  0  0  0
    0.1545   -3.5269   -3.6386 C   0  0  0  0  0  0  0  0  0  0  0  0
    0.3484   -4.3398   -2.9343 H   0  0  0  0  0  0  0  0  0  0  0  0
   -0.9234   -3.4629   -3.8127 H   0  0  0  0  0  0  0  0  0  0  0  0
    0.6492   -3.7506   -4.5870 H   0  0  0  0  0  0  0  0  0  0  0  0
    2.0263   -2.0911   -2.7998 N   0  0  0  0  0  0  0  0  0  0  0  0
    2.7415   -0.9012   -2.2819 C   0  0  2  0  0  0  0  0  0  0  0  0
    2.3510   -0.4815   -0.8448 C   0  0  0  0  0  0  0  0  0  0  0  0
    3.1965   -0.4308    0.0361 O   0  0  0  0  0  0  0  0  0  0  0  0
    2.6003    0.2727   -3.2598 C   0  0  0  0  0  0  0  0  0  0  0  0
    2.5889   -2.9162   -2.9922 H   0  0  0  0  0  0  0  0  0  0  0  0
    3.8055   -1.1577   -2.2401 H   0  0  0  0  0  0  0  0  0  0  0  0
    1.5710    0.6415   -3.2926 H   0  0  0  0  0  0  0  0  0  0  0  0
    3.2512    1.0970   -2.9521 H   0  0  0  0  0  0  0  0  0  0  0  0
    2.8908   -0.0360   -4.2686 H   0  0  0  0  0  0  0  0  0  0  0  0
    1.0207   -0.3332   -0.5259 N   0  0  0  0  0  0  0  0  0  0  0  0
    0.4339    0.1637    0.7281 C   0  0  2  0  0  0  0  0  0  0  0  0
   -0.9342   -0.5323    0.9309 C   0  0  0  0  0  0  0  0  0  0  0  0
   -1.3888   -0.6361    2.0632 O   0  0  0  0  0  0  0  0  0  0  0  0
    0.0929    1.6835    0.7656 C   0  0  0  0  0  0  0  0  0  0  0  0
    1.1984    2.7690    0.7068 C   0  0  0  0  0  0  0  0  0  0  0  0
    0.4927    4.1325    0.6189 C   0  0  0  0  0  0  0  0  0  0  0  0
    2.1376    2.6985   -0.5035 C   0  0  0  0  0  0  0  0  0  0  0  0
    0.4094   -0.4054   -1.3390 H   0  0  0  0  0  0  0  0  0  0  0  0
    1.0867   -0.0878    1.5716 H   0  0  0  0  0  0  0  0  0  0  0  0
   -0.4663    1.8671    1.6905 H   0  0  0  0  0  0  0  0  0  0  0  0
   -0.5944    1.8736   -0.0664 H   0  0  0  0  0  0  0  0  0  0  0  0
    1.7967    2.7249    1.6234 H   0  0  0  0  0  0  0  0  0  0  0  0
   -0.0631    4.2252   -0.3201 H   0  0  0  0  0  0  0  0  0  0  0  0
    1.2214    4.9476    0.6734 H   0  0  0  0  0  0  0  0  0  0  0  0
   -0.2087    4.2539    1.4503 H   0  0  0  0  0  0  0  0  0  0  0  0
    1.5954    2.3748   -1.3962 H   0  0  0  0  0  0  0  0  0  0  0  0
    2.9647    2.0187   -0.3050 H   0  0  0  0  0  0  0  0  0  0  0  0
    2.5833    3.6765   -0.7108 H   0  0  0  0  0  0  0  0  0  0  0  0
   -1.7016   -0.9352   -0.1572 N   0  0  0  0  0  0  0  0  0  0  0  0
   -3.0293   -1.5827   -0.1289 C   0  0  2  0  0  0  0  0  0  0  0  0
   -4.1863   -0.6847    0.3671 C   0  0  0  0  0  0  0  0  0  0  0  0
   -5.2336   -0.6488   -0.2662 O   0  0  0  0  0  0  0  0  0  0  0  0
   -2.9882   -2.9019    0.6537 C   0  0  0  0  0  0  0  0  0  0  0  0
   -1.2648   -0.8374   -1.0734 H   0  0  0  0  0  0  0  0  0  0  0  0
   -3.2735   -1.8365   -1.1656 H   0  0  0  0  0  0  0  0  0  0  0  0
   -2.8478   -2.7249    1.7240 H   0  0  0  0  0  0  0  0  0  0  0  0
   -3.9292   -3.4448    0.5199 H   0  0  0  0  0  0  0  0  0  0  0  0
   -2.1699   -3.5323    0.2937 H   0  0  0  0  0  0  0  0  0  0  0  0
   -4.0704    0.0677    1.5184 N   0  0  0  0  0  0  0  0  0  0  0  0
   -5.1323    0.9010    2.0630 C   0  0  0  0  0  0  0  0  0  0  0  0
   -3.1965   -0.0419    2.0403 H   0  0  0  0  0  0  0  0  0  0  0  0
   -6.0076    0.2919    2.3111 H   0  0  0  0  0  0  0  0  0  0  0  0
   -4.7883    1.4016    2.9732 H   0  0  0  0  0  0  0  0  0  0  0  0
   -5.4278    1.6664    1.3380 H   0  0  0  0  0  0  0  0  0  0  0  0
  1  2  2  0  0  0  0
  1  3  1  0  0  0  0
  1  7  1  0  0  0  0
  3  4  1  0  0  0  0
  3  5  1  0  0  0  0
  3  6  1  0  0  0  0
  7  8  1  0  0  0  0
  7 12  1  0  0  0  0
  8  9  1  0  0  0  0
  8 11  1  0  0  0  0
  8 13  1  0  0  0  0
  9 10  2  0  0  0  0
  9 17  1  0  0  0  0
 11 14  1  0  0  0  0
 11 15  1  0  0  0  0
 11 16  1  0  0  0  0
 17 18  1  0  0  0  0
 17 25  1  0  0  0  0
 18 19  1  0  0  0  0
 18 21  1  0  0  0  0
 18 26  1  0  0  0  0
 19 20  2  0  0  0  0
 19 36  1  0  0  0  0
 21 22  1  0  0  0  0
 21 27  1  0  0  0  0
 21 28  1  0  0  0  0
 22 23  1  0  0  0  0
 22 24  1  0  0  0  0
 22 29  1  0  0  0  0
 23 30  1  0  0  0  0
 23 31  1  0  0  0  0
 23 32  1  0  0  0  0
 24 33  1  0  0  0  0
 24 34  1  0  0  0  0
 24 35  1  0  0  0  0
 36 37  1  0  0  0  0
 36 41  1  0  0  0  0
 37 38  1  0  0  0  0
 37 40  1  0  0  0  0
 37 42  1  0  0  0  0
 38 39  2  0  0  0  0
 38 46  1  0  0  0  0
 40 43  1  0  0  0  0
 40 44  1  0  0  0  0
 40 45  1  0  0  0  0
 46 47  1  0  0  0  0
 46 48  1  0  0  0  0
 47 49  1  0  0  0  0
 47 50  1  0  0  0  0
 47 51  1  0  0  0  0
M  END
$$$$

  -OEChem-05262216553D

 51 50  0     1  0  0  0  0  0999 V2000
    0.7185   -2.3585   -3.0518 C   0  0  0  0  0  0  0  0  0  0  0  0
   -0.1375   -1.5271   -2.7772 O   0  0  0  0  0  0  0  0  0  0  0  0
    0.2929   -3.7192   -3.5695 C   0  0  0  0  0  0  0  0  0  0  0  0
    0.6029   -4.4999   -2.8703 H   0  0  0  0  0  0  0  0  0  0  0  0
   -0.7946   -3.7591   -3.6804 H   0  0  0  0  0  0  0  0  0  0  0  0
    0.7512   -3.9086   -4.5433 H   0  0  0  0  0  0  0  0  0  0  0  0
    2.0639   -2.1035   -2.8464 N   0  0  0  0  0  0  0  0  0  0  0  0
    2.6832   -0.8440   -2.3746 C   0  0  2  0  0  0  0  0  0  0  0  0
    2.3043   -0.4415   -0.9296 C   0  0  0  0  0  0  0  0  0  0  0  0
    3.1578   -0.4180   -0.0550 O   0  0  0  0  0  0  0  0  0  0  0  0
    2.3992    0.2928   -3.3657 C   0  0  0  0  0  0  0  0  0  0  0  0
    2.6918   -2.8775   -3.0486 H   0  0  0  0  0  0  0  0  0  0  0  0
    3.7675   -0.9986   -2.3679 H   0  0  0  0  0  0  0  0  0  0  0  0
    1.3393    0.5638   -3.3678 H   0  0  0  0  0  0  0  0  0  0  0  0
    2.9807    1.1799   -3.0961 H   0  0  0  0  0  0  0  0  0  0  0  0
    2.6824   -0.0071   -4.3793 H   0  0  0  0  0  0  0  0  0  0  0  0
    0.9770   -0.3043   -0.5887 N   0  0  0  0  0  0  0  0  0  0  0  0
    0.4157    0.1612    0.6908 C   0  0  2  0  0  0  0  0  0  0  0  0
   -0.9526   -0.5366    0.9146 C   0  0  0  0  0  0  0  0  0  0  0  0
   -1.4901   -0.4700    2.0136 O   0  0  0  0  0  0  0  0  0  0  0  0
    0.0868    1.6854    0.7584 C   0  0  0  0  0  0  0  0  0  0  0  0
    1.1958    2.7676    0.6979 C   0  0  0  0  0  0  0  0  0  0  0  0
    0.4948    4.1358    0.6445 C   0  0  0  0  0  0  0  0  0  0  0  0
    2.1125    2.7157   -0.5304 C   0  0  0  0  0  0  0  0  0  0  0  0
    0.3486   -0.3643   -1.3912 H   0  0  0  0  0  0  0  0  0  0  0  0
    1.0856   -0.1084    1.5146 H   0  0  0  0  0  0  0  0  0  0  0  0
   -0.4522    1.8633    1.6958 H   0  0  0  0  0  0  0  0  0  0  0  0
   -0.6148    1.8908   -0.0579 H   0  0  0  0  0  0  0  0  0  0  0  0
    1.8098    2.7057    1.6027 H   0  0  0  0  0  0  0  0  0  0  0  0
   -0.0733    4.2483   -0.2848 H   0  0  0  0  0  0  0  0  0  0  0  0
    1.2283    4.9460    0.7047 H   0  0  0  0  0  0  0  0  0  0  0  0
   -0.1945    4.2455    1.4877 H   0  0  0  0  0  0  0  0  0  0  0  0
    1.5538    2.4030   -1.4170 H   0  0  0  0  0  0  0  0  0  0  0  0
    2.9446    2.0354   -0.3559 H   0  0  0  0  0  0  0  0  0  0  0  0
    2.5528    3.6970   -0.7337 H   0  0  0  0  0  0  0  0  0  0  0  0
   -1.6103   -1.1875   -0.1240 N   0  0  0  0  0  0  0  0  0  0  0  0
   -2.9045   -1.8975   -0.0667 C   0  0  2  0  0  0  0  0  0  0  0  0
   -4.1389   -0.9967    0.1700 C   0  0  0  0  0  0  0  0  0  0  0  0
   -5.1266   -1.1304   -0.5413 O   0  0  0  0  0  0  0  0  0  0  0  0
   -2.8636   -3.0450    0.9515 C   0  0  0  0  0  0  0  0  0  0  0  0
   -1.1089   -1.2320   -1.0118 H   0  0  0  0  0  0  0  0  0  0  0  0
   -3.0521   -2.3517   -1.0519 H   0  0  0  0  0  0  0  0  0  0  0  0
   -2.8256   -2.6651    1.9767 H   0  0  0  0  0  0  0  0  0  0  0  0
   -3.7600   -3.6651    0.8518 H   0  0  0  0  0  0  0  0  0  0  0  0
   -1.9856   -3.6745    0.7800 H   0  0  0  0  0  0  0  0  0  0  0  0
   -4.1618   -0.0590    1.1828 N   0  0  0  0  0  0  0  0  0  0  0  0
   -5.3051    0.7885    1.4894 C   0  0  0  0  0  0  0  0  0  0  0  0
   -3.3298   -0.0208    1.7782 H   0  0  0  0  0  0  0  0  0  0  0  0
   -6.1759    0.1780    1.7496 H   0  0  0  0  0  0  0  0  0  0  0  0
   -5.0736    1.4404    2.3370 H   0  0  0  0  0  0  0  0  0  0  0  0
   -5.5571    1.4159    0.6284 H   0  0  0  0  0  0  0  0  0  0  0  0
  1  2  2  0  0  0  0
  1  3  1  0  0  0  0
  1  7  1  0  0  0  0
  3  4  1  0  0  0  0
  3  5  1  0  0  0  0
  3  6  1  0  0  0  0
  7  8  1  0  0  0  0
  7 12  1  0  0  0  0
  8  9  1  0  0  0  0
  8 11  1  0  0  0  0
  8 13  1  0  0  0  0
  9 10  2  0  0  0  0
  9 17  1  0  0  0  0
 11 14  1  0  0  0  0
 11 15  1  0  0  0  0
 11 16  1  0  0  0  0
 17 18  1  0  0  0  0
 17 25  1  0  0  0  0
 18 19  1  0  0  0  0
 18 21  1  0  0  0  0
 18 26  1  0  0  0  0
 19 20  2  0  0  0  0
 19 36  1  0  0  0  0
 21 22  1  0  0  0  0
 21 27  1  0  0  0  0
 21 28  1  0  0  0  0
 22 23  1  0  0  0  0
 22 24  1  0  0  0  0
 22 29  1  0  0  0  0
 23 30  1  0  0  0  0
 23 31  1  0  0  0  0
 23 32  1  0  0  0  0
 24 33  1  0  0  0  0
 24 34  1  0  0  0  0
 24 35  1  0  0  0  0
 36 37  1  0  0  0  0
 36 41  1  0  0  0  0
 37 38  1  0  0  0  0
 37 40  1  0  0  0  0
 37 42  1  0  0  0  0
 38 39  2  0  0  0  0
 38 46  1  0  0  0  0
 40 43  1  0  0  0  0
 40 44  1  0  0  0  0
 40 45  1  0  0  0  0
 46 47  1  0  0  0  0
 46 48  1  0  0  0  0
 47 49  1  0  0  0  0
 47 50  1  0  0  0  0
 47 51  1  0  0  0  0
M  END
$$$$

  -OEChem-05262216553D

 51 50  0     1  0  0  0  0  0999 V2000
    0.8043   -2.4860   -3.0363 C   0  0  0  0  0  0  0  0  0  0  0  0
   -0.1170   -1.7393   -2.7334 O   0  0  0  0  0  0  0  0  0  0  0  0
    0.4966   -3.8922   -3.5141 C   0  0  0  0  0  0  0  0  0  0  0  0
    0.8768   -4.6229   -2.7958 H   0  0  0  0  0  0  0  0  0  0  0  0
   -0.5838   -4.0294   -3.6171 H   0  0  0  0  0  0  0  0  0  0  0  0
    0.9651   -4.0685   -4.4855 H   0  0  0  0  0  0  0  0  0  0  0  0
    2.1228   -2.0896   -2.8976 N   0  0  0  0  0  0  0  0  0  0  0  0
    2.6164   -0.7728   -2.4394 C   0  0  2  0  0  0  0  0  0  0  0  0
    2.2395   -0.4311   -0.9791 C   0  0  0  0  0  0  0  0  0  0  0  0
    3.0888   -0.4857   -0.1015 O   0  0  0  0  0  0  0  0  0  0  0  0
    2.1770    0.3319   -3.4114 C   0  0  0  0  0  0  0  0  0  0  0  0
    2.8207   -2.7999   -3.1038 H   0  0  0  0  0  0  0  0  0  0  0  0
    3.7106   -0.8070   -2.4682 H   0  0  0  0  0  0  0  0  0  0  0  0
    1.0958    0.4934   -3.3713 H   0  0  0  0  0  0  0  0  0  0  0  0
    2.6743    1.2735   -3.1596 H   0  0  0  0  0  0  0  0  0  0  0  0
    2.4488    0.0650   -4.4371 H   0  0  0  0  0  0  0  0  0  0  0  0
    0.9137   -0.2860   -0.6310 N   0  0  0  0  0  0  0  0  0  0  0  0
    0.3695    0.1007    0.6826 C   0  0  2  0  0  0  0  0  0  0  0  0
   -1.0194   -0.5774    0.8619 C   0  0  0  0  0  0  0  0  0  0  0  0
   -1.6658   -0.3961    1.8871 O   0  0  0  0  0  0  0  0  0  0  0  0
    0.1002    1.6309    0.8528 C   0  0  0  0  0  0  0  0  0  0  0  0
    1.2467    2.6766    0.8639 C   0  0  0  0  0  0  0  0  0  0  0  0
    0.5896    4.0672    0.9042 C   0  0  0  0  0  0  0  0  0  0  0  0
    2.1601    2.6827   -0.3688 C   0  0  0  0  0  0  0  0  0  0  0  0
    0.2706   -0.3372   -1.4232 H   0  0  0  0  0  0  0  0  0  0  0  0
    1.0320   -0.2477    1.4820 H   0  0  0  0  0  0  0  0  0  0  0  0
   -0.4274    1.7693    1.8027 H   0  0  0  0  0  0  0  0  0  0  0  0
   -0.5953    1.9153    0.0553 H   0  0  0  0  0  0  0  0  0  0  0  0
    1.8591    2.5330    1.7607 H   0  0  0  0  0  0  0  0  0  0  0  0
    0.0154    4.2553   -0.0090 H   0  0  0  0  0  0  0  0  0  0  0  0
    1.3484    4.8496    1.0056 H   0  0  0  0  0  0  0  0  0  0  0  0
   -0.0869    4.1450    1.7612 H   0  0  0  0  0  0  0  0  0  0  0  0
    1.5941    2.4319   -1.2702 H   0  0  0  0  0  0  0  0  0  0  0  0
    2.9823    1.9807   -0.2378 H   0  0  0  0  0  0  0  0  0  0  0  0
    2.6160    3.6669   -0.5163 H   0  0  0  0  0  0  0  0  0  0  0  0
   -1.5541   -1.3936   -0.1287 N   0  0  0  0  0  0  0  0  0  0  0  0
   -2.8285   -2.1408   -0.0976 C   0  0  2  0  0  0  0  0  0  0  0  0
   -4.1058   -1.2691   -0.1029 C   0  0  0  0  0  0  0  0  0  0  0  0
   -5.0259   -1.5545   -0.8588 O   0  0  0  0  0  0  0  0  0  0  0  0
   -2.8558   -3.1417    1.0654 C   0  0  0  0  0  0  0  0  0  0  0  0
   -0.9742   -1.5222   -0.9596 H   0  0  0  0  0  0  0  0  0  0  0  0
   -2.8655   -2.7263   -1.0220 H   0  0  0  0  0  0  0  0  0  0  0  0
   -2.9340   -2.6289    2.0286 H   0  0  0  0  0  0  0  0  0  0  0  0
   -3.7178   -3.8086    0.9643 H   0  0  0  0  0  0  0  0  0  0  0  0
   -1.9457   -3.7489    1.0660 H   0  0  0  0  0  0  0  0  0  0  0  0
   -4.2446   -0.1890    0.7456 N   0  0  0  0  0  0  0  0  0  0  0  0
   -5.4412    0.6362    0.8303 C   0  0  0  0  0  0  0  0  0  0  0  0
   -3.4750   -0.0334    1.4026 H   0  0  0  0  0  0  0  0  0  0  0  0
   -5.2969    1.4348    1.5642 H   0  0  0  0  0  0  0  0  0  0  0  0
   -5.6598    1.0940   -0.1400 H   0  0  0  0  0  0  0  0  0  0  0  0
   -6.3015    0.0328    1.1378 H   0  0  0  0  0  0  0  0  0  0  0  0
  1  2  2  0  0  0  0
  1  3  1  0  0  0  0
  1  7  1  0  0  0  0
  3  4  1  0  0  0  0
  3  5  1  0  0  0  0
  3  6  1  0  0  0  0
  7  8  1  0  0  0  0
  7 12  1  0  0  0  0
  8  9  1  0  0  0  0
  8 11  1  0  0  0  0
  8 13  1  0  0  0  0
  9 10  2  0  0  0  0
  9 17  1  0  0  0  0
 11 14  1  0  0  0  0
 11 15  1  0  0  0  0
 11 16  1  0  0  0  0
 17 18  1  0  0  0  0
 17 25  1  0  0  0  0
 18 19  1  0  0  0  0
 18 21  1  0  0  0  0
 18 26  1  0  0  0  0
 19 20  2  0  0  0  0
 19 36  1  0  0  0  0
 21 22  1  0  0  0  0
 21 27  1  0  0  0  0
 21 28  1  0  0  0  0
 22 23  1  0  0  0  0
 22 24  1  0  0  0  0
 22 29  1  0  0  0  0
 23 30  1  0  0  0  0
 23 31  1  0  0  0  0
 23 32  1  0  0  0  0
 24 33  1  0  0  0  0
 24 34  1  0  0  0  0
 24 35  1  0  0  0  0
 36 37  1  0  0  0  0
 36 41  1  0  0  0  0
 37 38  1  0  0  0  0
 37 40  1  0  0  0  0
 37 42  1  0  0  0  0
 38 39  2  0  0  0  0
 38 46  1  0  0  0  0
 40 43  1  0  0  0  0
 40 44  1  0  0  0  0
 40 45  1  0  0  0  0
 46 47  1  0  0  0  0
 46 48  1  0  0  0  0
 47 49  1  0  0  0  0
 47 50  1  0  0  0  0
 47 51  1  0  0  0  0
M  END
$$$$

  -OEChem-05262216553D

 51 50  0     1  0  0  0  0  0999 V2000
    0.8877   -2.6066   -2.9735 C   0  0  0  0  0  0  0  0  0  0  0  0
   -0.0789   -1.9416   -2.6273 O   0  0  0  0  0  0  0  0  0  0  0  0
    0.6805   -4.0313   -3.4506 C   0  0  0  0  0  0  0  0  0  0  0  0
    1.0959   -4.1537   -4.4539 H   0  0  0  0  0  0  0  0  0  0  0  0
    1.1751   -4.7299   -2.7710 H   0  0  0  0  0  0  0  0  0  0  0  0
   -0.3870   -4.2683   -3.4827 H   0  0  0  0  0  0  0  0  0  0  0  0
    2.1702   -2.0947   -2.8925 N   0  0  0  0  0  0  0  0  0  0  0  0
    2.5569   -0.7351   -2.4605 C   0  0  2  0  0  0  0  0  0  0  0  0
    2.1784   -0.4068   -0.9974 C   0  0  0  0  0  0  0  0  0  0  0  0
    3.0300   -0.4784   -0.1229 O   0  0  0  0  0  0  0  0  0  0  0  0
    2.0079    0.3108   -3.4416 C   0  0  0  0  0  0  0  0  0  0  0  0
    2.9204   -2.7386   -3.1297 H   0  0  0  0  0  0  0  0  0  0  0  0
    3.6494   -0.6755   -2.5081 H   0  0  0  0  0  0  0  0  0  0  0  0
    0.9169    0.3723   -3.3921 H   0  0  0  0  0  0  0  0  0  0  0  0
    2.4189    1.2980   -3.2089 H   0  0  0  0  0  0  0  0  0  0  0  0
    2.2929    0.0538   -4.4663 H   0  0  0  0  0  0  0  0  0  0  0  0
    0.8542   -0.2637   -0.6375 N   0  0  0  0  0  0  0  0  0  0  0  0
    0.3281    0.0986    0.6913 C   0  0  2  0  0  0  0  0  0  0  0  0
   -1.0625   -0.5829    0.8602 C   0  0  0  0  0  0  0  0  0  0  0  0
   -1.8159   -0.2677    1.7744 O   0  0  0  0  0  0  0  0  0  0  0  0
    0.0833    1.6307    0.8941 C   0  0  0  0  0  0  0  0  0  0  0  0
    1.2419    2.6629    0.9143 C   0  0  0  0  0  0  0  0  0  0  0  0
    0.5999    4.0596    0.9885 C   0  0  0  0  0  0  0  0  0  0  0  0
    2.1434    2.6862   -0.3273 C   0  0  0  0  0  0  0  0  0  0  0  0
    0.1937   -0.3540   -1.4124 H   0  0  0  0  0  0  0  0  0  0  0  0
    0.9942   -0.2752    1.4763 H   0  0  0  0  0  0  0  0  0  0  0  0
   -0.4266    1.7589    1.8547 H   0  0  0  0  0  0  0  0  0  0  0  0
   -0.6196    1.9403    0.1130 H   0  0  0  0  0  0  0  0  0  0  0  0
    1.8613    2.4951    1.8019 H   0  0  0  0  0  0  0  0  0  0  0  0
    0.0287    4.2763    0.0797 H   0  0  0  0  0  0  0  0  0  0  0  0
    1.3678    4.8305    1.1094 H   0  0  0  0  0  0  0  0  0  0  0  0
   -0.0769    4.1249    1.8464 H   0  0  0  0  0  0  0  0  0  0  0  0
    1.5694    2.4488   -1.2272 H   0  0  0  0  0  0  0  0  0  0  0  0
    2.9664    1.9823   -0.2136 H   0  0  0  0  0  0  0  0  0  0  0  0
    2.5992    3.6718   -0.4653 H   0  0  0  0  0  0  0  0  0  0  0  0
   -1.4537   -1.6025    0.0010 N   0  0  0  0  0  0  0  0  0  0  0  0
   -2.6879   -2.4130    0.0528 C   0  0  2  0  0  0  0  0  0  0  0  0
   -3.9988   -1.6430   -0.2294 C   0  0  0  0  0  0  0  0  0  0  0  0
   -4.8320   -2.1288   -0.9841 O   0  0  0  0  0  0  0  0  0  0  0  0
   -2.7850   -3.1885    1.3737 C   0  0  0  0  0  0  0  0  0  0  0  0
   -0.8137   -1.7961   -0.7718 H   0  0  0  0  0  0  0  0  0  0  0  0
   -2.6029   -3.1559   -0.7468 H   0  0  0  0  0  0  0  0  0  0  0  0
   -2.9765   -2.5167    2.2154 H   0  0  0  0  0  0  0  0  0  0  0  0
   -3.6046   -3.9121    1.3231 H   0  0  0  0  0  0  0  0  0  0  0  0
   -1.8548   -3.7316    1.5654 H   0  0  0  0  0  0  0  0  0  0  0  0
   -4.2686   -0.4340    0.3798 N   0  0  0  0  0  0  0  0  0  0  0  0
   -5.5214    0.2928    0.2335 C   0  0  0  0  0  0  0  0  0  0  0  0
   -3.5771   -0.1152    1.0641 H   0  0  0  0  0  0  0  0  0  0  0  0
   -5.4752    1.2364    0.7853 H   0  0  0  0  0  0  0  0  0  0  0  0
   -5.7128    0.5179   -0.8208 H   0  0  0  0  0  0  0  0  0  0  0  0
   -6.3549   -0.2990    0.6256 H   0  0  0  0  0  0  0  0  0  0  0  0
  1  2  2  0  0  0  0
  1  3  1  0  0  0  0
  1  7  1  0  0  0  0
  3  4  1  0  0  0  0
  3  5  1  0  0  0  0
  3  6  1  0  0  0  0
  7  8  1  0  0  0  0
  7 12  1  0  0  0  0
  8  9  1  0  0  0  0
  8 11  1  0  0  0  0
  8 13  1  0  0  0  0
  9 10  2  0  0  0  0
  9 17  1  0  0  0  0
 11 14  1  0  0  0  0
 11 15  1  0  0  0  0
 11 16  1  0  0  0  0
 17 18  1  0  0  0  0
 17 25  1  0  0  0  0
 18 19  1  0  0  0  0
 18 21  1  0  0  0  0
 18 26  1  0  0  0  0
 19 20  2  0  0  0  0
 19 36  1  0  0  0  0
 21 22  1  0  0  0  0
 21 27  1  0  0  0  0
 21 28  1  0  0  0  0
 22 23  1  0  0  0  0
 22 24  1  0  0  0  0
 22 29  1  0  0  0  0
 23 30  1  0  0  0  0
 23 31  1  0  0  0  0
 23 32  1  0  0  0  0
 24 33  1  0  0  0  0
 24 34  1  0  0  0  0
 24 35  1  0  0  0  0
 36 37  1  0  0  0  0
 36 41  1  0  0  0  0
 37 38  1  0  0  0  0
 37 40  1  0  0  0  0
 37 42  1  0  0  0  0
 38 39  2  0  0  0  0
 38 46  1  0  0  0  0
 40 43  1  0  0  0  0
 40 44  1  0  0  0  0
 40 45  1  0  0  0  0
 46 47  1  0  0  0  0
 46 48  1  0  0  0  0
 47 49  1  0  0  0  0
 47 50  1  0  0  0  0
 47 51  1  0  0  0  0
M  END
$$$$

  -OEChem-05262216553D

 51 50  0     1  0  0  0  0  0999 V2000
    1.1078   -2.7063   -2.9133 C   0  0  0  0  0  0  0  0  0  0  0  0
    0.0686   -2.2565   -2.4510 O   0  0  0  0  0  0  0  0  0  0  0  0
    1.1790   -4.1680   -3.3116 C   0  0  0  0  0  0  0  0  0  0  0  0
    1.9436   -4.6795   -2.7214 H   0  0  0  0  0  0  0  0  0  0  0  0
    0.2154   -4.6552   -3.1366 H   0  0  0  0  0  0  0  0  0  0  0  0
    1.4277   -4.2545   -4.3722 H   0  0  0  0  0  0  0  0  0  0  0  0
    2.2328   -1.9115   -3.0377 N   0  0  0  0  0  0  0  0  0  0  0  0
    2.3461   -0.4915   -2.6498 C   0  0  2  0  0  0  0  0  0  0  0  0
    2.0530   -0.2373   -1.1535 C   0  0  0  0  0  0  0  0  0  0  0  0
    2.9619   -0.3266   -0.3402 O   0  0  0  0  0  0  0  0  0  0  0  0
    1.4792    0.3812   -3.5707 C   0  0  0  0  0  0  0  0  0  0  0  0
    3.0804   -2.3836   -3.3410 H   0  0  0  0  0  0  0  0  0  0  0  0
    3.3862   -0.1867   -2.8052 H   0  0  0  0  0  0  0  0  0  0  0  0
    0.4156    0.1526   -3.4570 H   0  0  0  0  0  0  0  0  0  0  0  0
    1.6301    1.4402   -3.3399 H   0  0  0  0  0  0  0  0  0  0  0  0
    1.7556    0.2153   -4.6162 H   0  0  0  0  0  0  0  0  0  0  0  0
    0.7513   -0.1638   -0.7007 N   0  0  0  0  0  0  0  0  0  0  0  0
    0.3114    0.0863    0.6832 C   0  0  2  0  0  0  0  0  0  0  0  0
   -1.0442   -0.6591    0.8705 C   0  0  0  0  0  0  0  0  0  0  0  0
   -1.8956   -0.2765    1.6655 O   0  0  0  0  0  0  0  0  0  0  0  0
    0.0552    1.5935    1.0210 C   0  0  0  0  0  0  0  0  0  0  0  0
    1.1935    2.6493    1.0445 C   0  0  0  0  0  0  0  0  0  0  0  0
    0.5313    4.0199    1.2708 C   0  0  0  0  0  0  0  0  0  0  0  0
    2.0072    2.7924   -0.2501 C   0  0  0  0  0  0  0  0  0  0  0  0
    0.0392   -0.3218   -1.4148 H   0  0  0  0  0  0  0  0  0  0  0  0
    1.0354   -0.3293    1.3918 H   0  0  0  0  0  0  0  0  0  0  0  0
   -0.3876    1.6329    2.0221 H   0  0  0  0  0  0  0  0  0  0  0  0
   -0.7061    1.9458    0.3164 H   0  0  0  0  0  0  0  0  0  0  0  0
    1.8756    2.4289    1.8725 H   0  0  0  0  0  0  0  0  0  0  0  0
   -0.1088    4.2900    0.4244 H   0  0  0  0  0  0  0  0  0  0  0  0
    1.2902    4.7989    1.3958 H   0  0  0  0  0  0  0  0  0  0  0  0
   -0.0820    4.0029    2.1773 H   0  0  0  0  0  0  0  0  0  0  0  0
    1.3847    2.5889   -1.1256 H   0  0  0  0  0  0  0  0  0  0  0  0
    2.8634    2.1198   -0.2389 H   0  0  0  0  0  0  0  0  0  0  0  0
    2.4141    3.8036   -0.3513 H   0  0  0  0  0  0  0  0  0  0  0  0
   -1.2902   -1.8165    0.1436 N   0  0  0  0  0  0  0  0  0  0  0  0
   -2.4666   -2.7080    0.2182 C   0  0  2  0  0  0  0  0  0  0  0  0
   -3.7998   -2.0949   -0.2700 C   0  0  0  0  0  0  0  0  0  0  0  0
   -4.5445   -2.7588   -0.9803 O   0  0  0  0  0  0  0  0  0  0  0  0
   -2.6247   -3.2952    1.6271 C   0  0  0  0  0  0  0  0  0  0  0  0
   -0.5946   -2.0386   -0.5733 H   0  0  0  0  0  0  0  0  0  0  0  0
   -2.2613   -3.5463   -0.4556 H   0  0  0  0  0  0  0  0  0  0  0  0
   -2.9365   -2.5290    2.3427 H   0  0  0  0  0  0  0  0  0  0  0  0
   -3.3836   -4.0839    1.6202 H   0  0  0  0  0  0  0  0  0  0  0  0
   -1.6792   -3.7271    1.9679 H   0  0  0  0  0  0  0  0  0  0  0  0
   -4.1940   -0.8299    0.1173 N   0  0  0  0  0  0  0  0  0  0  0  0
   -5.4919   -0.2495   -0.1955 C   0  0  0  0  0  0  0  0  0  0  0  0
   -3.5850   -0.3637    0.7951 H   0  0  0  0  0  0  0  0  0  0  0  0
   -5.5419    0.7800    0.1716 H   0  0  0  0  0  0  0  0  0  0  0  0
   -5.6565   -0.2376   -1.2780 H   0  0  0  0  0  0  0  0  0  0  0  0
   -6.2926   -0.8277    0.2773 H   0  0  0  0  0  0  0  0  0  0  0  0
  1  2  2  0  0  0  0
  1  3  1  0  0  0  0
  1  7  1  0  0  0  0
  3  4  1  0  0  0  0
  3  5  1  0  0  0  0
  3  6  1  0  0  0  0
  7  8  1  0  0  0  0
  7 12  1  0  0  0  0
  8  9  1  0  0  0  0
  8 11  1  0  0  0  0
  8 13  1  0  0  0  0
  9 10  2  0  0  0  0
  9 17  1  0  0  0  0
 11 14  1  0  0  0  0
 11 15  1  0  0  0  0
 11 16  1  0  0  0  0
 17 18  1  0  0  0  0
 17 25  1  0  0  0  0
 18 19  1  0  0  0  0
 18 21  1  0  0  0  0
 18 26  1  0  0  0  0
 19 20  2  0  0  0  0
 19 36  1  0  0  0  0
 21 22  1  0  0  0  0
 21 27  1  0  0  0  0
 21 28  1  0  0  0  0
 22 23  1  0  0  0  0
 22 24  1  0  0  0  0
 22 29  1  0  0  0  0
 23 30  1  0  0  0  0
 23 31  1  0  0  0  0
 23 32  1  0  0  0  0
 24 33  1  0  0  0  0
 24 34  1  0  0  0  0
 24 35  1  0  0  0  0
 36 37  1  0  0  0  0
 36 41  1  0  0  0  0
 37 38  1  0  0  0  0
 37 40  1  0  0  0  0
 37 42  1  0  0  0  0
 38 39  2  0  0  0  0
 38 46  1  0  0  0  0
 40 43  1  0  0  0  0
 40 44  1  0  0  0  0
 40 45  1  0  0  0  0
 46 47  1  0  0  0  0
 46 48  1  0  0  0  0
 47 49  1  0  0  0  0
 47 50  1  0  0  0  0
 47 51  1  0  0  0  0
M  END
$$$$

  -OEChem-05262216553D

 51 50  0     1  0  0  0  0  0999 V2000
    1.2865   -3.0585   -2.6455 C   0  0  0  0  0  0  0  0  0  0  0  0
    0.4155   -2.9566   -1.7921 O   0  0  0  0  0  0  0  0  0  0  0  0
    1.8236   -4.4334   -2.9962 C   0  0  0  0  0  0  0  0  0  0  0  0
    2.8732   -4.5099   -2.7013 H   0  0  0  0  0  0  0  0  0  0  0  0
    1.2534   -5.2071   -2.4741 H   0  0  0  0  0  0  0  0  0  0  0  0
    1.7409   -4.6034   -4.0725 H   0  0  0  0  0  0  0  0  0  0  0  0
    1.8107   -1.9496   -3.2871 N   0  0  0  0  0  0  0  0  0  0  0  0
    1.4747   -0.5468   -2.9783 C   0  0  2  0  0  0  0  0  0  0  0  0
    1.6459   -0.2128   -1.4787 C   0  0  0  0  0  0  0  0  0  0  0  0
    2.7716   -0.2486   -0.9964 O   0  0  0  0  0  0  0  0  0  0  0  0
    0.0772   -0.2205   -3.5236 C   0  0  0  0  0  0  0  0  0  0  0  0
    2.6150   -2.1203   -3.8830 H   0  0  0  0  0  0  0  0  0  0  0  0
    2.1852    0.0983   -3.5041 H   0  0  0  0  0  0  0  0  0  0  0  0
   -0.6767   -0.8903   -3.1022 H   0  0  0  0  0  0  0  0  0  0  0  0
   -0.1974    0.8107   -3.2802 H   0  0  0  0  0  0  0  0  0  0  0  0
    0.0619   -0.3342   -4.6115 H   0  0  0  0  0  0  0  0  0  0  0  0
    0.5563   -0.1837   -0.6322 N   0  0  0  0  0  0  0  0  0  0  0  0
    0.5969   -0.0091    0.8294 C   0  0  2  0  0  0  0  0  0  0  0  0
   -0.6364   -0.8018    1.3402 C   0  0  0  0  0  0  0  0  0  0  0  0
   -1.4836   -0.3245    2.0892 O   0  0  0  0  0  0  0  0  0  0  0  0
    0.4499    1.4643    1.3308 C   0  0  0  0  0  0  0  0  0  0  0  0
    1.5192    2.5515    1.0437 C   0  0  0  0  0  0  0  0  0  0  0  0
    0.9553    3.8846    1.5665 C   0  0  0  0  0  0  0  0  0  0  0  0
    1.8381    2.7926   -0.4409 C   0  0  0  0  0  0  0  0  0  0  0  0
   -0.3600   -0.3419   -1.0652 H   0  0  0  0  0  0  0  0  0  0  0  0
    1.5059   -0.4513    1.2496 H   0  0  0  0  0  0  0  0  0  0  0  0
    0.3479    1.4223    2.4209 H   0  0  0  0  0  0  0  0  0  0  0  0
   -0.5003    1.8358    0.9300 H   0  0  0  0  0  0  0  0  0  0  0  0
    2.4441    2.3055    1.5761 H   0  0  0  0  0  0  0  0  0  0  0  0
    0.0616    4.1781    1.0060 H   0  0  0  0  0  0  0  0  0  0  0  0
    1.7007    4.6810    1.4753 H   0  0  0  0  0  0  0  0  0  0  0  0
    0.6870    3.7966    2.6241 H   0  0  0  0  0  0  0  0  0  0  0  0
    0.9652    2.5847   -1.0669 H   0  0  0  0  0  0  0  0  0  0  0  0
    2.6753    2.1722   -0.7571 H   0  0  0  0  0  0  0  0  0  0  0  0
    2.1410    3.8294   -0.6177 H   0  0  0  0  0  0  0  0  0  0  0  0
   -0.8474   -2.0614    0.7960 N   0  0  0  0  0  0  0  0  0  0  0  0
   -2.2026   -2.5500    0.4975 C   0  0  2  0  0  0  0  0  0  0  0  0
   -3.0115   -1.5204   -0.3366 C   0  0  0  0  0  0  0  0  0  0  0  0
   -2.4450   -0.8521   -1.1996 O   0  0  0  0  0  0  0  0  0  0  0  0
   -2.9166   -3.0157    1.7778 C   0  0  0  0  0  0  0  0  0  0  0  0
   -0.1517   -2.3008    0.0821 H   0  0  0  0  0  0  0  0  0  0  0  0
   -2.0923   -3.4317   -0.1413 H   0  0  0  0  0  0  0  0  0  0  0  0
   -3.1905   -2.1682    2.4129 H   0  0  0  0  0  0  0  0  0  0  0  0
   -3.8272   -3.5673    1.5265 H   0  0  0  0  0  0  0  0  0  0  0  0
   -2.2618   -3.6786    2.3516 H   0  0  0  0  0  0  0  0  0  0  0  0
   -4.3705   -1.3455   -0.1458 N   0  0  0  0  0  0  0  0  0  0  0  0
   -5.1339   -0.2986   -0.8135 C   0  0  0  0  0  0  0  0  0  0  0  0
   -4.7686   -1.7835    0.6793 H   0  0  0  0  0  0  0  0  0  0  0  0
   -6.1904   -0.3663   -0.5372 H   0  0  0  0  0  0  0  0  0  0  0  0
   -4.7613    0.6898   -0.5242 H   0  0  0  0  0  0  0  0  0  0  0  0
   -5.0558   -0.4010   -1.9011 H   0  0  0  0  0  0  0  0  0  0  0  0
  1  2  2  0  0  0  0
  1  3  1  0  0  0  0
  1  7  1  0  0  0  0
  3  4  1  0  0  0  0
  3  5  1  0  0  0  0
  3  6  1  0  0  0  0
  7  8  1  0  0  0  0
  7 12  1  0  0  0  0
  8  9  1  0  0  0  0
  8 11  1  0  0  0  0
  8 13  1  0  0  0  0
  9 10  2  0  0  0  0
  9 17  1  0  0  0  0
 11 14  1  0  0  0  0
 11 15  1  0  0  0  0
 11 16  1  0  0  0  0
 17 18  1  0  0  0  0
 17 25  1  0  0  0  0
 18 19  1  0  0  0  0
 18 21  1  0  0  0  0
 18 26  1  0  0  0  0
 19 20  2  0  0  0  0
 19 36  1  0  0  0  0
 21 22  1  0  0  0  0
 21 27  1  0  0  0  0
 21 28  1  0  0  0  0
 22 23  1  0  0  0  0
 22 24  1  0  0  0  0
 22 29  1  0  0  0  0
 23 30  1  0  0  0  0
 23 31  1  0  0  0  0
 23 32  1  0  0  0  0
 24 33  1  0  0  0  0
 24 34  1  0  0  0  0
 24 35  1  0  0  0  0
 36 37  1  0  0  0  0
 36 41  1  0  0  0  0
 37 38  1  0  0  0  0
 37 40  1  0  0  0  0
 37 42  1  0  0  0  0
 38 39  2  0  0  0  0
 38 46  1  0  0  0  0
 40 43  1  0  0  0  0
 40 44  1  0  0  0  0
 40 45  1  0  0  0  0
 46 47  1  0  0  0  0
 46 48  1  0  0  0  0
 47 49  1  0  0  0  0
 47 50  1  0  0  0  0
 47 51  1  0  0  0  0
M  END
$$$$

  -OEChem-05262216553D

 51 50  0     1  0  0  0  0  0999 V2000
    1.3176   -3.0943   -2.4943 C   0  0  0  0  0  0  0  0  0  0  0  0
    0.5001   -2.9714   -1.5914 O   0  0  0  0  0  0  0  0  0  0  0  0
    1.9099   -4.4629   -2.7737 C   0  0  0  0  0  0  0  0  0  0  0  0
    2.9944   -4.4340   -2.6427 H   0  0  0  0  0  0  0  0  0  0  0  0
    1.4924   -5.2031   -2.0854 H   0  0  0  0  0  0  0  0  0  0  0  0
    1.6805   -4.7670   -3.7979 H   0  0  0  0  0  0  0  0  0  0  0  0
    1.7349   -2.0161   -3.2567 N   0  0  0  0  0  0  0  0  0  0  0  0
    1.3452   -0.6109   -3.0308 C   0  0  2  0  0  0  0  0  0  0  0  0
    1.5551   -0.1667   -1.5644 C   0  0  0  0  0  0  0  0  0  0  0  0
    2.6920   -0.2017   -1.1088 O   0  0  0  0  0  0  0  0  0  0  0  0
   -0.0845   -0.3945   -3.5455 C   0  0  0  0  0  0  0  0  0  0  0  0
    2.5073   -2.1938   -3.8914 H   0  0  0  0  0  0  0  0  0  0  0  0
    2.0044    0.0280   -3.6263 H   0  0  0  0  0  0  0  0  0  0  0  0
   -0.7842   -1.0784   -3.0586 H   0  0  0  0  0  0  0  0  0  0  0  0
   -0.4104    0.6331   -3.3561 H   0  0  0  0  0  0  0  0  0  0  0  0
   -0.1276   -0.5769   -4.6233 H   0  0  0  0  0  0  0  0  0  0  0  0
    0.4851   -0.0801   -0.6959 N   0  0  0  0  0  0  0  0  0  0  0  0
    0.5869    0.0594    0.7654 C   0  0  2  0  0  0  0  0  0  0  0  0
   -0.6842   -0.6575    1.2833 C   0  0  0  0  0  0  0  0  0  0  0  0
   -1.5842   -0.0933    1.8991 O   0  0  0  0  0  0  0  0  0  0  0  0
    0.5552    1.5225    1.3175 C   0  0  0  0  0  0  0  0  0  0  0  0
    1.6814    2.5504    1.0277 C   0  0  0  0  0  0  0  0  0  0  0  0
    1.2218    3.8974    1.6138 C   0  0  0  0  0  0  0  0  0  0  0  0
    1.9585    2.8256   -0.4601 C   0  0  0  0  0  0  0  0  0  0  0  0
   -0.4319   -0.3201   -1.0858 H   0  0  0  0  0  0  0  0  0  0  0  0
    1.4734   -0.4572    1.1470 H   0  0  0  0  0  0  0  0  0  0  0  0
    0.4785    1.4487    2.4079 H   0  0  0  0  0  0  0  0  0  0  0  0
   -0.3774    1.9718    0.9575 H   0  0  0  0  0  0  0  0  0  0  0  0
    2.6073    2.2287    1.5160 H   0  0  0  0  0  0  0  0  0  0  0  0
    0.3335    4.2686    1.0919 H   0  0  0  0  0  0  0  0  0  0  0  0
    2.0155    4.6463    1.5268 H   0  0  0  0  0  0  0  0  0  0  0  0
    0.9794    3.7886    2.6755 H   0  0  0  0  0  0  0  0  0  0  0  0
    1.0600    2.6604   -1.0621 H   0  0  0  0  0  0  0  0  0  0  0  0
    2.7666    2.1920   -0.8224 H   0  0  0  0  0  0  0  0  0  0  0  0
    2.2861    3.8578   -0.6192 H   0  0  0  0  0  0  0  0  0  0  0  0
   -0.8157   -1.9974    0.9509 N   0  0  0  0  0  0  0  0  0  0  0  0
   -2.1378   -2.6110    0.7477 C   0  0  2  0  0  0  0  0  0  0  0  0
   -3.0274   -1.7807   -0.2177 C   0  0  0  0  0  0  0  0  0  0  0  0
   -2.5185   -1.1816   -1.1628 O   0  0  0  0  0  0  0  0  0  0  0  0
   -2.8069   -2.9166    2.0982 C   0  0  0  0  0  0  0  0  0  0  0  0
   -0.1030   -2.3038    0.2808 H   0  0  0  0  0  0  0  0  0  0  0  0
   -1.9731   -3.5713    0.2494 H   0  0  0  0  0  0  0  0  0  0  0  0
   -3.1234   -1.9981    2.6011 H   0  0  0  0  0  0  0  0  0  0  0  0
   -3.6852   -3.5526    1.9537 H   0  0  0  0  0  0  0  0  0  0  0  0
   -2.1065   -3.4442    2.7527 H   0  0  0  0  0  0  0  0  0  0  0  0
   -4.4017   -1.7285   -0.0645 N   0  0  0  0  0  0  0  0  0  0  0  0
   -5.2588   -0.8854   -0.8883 C   0  0  0  0  0  0  0  0  0  0  0  0
   -4.7749   -2.0987    0.8042 H   0  0  0  0  0  0  0  0  0  0  0  0
   -6.3019   -0.9844   -0.5731 H   0  0  0  0  0  0  0  0  0  0  0  0
   -4.9660    0.1658   -0.7949 H   0  0  0  0  0  0  0  0  0  0  0  0
   -5.1871   -1.1794   -1.9408 H   0  0  0  0  0  0  0  0  0  0  0  0
  1  2  2  0  0  0  0
  1  3  1  0  0  0  0
  1  7  1  0  0  0  0
  3  4  1  0  0  0  0
  3  5  1  0  0  0  0
  3  6  1  0  0  0  0
  7  8  1  0  0  0  0
  7 12  1  0  0  0  0
  8  9  1  0  0  0  0
  8 11  1  0  0  0  0
  8 13  1  0  0  0  0
  9 10  2  0  0  0  0
  9 17  1  0  0  0  0
 11 14  1  0  0  0  0
 11 15  1  0  0  0  0
 11 16  1  0  0  0  0
 17 18  1  0  0  0  0
 17 25  1  0  0  0  0
 18 19  1  0  0  0  0
 18 21  1  0  0  0  0
 18 26  1  0  0  0  0
 19 20  2  0  0  0  0
 19 36  1  0  0  0  0
 21 22  1  0  0  0  0
 21 27  1  0  0  0  0
 21 28  1  0  0  0  0
 22 23  1  0  0  0  0
 22 24  1  0  0  0  0
 22 29  1  0  0  0  0
 23 30  1  0  0  0  0
 23 31  1  0  0  0  0
 23 32  1  0  0  0  0
 24 33  1  0  0  0  0
 24 34  1  0  0  0  0
 24 35  1  0  0  0  0
 36 37  1  0  0  0  0
 36 41  1  0  0  0  0
 37 38  1  0  0  0  0
 37 40  1  0  0  0  0
 37 42  1  0  0  0  0
 38 39  2  0  0  0  0
 38 46  1  0  0  0  0
 40 43  1  0  0  0  0
 40 44  1  0  0  0  0
 40 45  1  0  0  0  0
 46 47  1  0  0  0  0
 46 48  1  0  0  0  0
 47 49  1  0  0  0  0
 47 50  1  0  0  0  0
 47 51  1  0  0  0  0
M  END
$$$$

  -OEChem-05262216553D

 51 50  0     1  0  0  0  0  0999 V2000
    1.4673   -3.1023   -2.3010 C   0  0  0  0  0  0  0  0  0  0  0  0
    0.6713   -2.9454   -1.3839 O   0  0  0  0  0  0  0  0  0  0  0  0
    2.1566   -4.4452   -2.4548 C   0  0  0  0  0  0  0  0  0  0  0  0
    3.2347   -4.3275   -2.3205 H   0  0  0  0  0  0  0  0  0  0  0  0
    1.7834   -5.1491   -1.7057 H   0  0  0  0  0  0  0  0  0  0  0  0
    1.9615   -4.8548   -3.4488 H   0  0  0  0  0  0  0  0  0  0  0  0
    1.7846   -2.0828   -3.1844 N   0  0  0  0  0  0  0  0  0  0  0  0
    1.3128   -0.6874   -3.0829 C   0  0  2  0  0  0  0  0  0  0  0  0
    1.5188   -0.0972   -1.6680 C   0  0  0  0  0  0  0  0  0  0  0  0
    2.6562   -0.0857   -1.2132 O   0  0  0  0  0  0  0  0  0  0  0  0
   -0.1393   -0.6112   -3.5779 C   0  0  0  0  0  0  0  0  0  0  0  0
    2.5506   -2.2737   -3.8228 H   0  0  0  0  0  0  0  0  0  0  0  0
    1.9195   -0.0692   -3.7512 H   0  0  0  0  0  0  0  0  0  0  0  0
   -0.7912   -1.2566   -2.9826 H   0  0  0  0  0  0  0  0  0  0  0  0
   -0.5132    0.4156   -3.5156 H   0  0  0  0  0  0  0  0  0  0  0  0
   -0.1992   -0.9369   -4.6206 H   0  0  0  0  0  0  0  0  0  0  0  0
    0.4390    0.0143   -0.8141 N   0  0  0  0  0  0  0  0  0  0  0  0
    0.5402    0.1090    0.6480 C   0  0  2  0  0  0  0  0  0  0  0  0
   -0.7673   -0.5654    1.1287 C   0  0  0  0  0  0  0  0  0  0  0  0
   -1.7363    0.0558    1.5564 O   0  0  0  0  0  0  0  0  0  0  0  0
    0.5602    1.5496    1.2586 C   0  0  0  0  0  0  0  0  0  0  0  0
    1.7220    2.5491    1.0149 C   0  0  0  0  0  0  0  0  0  0  0  0
    1.3035    3.8844    1.6573 C   0  0  0  0  0  0  0  0  0  0  0  0
    2.0052    2.8803   -0.4617 C   0  0  0  0  0  0  0  0  0  0  0  0
   -0.4510   -0.3140   -1.1954 H   0  0  0  0  0  0  0  0  0  0  0  0
    1.4021   -0.4554    1.0188 H   0  0  0  0  0  0  0  0  0  0  0  0
    0.4683    1.4342    2.3443 H   0  0  0  0  0  0  0  0  0  0  0  0
   -0.3489    2.0513    0.9079 H   0  0  0  0  0  0  0  0  0  0  0  0
    2.6364    2.1755    1.4877 H   0  0  0  0  0  0  0  0  0  0  0  0
    0.4275    4.3049    1.1522 H   0  0  0  0  0  0  0  0  0  0  0  0
    2.1203    4.6112    1.6021 H   0  0  0  0  0  0  0  0  0  0  0  0
    1.0562    3.7387    2.7137 H   0  0  0  0  0  0  0  0  0  0  0  0
    1.1156    2.7175   -1.0771 H   0  0  0  0  0  0  0  0  0  0  0  0
    2.8292    2.2758   -0.8382 H   0  0  0  0  0  0  0  0  0  0  0  0
    2.3120    3.9235   -0.5862 H   0  0  0  0  0  0  0  0  0  0  0  0
   -0.8237   -1.9468    1.0406 N   0  0  0  0  0  0  0  0  0  0  0  0
   -2.1041   -2.6715    0.9846 C   0  0  2  0  0  0  0  0  0  0  0  0
   -3.0688   -2.0942   -0.0873 C   0  0  0  0  0  0  0  0  0  0  0  0
   -2.6347   -1.7538   -1.1843 O   0  0  0  0  0  0  0  0  0  0  0  0
   -2.7239   -2.7669    2.3889 C   0  0  0  0  0  0  0  0  0  0  0  0
   -0.0878   -2.3295    0.4380 H   0  0  0  0  0  0  0  0  0  0  0  0
   -1.8831   -3.6940    0.6642 H   0  0  0  0  0  0  0  0  0  0  0  0
   -3.0743   -1.7900    2.7350 H   0  0  0  0  0  0  0  0  0  0  0  0
   -3.5715   -3.4587    2.3856 H   0  0  0  0  0  0  0  0  0  0  0  0
   -1.9816   -3.1390    3.1015 H   0  0  0  0  0  0  0  0  0  0  0  0
   -4.4261   -1.9720    0.1546 N   0  0  0  0  0  0  0  0  0  0  0  0
   -5.3356   -1.3140   -0.7749 C   0  0  0  0  0  0  0  0  0  0  0  0
   -4.7187   -2.0801    1.1208 H   0  0  0  0  0  0  0  0  0  0  0  0
   -6.3589   -1.3468   -0.3893 H   0  0  0  0  0  0  0  0  0  0  0  0
   -5.0484   -0.2663   -0.9125 H   0  0  0  0  0  0  0  0  0  0  0  0
   -5.3192   -1.8152   -1.7484 H   0  0  0  0  0  0  0  0  0  0  0  0
  1  2  2  0  0  0  0
  1  3  1  0  0  0  0
  1  7  1  0  0  0  0
  3  4  1  0  0  0  0
  3  5  1  0  0  0  0
  3  6  1  0  0  0  0
  7  8  1  0  0  0  0
  7 12  1  0  0  0  0
  8  9  1  0  0  0  0
  8 11  1  0  0  0  0
  8 13  1  0  0  0  0
  9 10  2  0  0  0  0
  9 17  1  0  0  0  0
 11 14  1  0  0  0  0
 11 15  1  0  0  0  0
 11 16  1  0  0  0  0
 17 18  1  0  0  0  0
 17 25  1  0  0  0  0
 18 19  1  0  0  0  0
 18 21  1  0  0  0  0
 18 26  1  0  0  0  0
 19 20  2  0  0  0  0
 19 36  1  0  0  0  0
 21 22  1  0  0  0  0
 21 27  1  0  0  0  0
 21 28  1  0  0  0  0
 22 23  1  0  0  0  0
 22 24  1  0  0  0  0
 22 29  1  0  0  0  0
 23 30  1  0  0  0  0
 23 31  1  0  0  0  0
 23 32  1  0  0  0  0
 24 33  1  0  0  0  0
 24 34  1  0  0  0  0
 24 35  1  0  0  0  0
 36 37  1  0  0  0  0
 36 41  1  0  0  0  0
 37 38  1  0  0  0  0
 37 40  1  0  0  0  0
 37 42  1  0  0  0  0
 38 39  2  0  0  0  0
 38 46  1  0  0  0  0
 40 43  1  0  0  0  0
 40 44  1  0  0  0  0
 40 45  1  0  0  0  0
 46 47  1  0  0  0  0
 46 48  1  0  0  0  0
 47 49  1  0  0  0  0
 47 50  1  0  0  0  0
 47 51  1  0  0  0  0
M  END
$$$$

  -OEChem-05262216553D

 51 50  0     1  0  0  0  0  0999 V2000
    0.0045   -2.2296   -2.9517 C   0  0  0  0  0  0  0  0  0  0  0  0
   -0.7187   -1.2839   -2.6807 O   0  0  0  0  0  0  0  0  0  0  0  0
   -0.6136   -3.5543   -3.3555 C   0  0  0  0  0  0  0  0  0  0  0  0
   -0.6028   -4.2432   -2.5068 H   0  0  0  0  0  0  0  0  0  0  0  0
   -1.6478   -3.4041   -3.6771 H   0  0  0  0  0  0  0  0  0  0  0  0
   -0.0529   -3.9970   -4.1824 H   0  0  0  0  0  0  0  0  0  0  0  0
    1.3802   -2.1234   -2.8523 N   0  0  0  0  0  0  0  0  0  0  0  0
    2.1548   -0.9263   -2.4597 C   0  0  2  0  0  0  0  0  0  0  0  0
    1.9737   -0.5107   -0.9814 C   0  0  0  0  0  0  0  0  0  0  0  0
    2.9442   -0.4961   -0.2354 O   0  0  0  0  0  0  0  0  0  0  0  0
    1.8802    0.2492   -3.4083 C   0  0  0  0  0  0  0  0  0  0  0  0
    1.9017   -2.9764   -3.0353 H   0  0  0  0  0  0  0  0  0  0  0  0
    3.2138   -1.1811   -2.5732 H   0  0  0  0  0  0  0  0  0  0  0  0
    0.8684    0.6428   -3.2741 H   0  0  0  0  0  0  0  0  0  0  0  0
    2.5896    1.0599   -3.2152 H   0  0  0  0  0  0  0  0  0  0  0  0
    1.9947   -0.0675   -4.4493 H   0  0  0  0  0  0  0  0  0  0  0  0
    0.7187   -0.3675   -0.4287 N   0  0  0  0  0  0  0  0  0  0  0  0
    0.4058    0.1418    0.9148 C   0  0  2  0  0  0  0  0  0  0  0  0
   -0.8924   -0.5779    1.3447 C   0  0  0  0  0  0  0  0  0  0  0  0
   -1.9976   -0.1820    0.9926 O   0  0  0  0  0  0  0  0  0  0  0  0
    0.1361    1.6735    1.0395 C   0  0  0  0  0  0  0  0  0  0  0  0
    1.2481    2.7232    0.7815 C   0  0  0  0  0  0  0  0  0  0  0  0
    0.5904    4.1116    0.8528 C   0  0  0  0  0  0  0  0  0  0  0  0
    1.9258    2.6473   -0.5926 C   0  0  0  0  0  0  0  0  0  0  0  0
   -0.0563   -0.4495   -1.0965 H   0  0  0  0  0  0  0  0  0  0  0  0
    1.2074   -0.1231    1.6117 H   0  0  0  0  0  0  0  0  0  0  0  0
   -0.2403    1.8526    2.0527 H   0  0  0  0  0  0  0  0  0  0  0  0
   -0.6804    1.9084    0.3472 H   0  0  0  0  0  0  0  0  0  0  0  0
    2.0128    2.6394    1.5608 H   0  0  0  0  0  0  0  0  0  0  0  0
   -0.1350    4.2419    0.0430 H   0  0  0  0  0  0  0  0  0  0  0  0
    1.3460    4.8998    0.7733 H   0  0  0  0  0  0  0  0  0  0  0  0
    0.0707    4.2400    1.8076 H   0  0  0  0  0  0  0  0  0  0  0  0
    1.2114    2.3347   -1.3596 H   0  0  0  0  0  0  0  0  0  0  0  0
    2.7669    1.9562   -0.5650 H   0  0  0  0  0  0  0  0  0  0  0  0
    2.3340    3.6200   -0.8845 H   0  0  0  0  0  0  0  0  0  0  0  0
   -0.7756   -1.7819    2.0206 N   0  0  0  0  0  0  0  0  0  0  0  0
   -1.8552   -2.7498    2.3075 C   0  0  2  0  0  0  0  0  0  0  0  0
   -2.4660   -3.4195    1.0534 C   0  0  0  0  0  0  0  0  0  0  0  0
   -2.5729   -4.6386    1.0141 O   0  0  0  0  0  0  0  0  0  0  0  0
   -2.9518   -2.1287    3.1842 C   0  0  0  0  0  0  0  0  0  0  0  0
    0.1792   -2.1077    2.1471 H   0  0  0  0  0  0  0  0  0  0  0  0
   -1.4053   -3.5582    2.8930 H   0  0  0  0  0  0  0  0  0  0  0  0
   -3.5344   -1.3877    2.6292 H   0  0  0  0  0  0  0  0  0  0  0  0
   -3.6381   -2.9073    3.5319 H   0  0  0  0  0  0  0  0  0  0  0  0
   -2.5094   -1.6417    4.0583 H   0  0  0  0  0  0  0  0  0  0  0  0
   -2.8872   -2.6711   -0.0274 N   0  0  0  0  0  0  0  0  0  0  0  0
   -3.5708   -3.2158   -1.1908 C   0  0  0  0  0  0  0  0  0  0  0  0
   -2.8049   -1.6548    0.0709 H   0  0  0  0  0  0  0  0  0  0  0  0
   -3.5999   -2.4692   -1.9904 H   0  0  0  0  0  0  0  0  0  0  0  0
   -3.0503   -4.1019   -1.5676 H   0  0  0  0  0  0  0  0  0  0  0  0
   -4.5974   -3.4936   -0.9327 H   0  0  0  0  0  0  0  0  0  0  0  0
  1  2  2  0  0  0  0
  1  3  1  0  0  0  0
  1  7  1  0  0  0  0
  3  4  1  0  0  0  0
  3  5  1  0  0  0  0
  3  6  1  0  0  0  0
  7  8  1  0  0  0  0
  7 12  1  0  0  0  0
  8  9  1  0  0  0  0
  8 11  1  0  0  0  0
  8 13  1  0  0  0  0
  9 10  2  0  0  0  0
  9 17  1  0  0  0  0
 11 14  1  0  0  0  0
 11 15  1  0  0  0  0
 11 16  1  0  0  0  0
 17 18  1  0  0  0  0
 17 25  1  0  0  0  0
 18 19  1  0  0  0  0
 18 21  1  0  0  0  0
 18 26  1  0  0  0  0
 19 20  2  0  0  0  0
 19 36  1  0  0  0  0
 21 22  1  0  0  0  0
 21 27  1  0  0  0  0
 21 28  1  0  0  0  0
 22 23  1  0  0  0  0
 22 24  1  0  0  0  0
 22 29  1  0  0  0  0
 23 30  1  0  0  0  0
 23 31  1  0  0  0  0
 23 32  1  0  0  0  0
 24 33  1  0  0  0  0
 24 34  1  0  0  0  0
 24 35  1  0  0  0  0
 36 37  1  0  0  0  0
 36 41  1  0  0  0  0
 37 38  1  0  0  0  0
 37 40  1  0  0  0  0
 37 42  1  0  0  0  0
 38 39  2  0  0  0  0
 38 46  1  0  0  0  0
 40 43  1  0  0  0  0
 40 44  1  0  0  0  0
 40 45  1  0  0  0  0
 46 47  1  0  0  0  0
 46 48  1  0  0  0  0
 47 49  1  0  0  0  0
 47 50  1  0  0  0  0
 47 51  1  0  0  0  0
M  END
$$$$

  -OEChem-05262216553D

 51 50  0     1  0  0  0  0  0999 V2000
    0.0423   -2.4341   -2.8641 C   0  0  0  0  0  0  0  0  0  0  0  0
   -0.7469   -1.5489   -2.5741 O   0  0  0  0  0  0  0  0  0  0  0  0
   -0.4751   -3.8230   -3.1865 C   0  0  0  0  0  0  0  0  0  0  0  0
   -0.3287   -4.4827   -2.3273 H   0  0  0  0  0  0  0  0  0  0  0  0
   -1.5417   -3.7816   -3.4234 H   0  0  0  0  0  0  0  0  0  0  0  0
    0.0572   -4.2338   -4.0478 H   0  0  0  0  0  0  0  0  0  0  0  0
    1.4057   -2.2005   -2.8641 N   0  0  0  0  0  0  0  0  0  0  0  0
    2.0876   -0.9313   -2.5344 C   0  0  2  0  0  0  0  0  0  0  0  0
    1.9523   -0.5148   -1.0523 C   0  0  0  0  0  0  0  0  0  0  0  0
    2.9403   -0.5262   -0.3293 O   0  0  0  0  0  0  0  0  0  0  0  0
    1.6485    0.1985   -3.4772 C   0  0  0  0  0  0  0  0  0  0  0  0
    1.9920   -3.0103   -3.0463 H   0  0  0  0  0  0  0  0  0  0  0  0
    3.1572   -1.0876   -2.7086 H   0  0  0  0  0  0  0  0  0  0  0  0
    0.6157    0.5027   -3.2833 H   0  0  0  0  0  0  0  0  0  0  0  0
    2.2923    1.0727   -3.3403 H   0  0  0  0  0  0  0  0  0  0  0  0
    1.7256   -0.1255   -4.5194 H   0  0  0  0  0  0  0  0  0  0  0  0
    0.7140   -0.3280   -0.4754 N   0  0  0  0  0  0  0  0  0  0  0  0
    0.4439    0.1593    0.8850 C   0  0  2  0  0  0  0  0  0  0  0  0
   -0.8787   -0.5049    1.3246 C   0  0  0  0  0  0  0  0  0  0  0  0
   -1.9402   -0.2029    0.7918 O   0  0  0  0  0  0  0  0  0  0  0  0
    0.2234    1.6944    1.0492 C   0  0  0  0  0  0  0  0  0  0  0  0
    1.3627    2.7141    0.7903 C   0  0  0  0  0  0  0  0  0  0  0  0
    0.7516    4.1211    0.9055 C   0  0  0  0  0  0  0  0  0  0  0  0
    2.0070    2.6460   -0.6009 C   0  0  0  0  0  0  0  0  0  0  0  0
   -0.0870   -0.4515   -1.1056 H   0  0  0  0  0  0  0  0  0  0  0  0
    1.2476   -0.1526    1.5594 H   0  0  0  0  0  0  0  0  0  0  0  0
   -0.1241    1.8621    2.0744 H   0  0  0  0  0  0  0  0  0  0  0  0
   -0.6020    1.9693    0.3824 H   0  0  0  0  0  0  0  0  0  0  0  0
    2.1410    2.5894    1.5505 H   0  0  0  0  0  0  0  0  0  0  0  0
    0.0147    4.2934    0.1140 H   0  0  0  0  0  0  0  0  0  0  0  0
    1.5305    4.8863    0.8280 H   0  0  0  0  0  0  0  0  0  0  0  0
    0.2555    4.2443    1.8734 H   0  0  0  0  0  0  0  0  0  0  0  0
    1.2666    2.3700   -1.3576 H   0  0  0  0  0  0  0  0  0  0  0  0
    2.8272    1.9296   -0.6075 H   0  0  0  0  0  0  0  0  0  0  0  0
    2.4380    3.6120   -0.8826 H   0  0  0  0  0  0  0  0  0  0  0  0
   -0.8357   -1.5491    2.2341 N   0  0  0  0  0  0  0  0  0  0  0  0
   -1.9539   -2.4367    2.6176 C   0  0  2  0  0  0  0  0  0  0  0  0
   -2.4716   -3.3519    1.4817 C   0  0  0  0  0  0  0  0  0  0  0  0
   -2.6360   -4.5452    1.7011 O   0  0  0  0  0  0  0  0  0  0  0  0
   -3.1080   -1.6454    3.2495 C   0  0  0  0  0  0  0  0  0  0  0  0
    0.0966   -1.8300    2.5260 H   0  0  0  0  0  0  0  0  0  0  0  0
   -1.5709   -3.1074    3.3937 H   0  0  0  0  0  0  0  0  0  0  0  0
   -3.6293   -1.0370    2.5047 H   0  0  0  0  0  0  0  0  0  0  0  0
   -3.8343   -2.3338    3.6926 H   0  0  0  0  0  0  0  0  0  0  0  0
   -2.7310   -0.9861    4.0369 H   0  0  0  0  0  0  0  0  0  0  0  0
   -2.7544   -2.8564    0.2242 N   0  0  0  0  0  0  0  0  0  0  0  0
   -3.3412   -3.6404   -0.8524 C   0  0  0  0  0  0  0  0  0  0  0  0
   -2.6428   -1.8455    0.1009 H   0  0  0  0  0  0  0  0  0  0  0  0
   -4.3493   -3.9694   -0.5799 H   0  0  0  0  0  0  0  0  0  0  0  0
   -3.4067   -3.0363   -1.7626 H   0  0  0  0  0  0  0  0  0  0  0  0
   -2.7274   -4.5215   -1.0649 H   0  0  0  0  0  0  0  0  0  0  0  0
  1  2  2  0  0  0  0
  1  3  1  0  0  0  0
  1  7  1  0  0  0  0
  3  4  1  0  0  0  0
  3  5  1  0  0  0  0
  3  6  1  0  0  0  0
  7  8  1  0  0  0  0
  7 12  1  0  0  0  0
  8  9  1  0  0  0  0
  8 11  1  0  0  0  0
  8 13  1  0  0  0  0
  9 10  2  0  0  0  0
  9 17  1  0  0  0  0
 11 14  1  0  0  0  0
 11 15  1  0  0  0  0
 11 16  1  0  0  0  0
 17 18  1  0  0  0  0
 17 25  1  0  0  0  0
 18 19  1  0  0  0  0
 18 21  1  0  0  0  0
 18 26  1  0  0  0  0
 19 20  2  0  0  0  0
 19 36  1  0  0  0  0
 21 22  1  0  0  0  0
 21 27  1  0  0  0  0
 21 28  1  0  0  0  0
 22 23  1  0  0  0  0
 22 24  1  0  0  0  0
 22 29  1  0  0  0  0
 23 30  1  0  0  0  0
 23 31  1  0  0  0  0
 23 32  1  0  0  0  0
 24 33  1  0  0  0  0
 24 34  1  0  0  0  0
 24 35  1  0  0  0  0
 36 37  1  0  0  0  0
 36 41  1  0  0  0  0
 37 38  1  0  0  0  0
 37 40  1  0  0  0  0
 37 42  1  0  0  0  0
 38 39  2  0  0  0  0
 38 46  1  0  0  0  0
 40 43  1  0  0  0  0
 40 44  1  0  0  0  0
 40 45  1  0  0  0  0
 46 47  1  0  0  0  0
 46 48  1  0  0  0  0
 47 49  1  0  0  0  0
 47 50  1  0  0  0  0
 47 51  1  0  0  0  0
M  END
$$$$

  -OEChem-05262216553D

 51 50  0     1  0  0  0  0  0999 V2000
    0.1825   -2.6447   -2.7415 C   0  0  0  0  0  0  0  0  0  0  0  0
   -0.6814   -1.8360   -2.4413 O   0  0  0  0  0  0  0  0  0  0  0  0
   -0.1998   -4.0927   -2.9855 C   0  0  0  0  0  0  0  0  0  0  0  0
    0.1417   -4.7136   -2.1535 H   0  0  0  0  0  0  0  0  0  0  0  0
   -1.2856   -4.1867   -3.0736 H   0  0  0  0  0  0  0  0  0  0  0  0
    0.2569   -4.4518   -3.9111 H   0  0  0  0  0  0  0  0  0  0  0  0
    1.5107   -2.2689   -2.8309 N   0  0  0  0  0  0  0  0  0  0  0  0
    2.0661   -0.9263   -2.5645 C   0  0  2  0  0  0  0  0  0  0  0  0
    1.9421   -0.4881   -1.0882 C   0  0  0  0  0  0  0  0  0  0  0  0
    2.9344   -0.5030   -0.3708 O   0  0  0  0  0  0  0  0  0  0  0  0
    1.4735    0.1228   -3.5176 C   0  0  0  0  0  0  0  0  0  0  0  0
    2.1720   -3.0202   -3.0069 H   0  0  0  0  0  0  0  0  0  0  0  0
    3.1392   -0.9733   -2.7769 H   0  0  0  0  0  0  0  0  0  0  0  0
    0.4179    0.3109   -3.3014 H   0  0  0  0  0  0  0  0  0  0  0  0
    2.0143    1.0687   -3.4175 H   0  0  0  0  0  0  0  0  0  0  0  0
    1.5600   -0.2152   -4.5546 H   0  0  0  0  0  0  0  0  0  0  0  0
    0.7081   -0.2716   -0.5117 N   0  0  0  0  0  0  0  0  0  0  0  0
    0.4511    0.1917    0.8594 C   0  0  2  0  0  0  0  0  0  0  0  0
   -0.8952   -0.4286    1.2905 C   0  0  0  0  0  0  0  0  0  0  0  0
   -1.9037   -0.2411    0.6196 O   0  0  0  0  0  0  0  0  0  0  0  0
    0.2606    1.7263    1.0510 C   0  0  0  0  0  0  0  0  0  0  0  0
    1.4201    2.7262    0.8054 C   0  0  0  0  0  0  0  0  0  0  0  0
    0.8388    4.1432    0.9470 C   0  0  0  0  0  0  0  0  0  0  0  0
    2.0536    2.6694   -0.5921 C   0  0  0  0  0  0  0  0  0  0  0  0
   -0.1028   -0.4623   -1.1118 H   0  0  0  0  0  0  0  0  0  0  0  0
    1.2463   -0.1567    1.5260 H   0  0  0  0  0  0  0  0  0  0  0  0
   -0.0792    1.8841    2.0806 H   0  0  0  0  0  0  0  0  0  0  0  0
   -0.5627    2.0272    0.3929 H   0  0  0  0  0  0  0  0  0  0  0  0
    2.2001    2.5718    1.5585 H   0  0  0  0  0  0  0  0  0  0  0  0
    0.0999    4.3431    0.1640 H   0  0  0  0  0  0  0  0  0  0  0  0
    1.6327    4.8934    0.8754 H   0  0  0  0  0  0  0  0  0  0  0  0
    0.3530    4.2614    1.9207 H   0  0  0  0  0  0  0  0  0  0  0  0
    1.3060    2.4075   -1.3467 H   0  0  0  0  0  0  0  0  0  0  0  0
    2.8681    1.9472   -0.6131 H   0  0  0  0  0  0  0  0  0  0  0  0
    2.4902    3.6349   -0.8664 H   0  0  0  0  0  0  0  0  0  0  0  0
   -0.9436   -1.2668    2.3927 N   0  0  0  0  0  0  0  0  0  0  0  0
   -2.0996   -2.0739    2.8380 C   0  0  2  0  0  0  0  0  0  0  0  0
   -2.5212   -3.1945    1.8565 C   0  0  0  0  0  0  0  0  0  0  0  0
   -2.6622   -4.3360    2.2762 O   0  0  0  0  0  0  0  0  0  0  0  0
   -3.2967   -1.1848    3.2037 C   0  0  0  0  0  0  0  0  0  0  0  0
   -0.0482   -1.4622    2.8318 H   0  0  0  0  0  0  0  0  0  0  0  0
   -1.7931   -2.5811    3.7585 H   0  0  0  0  0  0  0  0  0  0  0  0
   -3.7442   -0.7326    2.3139 H   0  0  0  0  0  0  0  0  0  0  0  0
   -4.0661   -1.7809    3.7042 H   0  0  0  0  0  0  0  0  0  0  0  0
   -2.9831   -0.3853    3.8815 H   0  0  0  0  0  0  0  0  0  0  0  0
   -2.7275   -2.9435    0.5144 N   0  0  0  0  0  0  0  0  0  0  0  0
   -3.1306   -3.9481   -0.4577 C   0  0  0  0  0  0  0  0  0  0  0  0
   -2.5923   -1.9758    0.2065 H   0  0  0  0  0  0  0  0  0  0  0  0
   -4.0961   -4.3831   -0.1799 H   0  0  0  0  0  0  0  0  0  0  0  0
   -3.2270   -3.4935   -1.4485 H   0  0  0  0  0  0  0  0  0  0  0  0
   -2.3849   -4.7474   -0.5136 H   0  0  0  0  0  0  0  0  0  0  0  0
  1  2  2  0  0  0  0
  1  3  1  0  0  0  0
  1  7  1  0  0  0  0
  3  4  1  0  0  0  0
  3  5  1  0  0  0  0
  3  6  1  0  0  0  0
  7  8  1  0  0  0  0
  7 12  1  0  0  0  0
  8  9  1  0  0  0  0
  8 11  1  0  0  0  0
  8 13  1  0  0  0  0
  9 10  2  0  0  0  0
  9 17  1  0  0  0  0
 11 14  1  0  0  0  0
 11 15  1  0  0  0  0
 11 16  1  0  0  0  0
 17 18  1  0  0  0  0
 17 25  1  0  0  0  0
 18 19  1  0  0  0  0
 18 21  1  0  0  0  0
 18 26  1  0  0  0  0
 19 20  2  0  0  0  0
 19 36  1  0  0  0  0
 21 22  1  0  0  0  0
 21 27  1  0  0  0  0
 21 28  1  0  0  0  0
 22 23  1  0  0  0  0
 22 24  1  0  0  0  0
 22 29  1  0  0  0  0
 23 30  1  0  0  0  0
 23 31  1  0  0  0  0
 23 32  1  0  0  0  0
 24 33  1  0  0  0  0
 24 34  1  0  0  0  0
 24 35  1  0  0  0  0
 36 37  1  0  0  0  0
 36 41  1  0  0  0  0
 37 38  1  0  0  0  0
 37 40  1  0  0  0  0
 37 42  1  0  0  0  0
 38 39  2  0  0  0  0
 38 46  1  0  0  0  0
 40 43  1  0  0  0  0
 40 44  1  0  0  0  0
 40 45  1  0  0  0  0
 46 47  1  0  0  0  0
 46 48  1  0  0  0  0
 47 49  1  0  0  0  0
 47 50  1  0  0  0  0
 47 51  1  0  0  0  0
M  END
$$$$

  -OEChem-05262216553D

 51 50  0     1  0  0  0  0  0999 V2000
    0.2726   -2.7447   -2.6463 C   0  0  0  0  0  0  0  0  0  0  0  0
   -0.6265   -1.9689   -2.3656 O   0  0  0  0  0  0  0  0  0  0  0  0
   -0.0331   -4.2241   -2.7866 C   0  0  0  0  0  0  0  0  0  0  0  0
    0.4071   -4.7759   -1.9524 H   0  0  0  0  0  0  0  0  0  0  0  0
   -1.1144   -4.3876   -2.7858 H   0  0  0  0  0  0  0  0  0  0  0  0
    0.3771   -4.6055   -3.7248 H   0  0  0  0  0  0  0  0  0  0  0  0
    1.5742   -2.3026   -2.7977 N   0  0  0  0  0  0  0  0  0  0  0  0
    2.0620   -0.9245   -2.5874 C   0  0  2  0  0  0  0  0  0  0  0  0
    1.9462   -0.4536   -1.1208 C   0  0  0  0  0  0  0  0  0  0  0  0
    2.9402   -0.4740   -0.4056 O   0  0  0  0  0  0  0  0  0  0  0  0
    1.3946    0.0615   -3.5586 C   0  0  0  0  0  0  0  0  0  0  0  0
    2.2724   -3.0262   -2.9439 H   0  0  0  0  0  0  0  0  0  0  0  0
    3.1313   -0.9202   -2.8227 H   0  0  0  0  0  0  0  0  0  0  0  0
    0.3346    0.2001   -3.3267 H   0  0  0  0  0  0  0  0  0  0  0  0
    1.8859    1.0375   -3.4983 H   0  0  0  0  0  0  0  0  0  0  0  0
    1.4787   -0.3043   -4.5863 H   0  0  0  0  0  0  0  0  0  0  0  0
    0.7154   -0.2170   -0.5448 N   0  0  0  0  0  0  0  0  0  0  0  0
    0.4677    0.2202    0.8366 C   0  0  2  0  0  0  0  0  0  0  0  0
   -0.8962   -0.3674    1.2596 C   0  0  0  0  0  0  0  0  0  0  0  0
   -1.8489   -0.3226    0.4897 O   0  0  0  0  0  0  0  0  0  0  0  0
    0.2959    1.7536    1.0492 C   0  0  0  0  0  0  0  0  0  0  0  0
    1.4658    2.7437    0.8136 C   0  0  0  0  0  0  0  0  0  0  0  0
    0.8992    4.1642    0.9765 C   0  0  0  0  0  0  0  0  0  0  0  0
    2.0928    2.7000   -0.5877 C   0  0  0  0  0  0  0  0  0  0  0  0
   -0.1007   -0.4550   -1.1207 H   0  0  0  0  0  0  0  0  0  0  0  0
    1.2541   -0.1581    1.4969 H   0  0  0  0  0  0  0  0  0  0  0  0
   -0.0369    1.9029    2.0825 H   0  0  0  0  0  0  0  0  0  0  0  0
   -0.5277    2.0708    0.3987 H   0  0  0  0  0  0  0  0  0  0  0  0
    2.2469    2.5704    1.5615 H   0  0  0  0  0  0  0  0  0  0  0  0
    0.1581    4.3803    0.1998 H   0  0  0  0  0  0  0  0  0  0  0  0
    1.6998    4.9077    0.9097 H   0  0  0  0  0  0  0  0  0  0  0  0
    0.4194    4.2750    1.9541 H   0  0  0  0  0  0  0  0  0  0  0  0
    1.3414    2.4518   -1.3432 H   0  0  0  0  0  0  0  0  0  0  0  0
    2.9027    1.9732   -0.6210 H   0  0  0  0  0  0  0  0  0  0  0  0
    2.5343    3.6659   -0.8522 H   0  0  0  0  0  0  0  0  0  0  0  0
   -1.0387   -0.9657    2.5014 N   0  0  0  0  0  0  0  0  0  0  0  0
   -2.2215   -1.7067    2.9902 C   0  0  2  0  0  0  0  0  0  0  0  0
   -2.5476   -2.9982    2.2002 C   0  0  0  0  0  0  0  0  0  0  0  0
   -2.6927   -4.0510    2.8080 O   0  0  0  0  0  0  0  0  0  0  0  0
   -3.4533   -0.7953    3.0843 C   0  0  0  0  0  0  0  0  0  0  0  0
   -0.1880   -1.0390    3.0524 H   0  0  0  0  0  0  0  0  0  0  0  0
   -1.9911   -2.0291    4.0108 H   0  0  0  0  0  0  0  0  0  0  0  0
   -3.8225   -0.5190    2.0924 H   0  0  0  0  0  0  0  0  0  0  0  0
   -4.2599   -1.3117    3.6142 H   0  0  0  0  0  0  0  0  0  0  0  0
   -3.2087    0.1194    3.6325 H   0  0  0  0  0  0  0  0  0  0  0  0
   -2.6649   -2.9965    0.8240 N   0  0  0  0  0  0  0  0  0  0  0  0
   -2.9603   -4.1728    0.0203 C   0  0  0  0  0  0  0  0  0  0  0  0
   -2.5257   -2.0950    0.3568 H   0  0  0  0  0  0  0  0  0  0  0  0
   -3.9169   -4.6120    0.3216 H   0  0  0  0  0  0  0  0  0  0  0  0
   -3.0238   -3.8966   -1.0367 H   0  0  0  0  0  0  0  0  0  0  0  0
   -2.1727   -4.9243    0.1364 H   0  0  0  0  0  0  0  0  0  0  0  0
  1  2  2  0  0  0  0
  1  3  1  0  0  0  0
  1  7  1  0  0  0  0
  3  4  1  0  0  0  0
  3  5  1  0  0  0  0
  3  6  1  0  0  0  0
  7  8  1  0  0  0  0
  7 12  1  0  0  0  0
  8  9  1  0  0  0  0
  8 11  1  0  0  0  0
  8 13  1  0  0  0  0
  9 10  2  0  0  0  0
  9 17  1  0  0  0  0
 11 14  1  0  0  0  0
 11 15  1  0  0  0  0
 11 16  1  0  0  0  0
 17 18  1  0  0  0  0
 17 25  1  0  0  0  0
 18 19  1  0  0  0  0
 18 21  1  0  0  0  0
 18 26  1  0  0  0  0
 19 20  2  0  0  0  0
 19 36  1  0  0  0  0
 21 22  1  0  0  0  0
 21 27  1  0  0  0  0
 21 28  1  0  0  0  0
 22 23  1  0  0  0  0
 22 24  1  0  0  0  0
 22 29  1  0  0  0  0
 23 30  1  0  0  0  0
 23 31  1  0  0  0  0
 23 32  1  0  0  0  0
 24 33  1  0  0  0  0
 24 34  1  0  0  0  0
 24 35  1  0  0  0  0
 36 37  1  0  0  0  0
 36 41  1  0  0  0  0
 37 38  1  0  0  0  0
 37 40  1  0  0  0  0
 37 42  1  0  0  0  0
 38 39  2  0  0  0  0
 38 46  1  0  0  0  0
 40 43  1  0  0  0  0
 40 44  1  0  0  0  0
 40 45  1  0  0  0  0
 46 47  1  0  0  0  0
 46 48  1  0  0  0  0
 47 49  1  0  0  0  0
 47 50  1  0  0  0  0
 47 51  1  0  0  0  0
M  END
$$$$

  -OEChem-05262216553D

 51 50  0     1  0  0  0  0  0999 V2000
    0.2026   -1.8331   -3.2533 C   0  0  0  0  0  0  0  0  0  0  0  0
   -0.2711   -0.7307   -3.0331 O   0  0  0  0  0  0  0  0  0  0  0  0
   -0.6600   -2.9148   -3.8751 C   0  0  0  0  0  0  0  0  0  0  0  0
   -0.7705   -3.7504   -3.1795 H   0  0  0  0  0  0  0  0  0  0  0  0
   -1.6524   -2.5180   -4.1079 H   0  0  0  0  0  0  0  0  0  0  0  0
   -0.2004   -3.2756   -4.7984 H   0  0  0  0  0  0  0  0  0  0  0  0
    1.5056   -2.1226   -2.8927 N   0  0  0  0  0  0  0  0  0  0  0  0
    2.4933   -1.1853   -2.3144 C   0  0  2  0  0  0  0  0  0  0  0  0
    2.1737   -0.6778   -0.8864 C   0  0  0  0  0  0  0  0  0  0  0  0
    3.0936   -0.5261   -0.0921 O   0  0  0  0  0  0  0  0  0  0  0  0
    2.7613   -0.0181   -3.2749 C   0  0  0  0  0  0  0  0  0  0  0  0
    1.8147   -3.0727   -3.0773 H   0  0  0  0  0  0  0  0  0  0  0  0
    3.4335   -1.7385   -2.2216 H   0  0  0  0  0  0  0  0  0  0  0  0
    1.8852    0.6290   -3.3699 H   0  0  0  0  0  0  0  0  0  0  0  0
    3.5953    0.5871   -2.9058 H   0  0  0  0  0  0  0  0  0  0  0  0
    3.0218   -0.3954   -4.2683 H   0  0  0  0  0  0  0  0  0  0  0  0
    0.8790   -0.5466   -0.4256 N   0  0  0  0  0  0  0  0  0  0  0  0
    0.4711    0.0470    0.8583 C   0  0  2  0  0  0  0  0  0  0  0  0
   -0.8300   -0.6377    1.3400 C   0  0  0  0  0  0  0  0  0  0  0  0
   -1.6384   -1.0915    0.5365 O   0  0  0  0  0  0  0  0  0  0  0  0
    0.0937    1.5585    0.8169 C   0  0  0  0  0  0  0  0  0  0  0  0
    1.1421    2.6564    0.4997 C   0  0  0  0  0  0  0  0  0  0  0  0
    0.3873    3.9932    0.4043 C   0  0  0  0  0  0  0  0  0  0  0  0
    1.8853    2.4970   -0.8321 C   0  0  0  0  0  0  0  0  0  0  0  0
    0.1532   -0.6331   -1.1444 H   0  0  0  0  0  0  0  0  0  0  0  0
    1.2560   -0.1141    1.6042 H   0  0  0  0  0  0  0  0  0  0  0  0
   -0.3363    1.8174    1.7908 H   0  0  0  0  0  0  0  0  0  0  0  0
   -0.7089    1.6564    0.0765 H   0  0  0  0  0  0  0  0  0  0  0  0
    1.8748    2.7054    1.3122 H   0  0  0  0  0  0  0  0  0  0  0  0
   -0.3120    3.9868   -0.4384 H   0  0  0  0  0  0  0  0  0  0  0  0
    1.0884    4.8226    0.2674 H   0  0  0  0  0  0  0  0  0  0  0  0
   -0.1779    4.1800    1.3227 H   0  0  0  0  0  0  0  0  0  0  0  0
    1.2265    2.0656   -1.5914 H   0  0  0  0  0  0  0  0  0  0  0  0
    2.7661    1.8693   -0.7045 H   0  0  0  0  0  0  0  0  0  0  0  0
    2.2440    3.4629   -1.2015 H   0  0  0  0  0  0  0  0  0  0  0  0
   -1.0763   -0.7450    2.7005 N   0  0  0  0  0  0  0  0  0  0  0  0
   -2.2982   -1.2616    3.3531 C   0  0  2  0  0  0  0  0  0  0  0  0
   -2.5527   -2.7777    3.1816 C   0  0  0  0  0  0  0  0  0  0  0  0
   -2.8334   -3.4519    4.1641 O   0  0  0  0  0  0  0  0  0  0  0  0
   -3.5318   -0.4521    2.9295 C   0  0  0  0  0  0  0  0  0  0  0  0
   -0.3416   -0.3935    3.3082 H   0  0  0  0  0  0  0  0  0  0  0  0
   -2.1704   -1.1027    4.4288 H   0  0  0  0  0  0  0  0  0  0  0  0
   -3.7875   -0.6359    1.8818 H   0  0  0  0  0  0  0  0  0  0  0  0
   -4.3925   -0.7340    3.5441 H   0  0  0  0  0  0  0  0  0  0  0  0
   -3.3487    0.6185    3.0612 H   0  0  0  0  0  0  0  0  0  0  0  0
   -2.4957   -3.3854    1.9436 N   0  0  0  0  0  0  0  0  0  0  0  0
   -2.7843   -4.7934    1.7104 C   0  0  0  0  0  0  0  0  0  0  0  0
   -2.2902   -2.7715    1.1502 H   0  0  0  0  0  0  0  0  0  0  0  0
   -3.8097   -5.0291    2.0135 H   0  0  0  0  0  0  0  0  0  0  0  0
   -2.6741   -5.0300    0.6479 H   0  0  0  0  0  0  0  0  0  0  0  0
   -2.0941   -5.4247    2.2794 H   0  0  0  0  0  0  0  0  0  0  0  0
  1  2  2  0  0  0  0
  1  3  1  0  0  0  0
  1  7  1  0  0  0  0
  3  4  1  0  0  0  0
  3  5  1  0  0  0  0
  3  6  1  0  0  0  0
  7  8  1  0  0  0  0
  7 12  1  0  0  0  0
  8  9  1  0  0  0  0
  8 11  1  0  0  0  0
  8 13  1  0  0  0  0
  9 10  2  0  0  0  0
  9 17  1  0  0  0  0
 11 14  1  0  0  0  0
 11 15  1  0  0  0  0
 11 16  1  0  0  0  0
 17 18  1  0  0  0  0
 17 25  1  0  0  0  0
 18 19  1  0  0  0  0
 18 21  1  0  0  0  0
 18 26  1  0  0  0  0
 19 20  2  0  0  0  0
 19 36  1  0  0  0  0
 21 22  1  0  0  0  0
 21 27  1  0  0  0  0
 21 28  1  0  0  0  0
 22 23  1  0  0  0  0
 22 24  1  0  0  0  0
 22 29  1  0  0  0  0
 23 30  1  0  0  0  0
 23 31  1  0  0  0  0
 23 32  1  0  0  0  0
 24 33  1  0  0  0  0
 24 34  1  0  0  0  0
 24 35  1  0  0  0  0
 36 37  1  0  0  0  0
 36 41  1  0  0  0  0
 37 38  1  0  0  0  0
 37 40  1  0  0  0  0
 37 42  1  0  0  0  0
 38 39  2  0  0  0  0
 38 46  1  0  0  0  0
 40 43  1  0  0  0  0
 40 44  1  0  0  0  0
 40 45  1  0  0  0  0
 46 47  1  0  0  0  0
 46 48  1  0  0  0  0
 47 49  1  0  0  0  0
 47 50  1  0  0  0  0
 47 51  1  0  0  0  0
M  END
$$$$

  -OEChem-05262216553D

 51 50  0     1  0  0  0  0  0999 V2000
    0.1565   -1.7161   -3.2372 C   0  0  0  0  0  0  0  0  0  0  0  0
   -0.2328   -0.5788   -3.0286 O   0  0  0  0  0  0  0  0  0  0  0  0
   -0.7847   -2.7319   -3.8555 C   0  0  0  0  0  0  0  0  0  0  0  0
   -1.0230   -3.5103   -3.1264 H   0  0  0  0  0  0  0  0  0  0  0  0
   -1.7135   -2.2447   -4.1664 H   0  0  0  0  0  0  0  0  0  0  0  0
   -0.3195   -3.1905   -4.7312 H   0  0  0  0  0  0  0  0  0  0  0  0
    1.4272   -2.1053   -2.8552 N   0  0  0  0  0  0  0  0  0  0  0  0
    2.4766   -1.2460   -2.2630 C   0  0  2  0  0  0  0  0  0  0  0  0
    2.1706   -0.7020   -0.8459 C   0  0  0  0  0  0  0  0  0  0  0  0
    3.0906   -0.5700   -0.0483 O   0  0  0  0  0  0  0  0  0  0  0  0
    2.8548   -0.1100   -3.2229 C   0  0  0  0  0  0  0  0  0  0  0  0
    1.6585   -3.0810   -3.0190 H   0  0  0  0  0  0  0  0  0  0  0  0
    3.3676   -1.8716   -2.1473 H   0  0  0  0  0  0  0  0  0  0  0  0
    2.0294    0.5957   -3.3491 H   0  0  0  0  0  0  0  0  0  0  0  0
    3.7170    0.4398   -2.8320 H   0  0  0  0  0  0  0  0  0  0  0  0
    3.1184   -0.5141   -4.2048 H   0  0  0  0  0  0  0  0  0  0  0  0
    0.8779   -0.5265   -0.3971 N   0  0  0  0  0  0  0  0  0  0  0  0
    0.4687    0.0774    0.8813 C   0  0  2  0  0  0  0  0  0  0  0  0
   -0.8636   -0.5703    1.3395 C   0  0  0  0  0  0  0  0  0  0  0  0
   -1.5421   -1.2380    0.5643 O   0  0  0  0  0  0  0  0  0  0  0  0
    0.1407    1.6016    0.8173 C   0  0  0  0  0  0  0  0  0  0  0  0
    1.2270    2.6642    0.5076 C   0  0  0  0  0  0  0  0  0  0  0  0
    0.5121    4.0206    0.3864 C   0  0  0  0  0  0  0  0  0  0  0  0
    1.9888    2.4738   -0.8100 C   0  0  0  0  0  0  0  0  0  0  0  0
    0.1553   -0.6122   -1.1180 H   0  0  0  0  0  0  0  0  0  0  0  0
    1.2349   -0.1057    1.6416 H   0  0  0  0  0  0  0  0  0  0  0  0
   -0.2954    1.8908    1.7790 H   0  0  0  0  0  0  0  0  0  0  0  0
   -0.6461    1.7148    0.0621 H   0  0  0  0  0  0  0  0  0  0  0  0
    1.9468    2.6997    1.3324 H   0  0  0  0  0  0  0  0  0  0  0  0
   -0.1701    4.0271   -0.4704 H   0  0  0  0  0  0  0  0  0  0  0  0
    1.2388    4.8292    0.2583 H   0  0  0  0  0  0  0  0  0  0  0  0
   -0.0658    4.2305    1.2918 H   0  0  0  0  0  0  0  0  0  0  0  0
    1.3327    2.0545   -1.5784 H   0  0  0  0  0  0  0  0  0  0  0  0
    2.8500    1.8240   -0.6622 H   0  0  0  0  0  0  0  0  0  0  0  0
    2.3809    3.4264   -1.1799 H   0  0  0  0  0  0  0  0  0  0  0  0
   -1.2905   -0.4039    2.6494 N   0  0  0  0  0  0  0  0  0  0  0  0
   -2.5423   -0.9028    3.2573 C   0  0  2  0  0  0  0  0  0  0  0  0
   -2.6286   -2.4400    3.3999 C   0  0  0  0  0  0  0  0  0  0  0  0
   -2.8989   -2.9285    4.4892 O   0  0  0  0  0  0  0  0  0  0  0  0
   -3.7737   -0.3502    2.5257 C   0  0  0  0  0  0  0  0  0  0  0  0
   -0.6569    0.1106    3.2549 H   0  0  0  0  0  0  0  0  0  0  0  0
   -2.5773   -0.5053    4.2771 H   0  0  0  0  0  0  0  0  0  0  0  0
   -3.8712   -0.7829    1.5258 H   0  0  0  0  0  0  0  0  0  0  0  0
   -4.6813   -0.5898    3.0887 H   0  0  0  0  0  0  0  0  0  0  0  0
   -3.7030    0.7373    2.4289 H   0  0  0  0  0  0  0  0  0  0  0  0
   -2.4044   -3.2740    2.3234 N   0  0  0  0  0  0  0  0  0  0  0  0
   -2.4399   -4.7276    2.3921 C   0  0  0  0  0  0  0  0  0  0  0  0
   -2.1529   -2.8144    1.4437 H   0  0  0  0  0  0  0  0  0  0  0  0
   -2.2623   -5.1552    1.4007 H   0  0  0  0  0  0  0  0  0  0  0  0
   -1.6671   -5.0972    3.0739 H   0  0  0  0  0  0  0  0  0  0  0  0
   -3.4174   -5.0710    2.7466 H   0  0  0  0  0  0  0  0  0  0  0  0
  1  2  2  0  0  0  0
  1  3  1  0  0  0  0
  1  7  1  0  0  0  0
  3  4  1  0  0  0  0
  3  5  1  0  0  0  0
  3  6  1  0  0  0  0
  7  8  1  0  0  0  0
  7 12  1  0  0  0  0
  8  9  1  0  0  0  0
  8 11  1  0  0  0  0
  8 13  1  0  0  0  0
  9 10  2  0  0  0  0
  9 17  1  0  0  0  0
 11 14  1  0  0  0  0
 11 15  1  0  0  0  0
 11 16  1  0  0  0  0
 17 18  1  0  0  0  0
 17 25  1  0  0  0  0
 18 19  1  0  0  0  0
 18 21  1  0  0  0  0
 18 26  1  0  0  0  0
 19 20  2  0  0  0  0
 19 36  1  0  0  0  0
 21 22  1  0  0  0  0
 21 27  1  0  0  0  0
 21 28  1  0  0  0  0
 22 23  1  0  0  0  0
 22 24  1  0  0  0  0
 22 29  1  0  0  0  0
 23 30  1  0  0  0  0
 23 31  1  0  0  0  0
 23 32  1  0  0  0  0
 24 33  1  0  0  0  0
 24 34  1  0  0  0  0
 24 35  1  0  0  0  0
 36 37  1  0  0  0  0
 36 41  1  0  0  0  0
 37 38  1  0  0  0  0
 37 40  1  0  0  0  0
 37 42  1  0  0  0  0
 38 39  2  0  0  0  0
 38 46  1  0  0  0  0
 40 43  1  0  0  0  0
 40 44  1  0  0  0  0
 40 45  1  0  0  0  0
 46 47  1  0  0  0  0
 46 48  1  0  0  0  0
 47 49  1  0  0  0  0
 47 50  1  0  0  0  0
 47 51  1  0  0  0  0
M  END
$$$$

  -OEChem-05262216553D

 51 50  0     1  0  0  0  0  0999 V2000
    0.2095   -2.1502   -2.9888 C   0  0  0  0  0  0  0  0  0  0  0  0
   -0.4003   -1.0939   -2.9364 O   0  0  0  0  0  0  0  0  0  0  0  0
   -0.5389   -3.4318   -3.3026 C   0  0  0  0  0  0  0  0  0  0  0  0
   -0.5596   -4.0760   -2.4198 H   0  0  0  0  0  0  0  0  0  0  0  0
   -1.5678   -3.2044   -3.5960 H   0  0  0  0  0  0  0  0  0  0  0  0
   -0.0504   -3.9626   -4.1231 H   0  0  0  0  0  0  0  0  0  0  0  0
    1.5630   -2.2017   -2.7068 N   0  0  0  0  0  0  0  0  0  0  0  0
    2.4367   -1.0695   -2.3249 C   0  0  2  0  0  0  0  0  0  0  0  0
    2.1309   -0.4582   -0.9375 C   0  0  0  0  0  0  0  0  0  0  0  0
    3.0555   -0.2017   -0.1766 O   0  0  0  0  0  0  0  0  0  0  0  0
    2.4523    0.0154   -3.4107 C   0  0  0  0  0  0  0  0  0  0  0  0
    1.9758   -3.1302   -2.7037 H   0  0  0  0  0  0  0  0  0  0  0  0
    3.4559   -1.4640   -2.2590 H   0  0  0  0  0  0  0  0  0  0  0  0
    1.4922    0.5360   -3.4668 H   0  0  0  0  0  0  0  0  0  0  0  0
    3.2278    0.7556   -3.1889 H   0  0  0  0  0  0  0  0  0  0  0  0
    2.6659   -0.4274   -4.3883 H   0  0  0  0  0  0  0  0  0  0  0  0
    0.8322   -0.3066   -0.4964 N   0  0  0  0  0  0  0  0  0  0  0  0
    0.4062    0.1979    0.8176 C   0  0  2  0  0  0  0  0  0  0  0  0
   -0.7135   -0.7203    1.3803 C   0  0  0  0  0  0  0  0  0  0  0  0
   -1.1097   -1.6925    0.7438 O   0  0  0  0  0  0  0  0  0  0  0  0
   -0.1962    1.6331    0.7450 C   0  0  0  0  0  0  0  0  0  0  0  0
    0.6932    2.8404    0.3502 C   0  0  0  0  0  0  0  0  0  0  0  0
   -0.2231    4.0688    0.2309 C   0  0  0  0  0  0  0  0  0  0  0  0
    1.4240    2.7138   -0.9929 C   0  0  0  0  0  0  0  0  0  0  0  0
    0.1035   -0.5815   -1.1621 H   0  0  0  0  0  0  0  0  0  0  0  0
    1.2456    0.1892    1.5206 H   0  0  0  0  0  0  0  0  0  0  0  0
   -0.6192    1.8788    1.7236 H   0  0  0  0  0  0  0  0  0  0  0  0
   -1.0308    1.5886    0.0360 H   0  0  0  0  0  0  0  0  0  0  0  0
    1.4346    3.0138    1.1377 H   0  0  0  0  0  0  0  0  0  0  0  0
   -0.9440    3.9394   -0.5832 H   0  0  0  0  0  0  0  0  0  0  0  0
    0.3658    4.9702    0.0334 H   0  0  0  0  0  0  0  0  0  0  0  0
   -0.7760    4.2257    1.1623 H   0  0  0  0  0  0  0  0  0  0  0  0
    0.7848    2.2323   -1.7394 H   0  0  0  0  0  0  0  0  0  0  0  0
    1.7137    3.6979   -1.3743 H   0  0  0  0  0  0  0  0  0  0  0  0
    2.3434    2.1419   -0.8737 H   0  0  0  0  0  0  0  0  0  0  0  0
   -1.2822   -0.4517    2.6175 N   0  0  0  0  0  0  0  0  0  0  0  0
   -2.4245   -1.1436    3.2536 C   0  0  2  0  0  0  0  0  0  0  0  0
   -2.1533   -2.5993    3.6999 C   0  0  0  0  0  0  0  0  0  0  0  0
   -2.4916   -2.9552    4.8211 O   0  0  0  0  0  0  0  0  0  0  0  0
   -3.6766   -1.0731    2.3678 C   0  0  0  0  0  0  0  0  0  0  0  0
   -0.8831    0.3361    3.1198 H   0  0  0  0  0  0  0  0  0  0  0  0
   -2.6542   -0.5902    4.1699 H   0  0  0  0  0  0  0  0  0  0  0  0
   -3.5683   -1.6983    1.4766 H   0  0  0  0  0  0  0  0  0  0  0  0
   -4.5494   -1.4265    2.9259 H   0  0  0  0  0  0  0  0  0  0  0  0
   -3.8628   -0.0427    2.0506 H   0  0  0  0  0  0  0  0  0  0  0  0
   -1.5603   -3.5137    2.8534 N   0  0  0  0  0  0  0  0  0  0  0  0
   -1.3373   -4.9132    3.1867 C   0  0  0  0  0  0  0  0  0  0  0  0
   -1.3367   -3.1753    1.9134 H   0  0  0  0  0  0  0  0  0  0  0  0
   -2.2920   -5.4225    3.3538 H   0  0  0  0  0  0  0  0  0  0  0  0
   -0.8138   -5.4159    2.3679 H   0  0  0  0  0  0  0  0  0  0  0  0
   -0.7271   -4.9998    4.0917 H   0  0  0  0  0  0  0  0  0  0  0  0
  1  2  2  0  0  0  0
  1  3  1  0  0  0  0
  1  7  1  0  0  0  0
  3  4  1  0  0  0  0
  3  5  1  0  0  0  0
  3  6  1  0  0  0  0
  7  8  1  0  0  0  0
  7 12  1  0  0  0  0
  8  9  1  0  0  0  0
  8 11  1  0  0  0  0
  8 13  1  0  0  0  0
  9 10  2  0  0  0  0
  9 17  1  0  0  0  0
 11 14  1  0  0  0  0
 11 15  1  0  0  0  0
 11 16  1  0  0  0  0
 17 18  1  0  0  0  0
 17 25  1  0  0  0  0
 18 19  1  0  0  0  0
 18 21  1  0  0  0  0
 18 26  1  0  0  0  0
 19 20  2  0  0  0  0
 19 36  1  0  0  0  0
 21 22  1  0  0  0  0
 21 27  1  0  0  0  0
 21 28  1  0  0  0  0
 22 23  1  0  0  0  0
 22 24  1  0  0  0  0
 22 29  1  0  0  0  0
 23 30  1  0  0  0  0
 23 31  1  0  0  0  0
 23 32  1  0  0  0  0
 24 33  1  0  0  0  0
 24 34  1  0  0  0  0
 24 35  1  0  0  0  0
 36 37  1  0  0  0  0
 36 41  1  0  0  0  0
 37 38  1  0  0  0  0
 37 40  1  0  0  0  0
 37 42  1  0  0  0  0
 38 39  2  0  0  0  0
 38 46  1  0  0  0  0
 40 43  1  0  0  0  0
 40 44  1  0  0  0  0
 40 45  1  0  0  0  0
 46 47  1  0  0  0  0
 46 48  1  0  0  0  0
 47 49  1  0  0  0  0
 47 50  1  0  0  0  0
 47 51  1  0  0  0  0
M  END
$$$$

  -OEChem-05262216553D

 51 50  0     1  0  0  0  0  0999 V2000
    1.7167   -3.2801   -2.5535 C   0  0  0  0  0  0  0  0  0  0  0  0
    0.6476   -3.3703   -1.9727 O   0  0  0  0  0  0  0  0  0  0  0  0
    2.6296   -4.4893   -2.6350 C   0  0  0  0  0  0  0  0  0  0  0  0
    3.5728   -4.2781   -2.1252 H   0  0  0  0  0  0  0  0  0  0  0  0
    2.1571   -5.3516   -2.1562 H   0  0  0  0  0  0  0  0  0  0  0  0
    2.8337   -4.7355   -3.6798 H   0  0  0  0  0  0  0  0  0  0  0  0
    2.1239   -2.0860   -3.1191 N   0  0  0  0  0  0  0  0  0  0  0  0
    1.4577   -0.7906   -2.8912 C   0  0  2  0  0  0  0  0  0  0  0  0
    1.4649   -0.3793   -1.3982 C   0  0  0  0  0  0  0  0  0  0  0  0
    2.5226   -0.4266   -0.7787 O   0  0  0  0  0  0  0  0  0  0  0  0
    0.0590   -0.7729   -3.5340 C   0  0  0  0  0  0  0  0  0  0  0  0
    3.0949   -2.0600   -3.4150 H   0  0  0  0  0  0  0  0  0  0  0  0
    2.0461   -0.0259   -3.4070 H   0  0  0  0  0  0  0  0  0  0  0  0
   -0.6341   -1.4342   -3.0055 H   0  0  0  0  0  0  0  0  0  0  0  0
   -0.3533    0.2406   -3.5173 H   0  0  0  0  0  0  0  0  0  0  0  0
    0.1199   -1.1018   -4.5758 H   0  0  0  0  0  0  0  0  0  0  0  0
    0.3112    0.0299   -0.7517 N   0  0  0  0  0  0  0  0  0  0  0  0
    0.2339    0.3102    0.6924 C   0  0  2  0  0  0  0  0  0  0  0  0
   -1.0546   -0.3654    1.2452 C   0  0  0  0  0  0  0  0  0  0  0  0
   -1.7061   -1.1129    0.5231 O   0  0  0  0  0  0  0  0  0  0  0  0
    0.1152    1.8367    0.9995 C   0  0  0  0  0  0  0  0  0  0  0  0
    1.2791    2.8104    0.6745 C   0  0  0  0  0  0  0  0  0  0  0  0
    0.7780    4.2354    0.9650 C   0  0  0  0  0  0  0  0  0  0  0  0
    1.7468    2.8182   -0.7892 C   0  0  0  0  0  0  0  0  0  0  0  0
   -0.5533   -0.2991   -1.1828 H   0  0  0  0  0  0  0  0  0  0  0  0
    1.0959   -0.1084    1.2226 H   0  0  0  0  0  0  0  0  0  0  0  0
   -0.0699    1.9560    2.0707 H   0  0  0  0  0  0  0  0  0  0  0  0
   -0.7763    2.1962    0.4731 H   0  0  0  0  0  0  0  0  0  0  0  0
    2.1350    2.5828    1.3189 H   0  0  0  0  0  0  0  0  0  0  0  0
   -0.0415    4.5065    0.2912 H   0  0  0  0  0  0  0  0  0  0  0  0
    1.5873    4.9617    0.8378 H   0  0  0  0  0  0  0  0  0  0  0  0
    0.4190    4.3118    1.9963 H   0  0  0  0  0  0  0  0  0  0  0  0
    0.9022    2.6754   -1.4699 H   0  0  0  0  0  0  0  0  0  0  0  0
    2.2306    3.7674   -1.0407 H   0  0  0  0  0  0  0  0  0  0  0  0
    2.4881    2.0390   -0.9590 H   0  0  0  0  0  0  0  0  0  0  0  0
   -1.5690   -0.0401    2.4929 N   0  0  0  0  0  0  0  0  0  0  0  0
   -2.8290   -0.5210    3.1000 C   0  0  2  0  0  0  0  0  0  0  0  0
   -2.8655   -2.0334    3.4240 C   0  0  0  0  0  0  0  0  0  0  0  0
   -3.2021   -2.3960    4.5437 O   0  0  0  0  0  0  0  0  0  0  0  0
   -4.0461   -0.1145    2.2573 C   0  0  0  0  0  0  0  0  0  0  0  0
   -0.9763    0.5486    3.0706 H   0  0  0  0  0  0  0  0  0  0  0  0
   -2.9276   -0.0072    4.0619 H   0  0  0  0  0  0  0  0  0  0  0  0
   -4.0887   -0.6785    1.3211 H   0  0  0  0  0  0  0  0  0  0  0  0
   -4.9678   -0.3123    2.8139 H   0  0  0  0  0  0  0  0  0  0  0  0
   -4.0065    0.9529    2.0202 H   0  0  0  0  0  0  0  0  0  0  0  0
   -2.5248   -2.9827    2.4814 N   0  0  0  0  0  0  0  0  0  0  0  0
   -2.5249   -4.4178    2.7254 C   0  0  0  0  0  0  0  0  0  0  0  0
   -2.2497   -2.6297    1.5601 H   0  0  0  0  0  0  0  0  0  0  0  0
   -3.5386   -4.7690    2.9436 H   0  0  0  0  0  0  0  0  0  0  0  0
   -2.1555   -4.9490    1.8429 H   0  0  0  0  0  0  0  0  0  0  0  0
   -1.8758   -4.6627    3.5725 H   0  0  0  0  0  0  0  0  0  0  0  0
  1  2  2  0  0  0  0
  1  3  1  0  0  0  0
  1  7  1  0  0  0  0
  3  4  1  0  0  0  0
  3  5  1  0  0  0  0
  3  6  1  0  0  0  0
  7  8  1  0  0  0  0
  7 12  1  0  0  0  0
  8  9  1  0  0  0  0
  8 11  1  0  0  0  0
  8 13  1  0  0  0  0
  9 10  2  0  0  0  0
  9 17  1  0  0  0  0
 11 14  1  0  0  0  0
 11 15  1  0  0  0  0
 11 16  1  0  0  0  0
 17 18  1  0  0  0  0
 17 25  1  0  0  0  0
 18 19  1  0  0  0  0
 18 21  1  0  0  0  0
 18 26  1  0  0  0  0
 19 20  2  0  0  0  0
 19 36  1  0  0  0  0
 21 22  1  0  0  0  0
 21 27  1  0  0  0  0
 21 28  1  0  0  0  0
 22 23  1  0  0  0  0
 22 24  1  0  0  0  0
 22 29  1  0  0  0  0
 23 30  1  0  0  0  0
 23 31  1  0  0  0  0
 23 32  1  0  0  0  0
 24 33  1  0  0  0  0
 24 34  1  0  0  0  0
 24 35  1  0  0  0  0
 36 37  1  0  0  0  0
 36 41  1  0  0  0  0
 37 38  1  0  0  0  0
 37 40  1  0  0  0  0
 37 42  1  0  0  0  0
 38 39  2  0  0  0  0
 38 46  1  0  0  0  0
 40 43  1  0  0  0  0
 40 44  1  0  0  0  0
 40 45  1  0  0  0  0
 46 47  1  0  0  0  0
 46 48  1  0  0  0  0
 47 49  1  0  0  0  0
 47 50  1  0  0  0  0
 47 51  1  0  0  0  0
M  END
$$$$

  -OEChem-05262216553D

 51 50  0     1  0  0  0  0  0999 V2000
    1.8681   -3.2688   -2.6162 C   0  0  0  0  0  0  0  0  0  0  0  0
    0.8002   -3.4624   -2.0593 O   0  0  0  0  0  0  0  0  0  0  0  0
    2.8731   -4.4006   -2.7226 C   0  0  0  0  0  0  0  0  0  0  0  0
    3.7697   -4.1568   -2.1473 H   0  0  0  0  0  0  0  0  0  0  0  0
    2.4425   -5.3254   -2.3286 H   0  0  0  0  0  0  0  0  0  0  0  0
    3.1494   -4.5592   -3.7677 H   0  0  0  0  0  0  0  0  0  0  0  0
    2.1886   -2.0302   -3.1406 N   0  0  0  0  0  0  0  0  0  0  0  0
    1.4268   -0.7951   -2.8775 C   0  0  2  0  0  0  0  0  0  0  0  0
    1.4218   -0.4104   -1.3769 C   0  0  0  0  0  0  0  0  0  0  0  0
    2.4713   -0.4784   -0.7456 O   0  0  0  0  0  0  0  0  0  0  0  0
    0.0216   -0.8697   -3.5015 C   0  0  0  0  0  0  0  0  0  0  0  0
    3.1611   -1.9216   -3.4123 H   0  0  0  0  0  0  0  0  0  0  0  0
    1.9486    0.0210   -3.3859 H   0  0  0  0  0  0  0  0  0  0  0  0
   -0.6204   -1.5695   -2.9583 H   0  0  0  0  0  0  0  0  0  0  0  0
   -0.4535    0.1157   -3.4849 H   0  0  0  0  0  0  0  0  0  0  0  0
    0.0885   -1.2009   -4.5423 H   0  0  0  0  0  0  0  0  0  0  0  0
    0.2726    0.0386   -0.7476 N   0  0  0  0  0  0  0  0  0  0  0  0
    0.1906    0.3356    0.6939 C   0  0  2  0  0  0  0  0  0  0  0  0
   -1.1264   -0.3016    1.2323 C   0  0  0  0  0  0  0  0  0  0  0  0
   -1.6409   -1.2243    0.6109 O   0  0  0  0  0  0  0  0  0  0  0  0
    0.1359    1.8690    0.9873 C   0  0  0  0  0  0  0  0  0  0  0  0
    1.3423    2.7918    0.6695 C   0  0  0  0  0  0  0  0  0  0  0  0
    0.8955    4.2380    0.9445 C   0  0  0  0  0  0  0  0  0  0  0  0
    1.8247    2.7732   -0.7892 C   0  0  0  0  0  0  0  0  0  0  0  0
   -0.5931   -0.2757   -1.1850 H   0  0  0  0  0  0  0  0  0  0  0  0
    1.0293   -0.1114    1.2383 H   0  0  0  0  0  0  0  0  0  0  0  0
   -0.0440    2.0007    2.0580 H   0  0  0  0  0  0  0  0  0  0  0  0
   -0.7363    2.2636    0.4537 H   0  0  0  0  0  0  0  0  0  0  0  0
    2.1810    2.5339    1.3252 H   0  0  0  0  0  0  0  0  0  0  0  0
    0.0983    4.5382    0.2563 H   0  0  0  0  0  0  0  0  0  0  0  0
    1.7360    4.9292    0.8250 H   0  0  0  0  0  0  0  0  0  0  0  0
    0.5243    4.3364    1.9695 H   0  0  0  0  0  0  0  0  0  0  0  0
    0.9831    2.6498   -1.4774 H   0  0  0  0  0  0  0  0  0  0  0  0
    2.3392    3.7051   -1.0440 H   0  0  0  0  0  0  0  0  0  0  0  0
    2.5446    1.9717   -0.9450 H   0  0  0  0  0  0  0  0  0  0  0  0
   -1.8311    0.2322    2.3042 N   0  0  0  0  0  0  0  0  0  0  0  0
   -3.1419   -0.2072    2.8320 C   0  0  2  0  0  0  0  0  0  0  0  0
   -3.1641   -1.6270    3.4469 C   0  0  0  0  0  0  0  0  0  0  0  0
   -3.6068   -1.7804    4.5779 O   0  0  0  0  0  0  0  0  0  0  0  0
   -4.2481   -0.0516    1.7793 C   0  0  0  0  0  0  0  0  0  0  0  0
   -1.3663    0.9845    2.8030 H   0  0  0  0  0  0  0  0  0  0  0  0
   -3.3920    0.4743    3.6517 H   0  0  0  0  0  0  0  0  0  0  0  0
   -4.1326   -0.7783    0.9701 H   0  0  0  0  0  0  0  0  0  0  0  0
   -5.2276   -0.2111    2.2411 H   0  0  0  0  0  0  0  0  0  0  0  0
   -4.2276    0.9548    1.3510 H   0  0  0  0  0  0  0  0  0  0  0  0
   -2.7031   -2.7245    2.7481 N   0  0  0  0  0  0  0  0  0  0  0  0
   -2.6873   -4.0828    3.2713 C   0  0  0  0  0  0  0  0  0  0  0  0
   -2.3236   -2.5408    1.8146 H   0  0  0  0  0  0  0  0  0  0  0  0
   -3.7031   -4.4126    3.5125 H   0  0  0  0  0  0  0  0  0  0  0  0
   -2.2692   -4.7672    2.5268 H   0  0  0  0  0  0  0  0  0  0  0  0
   -2.0729   -4.1370    4.1759 H   0  0  0  0  0  0  0  0  0  0  0  0
  1  2  2  0  0  0  0
  1  3  1  0  0  0  0
  1  7  1  0  0  0  0
  3  4  1  0  0  0  0
  3  5  1  0  0  0  0
  3  6  1  0  0  0  0
  7  8  1  0  0  0  0
  7 12  1  0  0  0  0
  8  9  1  0  0  0  0
  8 11  1  0  0  0  0
  8 13  1  0  0  0  0
  9 10  2  0  0  0  0
  9 17  1  0  0  0  0
 11 14  1  0  0  0  0
 11 15  1  0  0  0  0
 11 16  1  0  0  0  0
 17 18  1  0  0  0  0
 17 25  1  0  0  0  0
 18 19  1  0  0  0  0
 18 21  1  0  0  0  0
 18 26  1  0  0  0  0
 19 20  2  0  0  0  0
 19 36  1  0  0  0  0
 21 22  1  0  0  0  0
 21 27  1  0  0  0  0
 21 28  1  0  0  0  0
 22 23  1  0  0  0  0
 22 24  1  0  0  0  0
 22 29  1  0  0  0  0
 23 30  1  0  0  0  0
 23 31  1  0  0  0  0
 23 32  1  0  0  0  0
 24 33  1  0  0  0  0
 24 34  1  0  0  0  0
 24 35  1  0  0  0  0
 36 37  1  0  0  0  0
 36 41  1  0  0  0  0
 37 38  1  0  0  0  0
 37 40  1  0  0  0  0
 37 42  1  0  0  0  0
 38 39  2  0  0  0  0
 38 46  1  0  0  0  0
 40 43  1  0  0  0  0
 40 44  1  0  0  0  0
 40 45  1  0  0  0  0
 46 47  1  0  0  0  0
 46 48  1  0  0  0  0
 47 49  1  0  0  0  0
 47 50  1  0  0  0  0
 47 51  1  0  0  0  0
M  END
$$$$

  -OEChem-05262216553D

 51 50  0     1  0  0  0  0  0999 V2000
    0.1582   -2.3175   -2.7242 C   0  0  0  0  0  0  0  0  0  0  0  0
   -0.5591   -1.3282   -2.7154 O   0  0  0  0  0  0  0  0  0  0  0  0
   -0.4701   -3.6962   -2.7961 C   0  0  0  0  0  0  0  0  0  0  0  0
   -0.2977   -4.2322   -1.8591 H   0  0  0  0  0  0  0  0  0  0  0  0
   -1.5483   -3.6123   -2.9587 H   0  0  0  0  0  0  0  0  0  0  0  0
   -0.0336   -4.2649   -3.6208 H   0  0  0  0  0  0  0  0  0  0  0  0
    1.5333   -2.2046   -2.6166 N   0  0  0  0  0  0  0  0  0  0  0  0
    2.3140   -0.9635   -2.4177 C   0  0  2  0  0  0  0  0  0  0  0  0
    2.0880   -0.2976   -1.0420 C   0  0  0  0  0  0  0  0  0  0  0  0
    3.0441   -0.0956   -0.3046 O   0  0  0  0  0  0  0  0  0  0  0  0
    2.0868    0.0375   -3.5594 C   0  0  0  0  0  0  0  0  0  0  0  0
    2.0362   -3.0838   -2.5333 H   0  0  0  0  0  0  0  0  0  0  0  0
    3.3719   -1.2439   -2.4490 H   0  0  0  0  0  0  0  0  0  0  0  0
    1.0765    0.4555   -3.5285 H   0  0  0  0  0  0  0  0  0  0  0  0
    2.7986    0.8649   -3.4787 H   0  0  0  0  0  0  0  0  0  0  0  0
    2.2326   -0.4506   -4.5277 H   0  0  0  0  0  0  0  0  0  0  0  0
    0.8066   -0.0762   -0.5820 N   0  0  0  0  0  0  0  0  0  0  0  0
    0.4325    0.4010    0.7563 C   0  0  2  0  0  0  0  0  0  0  0  0
   -0.7425   -0.4970    1.2416 C   0  0  0  0  0  0  0  0  0  0  0  0
   -0.6711   -1.7101    1.0756 O   0  0  0  0  0  0  0  0  0  0  0  0
   -0.0219    1.8927    0.7753 C   0  0  0  0  0  0  0  0  0  0  0  0
    0.9792    3.0312    0.4472 C   0  0  0  0  0  0  0  0  0  0  0  0
    0.1848    4.3472    0.4124 C   0  0  0  0  0  0  0  0  0  0  0  0
    1.6829    2.9204   -0.9130 C   0  0  0  0  0  0  0  0  0  0  0  0
    0.0622   -0.4096   -1.2018 H   0  0  0  0  0  0  0  0  0  0  0  0
    1.2645    0.2731    1.4569 H   0  0  0  0  0  0  0  0  0  0  0  0
   -0.3950    2.1141    1.7800 H   0  0  0  0  0  0  0  0  0  0  0  0
   -0.8632    1.9794    0.0785 H   0  0  0  0  0  0  0  0  0  0  0  0
    1.7393    3.0832    1.2343 H   0  0  0  0  0  0  0  0  0  0  0  0
   -0.5458    4.3405   -0.4032 H   0  0  0  0  0  0  0  0  0  0  0  0
    0.8578    5.1985    0.2683 H   0  0  0  0  0  0  0  0  0  0  0  0
   -0.3488    4.4976    1.3560 H   0  0  0  0  0  0  0  0  0  0  0  0
    1.0080    2.5093   -1.6699 H   0  0  0  0  0  0  0  0  0  0  0  0
    2.0258    3.9010   -1.2580 H   0  0  0  0  0  0  0  0  0  0  0  0
    2.5694    2.2928   -0.8332 H   0  0  0  0  0  0  0  0  0  0  0  0
   -1.8822    0.0183    1.8464 N   0  0  0  0  0  0  0  0  0  0  0  0
   -3.1247   -0.7081    2.1903 C   0  0  2  0  0  0  0  0  0  0  0  0
   -3.0035   -1.7372    3.3393 C   0  0  0  0  0  0  0  0  0  0  0  0
   -3.8792   -1.7824    4.1935 O   0  0  0  0  0  0  0  0  0  0  0  0
   -3.7472   -1.3548    0.9446 C   0  0  0  0  0  0  0  0  0  0  0  0
   -1.8973    1.0274    1.9572 H   0  0  0  0  0  0  0  0  0  0  0  0
   -3.8374    0.0439    2.5449 H   0  0  0  0  0  0  0  0  0  0  0  0
   -3.1377   -2.1873    0.5816 H   0  0  0  0  0  0  0  0  0  0  0  0
   -4.7429   -1.7419    1.1828 H   0  0  0  0  0  0  0  0  0  0  0  0
   -3.8448   -0.6183    0.1415 H   0  0  0  0  0  0  0  0  0  0  0  0
   -1.9454   -2.6203    3.4142 N   0  0  0  0  0  0  0  0  0  0  0  0
   -1.8210   -3.6643    4.4216 C   0  0  0  0  0  0  0  0  0  0  0  0
   -1.2869   -2.5954    2.6307 H   0  0  0  0  0  0  0  0  0  0  0  0
   -0.8587   -4.1744    4.3175 H   0  0  0  0  0  0  0  0  0  0  0  0
   -1.8765   -3.2358    5.4277 H   0  0  0  0  0  0  0  0  0  0  0  0
   -2.6211   -4.4029    4.3075 H   0  0  0  0  0  0  0  0  0  0  0  0
  1  2  2  0  0  0  0
  1  3  1  0  0  0  0
  1  7  1  0  0  0  0
  3  4  1  0  0  0  0
  3  5  1  0  0  0  0
  3  6  1  0  0  0  0
  7  8  1  0  0  0  0
  7 12  1  0  0  0  0
  8  9  1  0  0  0  0
  8 11  1  0  0  0  0
  8 13  1  0  0  0  0
  9 10  2  0  0  0  0
  9 17  1  0  0  0  0
 11 14  1  0  0  0  0
 11 15  1  0  0  0  0
 11 16  1  0  0  0  0
 17 18  1  0  0  0  0
 17 25  1  0  0  0  0
 18 19  1  0  0  0  0
 18 21  1  0  0  0  0
 18 26  1  0  0  0  0
 19 20  2  0  0  0  0
 19 36  1  0  0  0  0
 21 22  1  0  0  0  0
 21 27  1  0  0  0  0
 21 28  1  0  0  0  0
 22 23  1  0  0  0  0
 22 24  1  0  0  0  0
 22 29  1  0  0  0  0
 23 30  1  0  0  0  0
 23 31  1  0  0  0  0
 23 32  1  0  0  0  0
 24 33  1  0  0  0  0
 24 34  1  0  0  0  0
 24 35  1  0  0  0  0
 36 37  1  0  0  0  0
 36 41  1  0  0  0  0
 37 38  1  0  0  0  0
 37 40  1  0  0  0  0
 37 42  1  0  0  0  0
 38 39  2  0  0  0  0
 38 46  1  0  0  0  0
 40 43  1  0  0  0  0
 40 44  1  0  0  0  0
 40 45  1  0  0  0  0
 46 47  1  0  0  0  0
 46 48  1  0  0  0  0
 47 49  1  0  0  0  0
 47 50  1  0  0  0  0
 47 51  1  0  0  0  0
M  END
$$$$

  -OEChem-05262216553D

 51 50  0     1  0  0  0  0  0999 V2000
    0.2314   -2.3623   -2.6625 C   0  0  0  0  0  0  0  0  0  0  0  0
   -0.5307   -1.4066   -2.6587 O   0  0  0  0  0  0  0  0  0  0  0  0
   -0.3363   -3.7690   -2.6751 C   0  0  0  0  0  0  0  0  0  0  0  0
   -0.0709   -4.2856   -1.7489 H   0  0  0  0  0  0  0  0  0  0  0  0
   -1.4265   -3.7355   -2.7571 H   0  0  0  0  0  0  0  0  0  0  0  0
    0.0635   -4.3282   -3.5247 H   0  0  0  0  0  0  0  0  0  0  0  0
    1.6022   -2.1849   -2.5920 N   0  0  0  0  0  0  0  0  0  0  0  0
    2.3283   -0.9065   -2.4240 C   0  0  2  0  0  0  0  0  0  0  0  0
    2.0945   -0.2347   -1.0525 C   0  0  0  0  0  0  0  0  0  0  0  0
    3.0461   -0.0203   -0.3131 O   0  0  0  0  0  0  0  0  0  0  0  0
    2.0332    0.0688   -3.5727 C   0  0  0  0  0  0  0  0  0  0  0  0
    2.1470   -3.0384   -2.5032 H   0  0  0  0  0  0  0  0  0  0  0  0
    3.3977   -1.1368   -2.4723 H   0  0  0  0  0  0  0  0  0  0  0  0
    1.0063    0.4429   -3.5262 H   0  0  0  0  0  0  0  0  0  0  0  0
    2.7096    0.9276   -3.5163 H   0  0  0  0  0  0  0  0  0  0  0  0
    2.1807   -0.4250   -4.5378 H   0  0  0  0  0  0  0  0  0  0  0  0
    0.8081   -0.0209   -0.6024 N   0  0  0  0  0  0  0  0  0  0  0  0
    0.4183    0.4629    0.7285 C   0  0  2  0  0  0  0  0  0  0  0  0
   -0.7500   -0.4438    1.2044 C   0  0  0  0  0  0  0  0  0  0  0  0
   -0.5681   -1.6543    1.2691 O   0  0  0  0  0  0  0  0  0  0  0  0
   -0.0445    1.9513    0.7490 C   0  0  0  0  0  0  0  0  0  0  0  0
    0.9548    3.0939    0.4330 C   0  0  0  0  0  0  0  0  0  0  0  0
    0.1567    4.4077    0.3952 C   0  0  0  0  0  0  0  0  0  0  0  0
    1.6707    2.9885   -0.9216 C   0  0  0  0  0  0  0  0  0  0  0  0
    0.0733   -0.3692   -1.2252 H   0  0  0  0  0  0  0  0  0  0  0  0
    1.2453    0.3415    1.4363 H   0  0  0  0  0  0  0  0  0  0  0  0
   -0.4379    2.1605    1.7496 H   0  0  0  0  0  0  0  0  0  0  0  0
   -0.8732    2.0402    0.0376 H   0  0  0  0  0  0  0  0  0  0  0  0
    1.7073    3.1459    1.2274 H   0  0  0  0  0  0  0  0  0  0  0  0
   -0.5610    4.4049   -0.4317 H   0  0  0  0  0  0  0  0  0  0  0  0
    0.8293    5.2622    0.2676 H   0  0  0  0  0  0  0  0  0  0  0  0
   -0.3923    4.5497    1.3315 H   0  0  0  0  0  0  0  0  0  0  0  0
    1.0034    2.5780   -1.6857 H   0  0  0  0  0  0  0  0  0  0  0  0
    2.0142    3.9710   -1.2606 H   0  0  0  0  0  0  0  0  0  0  0  0
    2.5577    2.3625   -0.8363 H   0  0  0  0  0  0  0  0  0  0  0  0
   -2.0096    0.0570    1.5077 N   0  0  0  0  0  0  0  0  0  0  0  0
   -3.2478   -0.7145    1.7507 C   0  0  2  0  0  0  0  0  0  0  0  0
   -3.2809   -1.5313    3.0639 C   0  0  0  0  0  0  0  0  0  0  0  0
   -4.2790   -1.4854    3.7714 O   0  0  0  0  0  0  0  0  0  0  0  0
   -3.5822   -1.6053    0.5455 C   0  0  0  0  0  0  0  0  0  0  0  0
   -2.1096    1.0629    1.4126 H   0  0  0  0  0  0  0  0  0  0  0  0
   -4.0582    0.0164    1.8386 H   0  0  0  0  0  0  0  0  0  0  0  0
   -2.8766   -2.4365    0.4582 H   0  0  0  0  0  0  0  0  0  0  0  0
   -4.5876   -2.0233    0.6568 H   0  0  0  0  0  0  0  0  0  0  0  0
   -3.5498   -1.0227   -0.3803 H   0  0  0  0  0  0  0  0  0  0  0  0
   -2.2224   -2.3300    3.4466 N   0  0  0  0  0  0  0  0  0  0  0  0
   -2.2220   -3.1772    4.6308 C   0  0  0  0  0  0  0  0  0  0  0  0
   -1.4340   -2.3729    2.7947 H   0  0  0  0  0  0  0  0  0  0  0  0
   -3.0084   -3.9356    4.5586 H   0  0  0  0  0  0  0  0  0  0  0  0
   -1.2578   -3.6852    4.7296 H   0  0  0  0  0  0  0  0  0  0  0  0
   -2.3906   -2.5775    5.5313 H   0  0  0  0  0  0  0  0  0  0  0  0
  1  2  2  0  0  0  0
  1  3  1  0  0  0  0
  1  7  1  0  0  0  0
  3  4  1  0  0  0  0
  3  5  1  0  0  0  0
  3  6  1  0  0  0  0
  7  8  1  0  0  0  0
  7 12  1  0  0  0  0
  8  9  1  0  0  0  0
  8 11  1  0  0  0  0
  8 13  1  0  0  0  0
  9 10  2  0  0  0  0
  9 17  1  0  0  0  0
 11 14  1  0  0  0  0
 11 15  1  0  0  0  0
 11 16  1  0  0  0  0
 17 18  1  0  0  0  0
 17 25  1  0  0  0  0
 18 19  1  0  0  0  0
 18 21  1  0  0  0  0
 18 26  1  0  0  0  0
 19 20  2  0  0  0  0
 19 36  1  0  0  0  0
 21 22  1  0  0  0  0
 21 27  1  0  0  0  0
 21 28  1  0  0  0  0
 22 23  1  0  0  0  0
 22 24  1  0  0  0  0
 22 29  1  0  0  0  0
 23 30  1  0  0  0  0
 23 31  1  0  0  0  0
 23 32  1  0  0  0  0
 24 33  1  0  0  0  0
 24 34  1  0  0  0  0
 24 35  1  0  0  0  0
 36 37  1  0  0  0  0
 36 41  1  0  0  0  0
 37 38  1  0  0  0  0
 37 40  1  0  0  0  0
 37 42  1  0  0  0  0
 38 39  2  0  0  0  0
 38 46  1  0  0  0  0
 40 43  1  0  0  0  0
 40 44  1  0  0  0  0
 40 45  1  0  0  0  0
 46 47  1  0  0  0  0
 46 48  1  0  0  0  0
 47 49  1  0  0  0  0
 47 50  1  0  0  0  0
 47 51  1  0  0  0  0
M  END
$$$$

  -OEChem-05262216553D

 51 50  0     1  0  0  0  0  0999 V2000
    0.2728   -2.3445   -2.6190 C   0  0  0  0  0  0  0  0  0  0  0  0
   -0.4815   -1.3828   -2.6341 O   0  0  0  0  0  0  0  0  0  0  0  0
   -0.3098   -3.7444   -2.6476 C   0  0  0  0  0  0  0  0  0  0  0  0
   -0.1238   -4.2439   -1.6933 H   0  0  0  0  0  0  0  0  0  0  0  0
   -1.3896   -3.7003   -2.8162 H   0  0  0  0  0  0  0  0  0  0  0  0
    0.1471   -4.3258   -3.4520 H   0  0  0  0  0  0  0  0  0  0  0  0
    1.6427   -2.1794   -2.5076 N   0  0  0  0  0  0  0  0  0  0  0  0
    2.3809   -0.9061   -2.3473 C   0  0  2  0  0  0  0  0  0  0  0  0
    2.1217   -0.1974   -0.9989 C   0  0  0  0  0  0  0  0  0  0  0  0
    3.0586    0.0473   -0.2509 O   0  0  0  0  0  0  0  0  0  0  0  0
    2.1257    0.0448   -3.5252 C   0  0  0  0  0  0  0  0  0  0  0  0
    2.1774   -3.0375   -2.4028 H   0  0  0  0  0  0  0  0  0  0  0  0
    3.4483   -1.1500   -2.3622 H   0  0  0  0  0  0  0  0  0  0  0  0
    1.0995    0.4234   -3.5176 H   0  0  0  0  0  0  0  0  0  0  0  0
    2.8039    0.9020   -3.4669 H   0  0  0  0  0  0  0  0  0  0  0  0
    2.3000   -0.4703   -4.4746 H   0  0  0  0  0  0  0  0  0  0  0  0
    0.8259    0.0112   -0.5764 N   0  0  0  0  0  0  0  0  0  0  0  0
    0.3975    0.5270    0.7293 C   0  0  2  0  0  0  0  0  0  0  0  0
   -0.7628   -0.3896    1.1933 C   0  0  0  0  0  0  0  0  0  0  0  0
   -0.5065   -1.5403    1.5257 O   0  0  0  0  0  0  0  0  0  0  0  0
   -0.0921    2.0053    0.7093 C   0  0  0  0  0  0  0  0  0  0  0  0
    0.8957    3.1564    0.3903 C   0  0  0  0  0  0  0  0  0  0  0  0
    0.0781    4.4558    0.3076 C   0  0  0  0  0  0  0  0  0  0  0  0
    1.6449    3.0311   -0.9442 C   0  0  0  0  0  0  0  0  0  0  0  0
    0.1076   -0.3328   -1.2198 H   0  0  0  0  0  0  0  0  0  0  0  0
    1.2094    0.4368    1.4593 H   0  0  0  0  0  0  0  0  0  0  0  0
   -0.5224    2.2219    1.6935 H   0  0  0  0  0  0  0  0  0  0  0  0
   -0.8990    2.0688   -0.0284 H   0  0  0  0  0  0  0  0  0  0  0  0
    1.6286    3.2378    1.2004 H   0  0  0  0  0  0  0  0  0  0  0  0
   -0.6219    4.4240   -0.5339 H   0  0  0  0  0  0  0  0  0  0  0  0
    0.7396    5.3182    0.1759 H   0  0  0  0  0  0  0  0  0  0  0  0
   -0.4931    4.6081    1.2288 H   0  0  0  0  0  0  0  0  0  0  0  0
    0.9998    2.6005   -1.7160 H   0  0  0  0  0  0  0  0  0  0  0  0
    1.9883    4.0102   -1.2928 H   0  0  0  0  0  0  0  0  0  0  0  0
    2.5346    2.4141   -0.8260 H   0  0  0  0  0  0  0  0  0  0  0  0
   -2.0890    0.0191    1.1547 N   0  0  0  0  0  0  0  0  0  0  0  0
   -3.2896   -0.8357    1.2756 C   0  0  2  0  0  0  0  0  0  0  0  0
   -3.5482   -1.4328    2.6790 C   0  0  0  0  0  0  0  0  0  0  0  0
   -4.6794   -1.3934    3.1455 O   0  0  0  0  0  0  0  0  0  0  0  0
   -3.2849   -1.9371    0.2046 C   0  0  0  0  0  0  0  0  0  0  0  0
   -2.2368    0.9682    0.8255 H   0  0  0  0  0  0  0  0  0  0  0  0
   -4.1514   -0.1935    1.0660 H   0  0  0  0  0  0  0  0  0  0  0  0
   -2.5189   -2.6896    0.4130 H   0  0  0  0  0  0  0  0  0  0  0  0
   -4.2569   -2.4396    0.1803 H   0  0  0  0  0  0  0  0  0  0  0  0
   -3.0921   -1.5085   -0.7839 H   0  0  0  0  0  0  0  0  0  0  0  0
   -2.5409   -2.0286    3.4104 N   0  0  0  0  0  0  0  0  0  0  0  0
   -2.7348   -2.6565    4.7094 C   0  0  0  0  0  0  0  0  0  0  0  0
   -1.6258   -2.0830    2.9542 H   0  0  0  0  0  0  0  0  0  0  0  0
   -3.4407   -3.4897    4.6299 H   0  0  0  0  0  0  0  0  0  0  0  0
   -1.7832   -3.0426    5.0870 H   0  0  0  0  0  0  0  0  0  0  0  0
   -3.1243   -1.9310    5.4311 H   0  0  0  0  0  0  0  0  0  0  0  0
  1  2  2  0  0  0  0
  1  3  1  0  0  0  0
  1  7  1  0  0  0  0
  3  4  1  0  0  0  0
  3  5  1  0  0  0  0
  3  6  1  0  0  0  0
  7  8  1  0  0  0  0
  7 12  1  0  0  0  0
  8  9  1  0  0  0  0
  8 11  1  0  0  0  0
  8 13  1  0  0  0  0
  9 10  2  0  0  0  0
  9 17  1  0  0  0  0
 11 14  1  0  0  0  0
 11 15  1  0  0  0  0
 11 16  1  0  0  0  0
 17 18  1  0  0  0  0
 17 25  1  0  0  0  0
 18 19  1  0  0  0  0
 18 21  1  0  0  0  0
 18 26  1  0  0  0  0
 19 20  2  0  0  0  0
 19 36  1  0  0  0  0
 21 22  1  0  0  0  0
 21 27  1  0  0  0  0
 21 28  1  0  0  0  0
 22 23  1  0  0  0  0
 22 24  1  0  0  0  0
 22 29  1  0  0  0  0
 23 30  1  0  0  0  0
 23 31  1  0  0  0  0
 23 32  1  0  0  0  0
 24 33  1  0  0  0  0
 24 34  1  0  0  0  0
 24 35  1  0  0  0  0
 36 37  1  0  0  0  0
 36 41  1  0  0  0  0
 37 38  1  0  0  0  0
 37 40  1  0  0  0  0
 37 42  1  0  0  0  0
 38 39  2  0  0  0  0
 38 46  1  0  0  0  0
 40 43  1  0  0  0  0
 40 44  1  0  0  0  0
 40 45  1  0  0  0  0
 46 47  1  0  0  0  0
 46 48  1  0  0  0  0
 47 49  1  0  0  0  0
 47 50  1  0  0  0  0
 47 51  1  0  0  0  0
M  END
$$$$

  -OEChem-05262216553D

 51 50  0     1  0  0  0  0  0999 V2000
    0.4690   -2.3971   -2.6687 C   0  0  0  0  0  0  0  0  0  0  0  0
   -0.3361   -1.4770   -2.6762 O   0  0  0  0  0  0  0  0  0  0  0  0
   -0.0319   -3.8258   -2.7641 C   0  0  0  0  0  0  0  0  0  0  0  0
    0.1823   -4.3584   -1.8339 H   0  0  0  0  0  0  0  0  0  0  0  0
   -1.1122   -3.8366   -2.9344 H   0  0  0  0  0  0  0  0  0  0  0  0
    0.4591   -4.3413   -3.5930 H   0  0  0  0  0  0  0  0  0  0  0  0
    1.8238   -2.1630   -2.5098 N   0  0  0  0  0  0  0  0  0  0  0  0
    2.4886   -0.8575   -2.3008 C   0  0  2  0  0  0  0  0  0  0  0  0
    2.1427   -0.1863   -0.9525 C   0  0  0  0  0  0  0  0  0  0  0  0
    3.0333    0.0470   -0.1471 O   0  0  0  0  0  0  0  0  0  0  0  0
    2.2313    0.0958   -3.4765 C   0  0  0  0  0  0  0  0  0  0  0  0
    2.4030   -2.9941   -2.4239 H   0  0  0  0  0  0  0  0  0  0  0  0
    3.5670   -1.0467   -2.2771 H   0  0  0  0  0  0  0  0  0  0  0  0
    1.1863    0.4167   -3.5104 H   0  0  0  0  0  0  0  0  0  0  0  0
    2.8578    0.9879   -3.3781 H   0  0  0  0  0  0  0  0  0  0  0  0
    2.4753   -0.3948   -4.4236 H   0  0  0  0  0  0  0  0  0  0  0  0
    0.8229    0.0111   -0.6018 N   0  0  0  0  0  0  0  0  0  0  0  0
    0.3230    0.5027    0.6889 C   0  0  2  0  0  0  0  0  0  0  0  0
   -0.8590   -0.4129    1.0856 C   0  0  0  0  0  0  0  0  0  0  0  0
   -0.6300   -1.4474    1.6984 O   0  0  0  0  0  0  0  0  0  0  0  0
   -0.1697    1.9794    0.6873 C   0  0  0  0  0  0  0  0  0  0  0  0
    0.8323    3.1380    0.4532 C   0  0  0  0  0  0  0  0  0  0  0  0
    0.0207    4.4407    0.3660 C   0  0  0  0  0  0  0  0  0  0  0  0
    1.6489    3.0460   -0.8439 C   0  0  0  0  0  0  0  0  0  0  0  0
    0.1446   -0.3397   -1.2840 H   0  0  0  0  0  0  0  0  0  0  0  0
    1.0984    0.3976    1.4562 H   0  0  0  0  0  0  0  0  0  0  0  0
   -0.6550    2.1640    1.6523 H   0  0  0  0  0  0  0  0  0  0  0  0
   -0.9364    2.0673   -0.0890 H   0  0  0  0  0  0  0  0  0  0  0  0
    1.5225    3.1950    1.3020 H   0  0  0  0  0  0  0  0  0  0  0  0
   -0.6362    4.4346   -0.5098 H   0  0  0  0  0  0  0  0  0  0  0  0
    0.6886    5.3049    0.2934 H   0  0  0  0  0  0  0  0  0  0  0  0
   -0.5958    4.5671    1.2615 H   0  0  0  0  0  0  0  0  0  0  0  0
    1.0460    2.6321   -1.6578 H   0  0  0  0  0  0  0  0  0  0  0  0
    2.0067    4.0337   -1.1512 H   0  0  0  0  0  0  0  0  0  0  0  0
    2.5326    2.4271   -0.6945 H   0  0  0  0  0  0  0  0  0  0  0  0
   -2.1608   -0.1192    0.7041 N   0  0  0  0  0  0  0  0  0  0  0  0
   -3.3412   -1.0039    0.7971 C   0  0  2  0  0  0  0  0  0  0  0  0
   -3.8435   -1.2930    2.2310 C   0  0  0  0  0  0  0  0  0  0  0  0
   -5.0374   -1.1845    2.4793 O   0  0  0  0  0  0  0  0  0  0  0  0
   -3.1095   -2.3097    0.0230 C   0  0  0  0  0  0  0  0  0  0  0  0
   -2.2670    0.7269    0.1528 H   0  0  0  0  0  0  0  0  0  0  0  0
   -4.1630   -0.4816    0.2965 H   0  0  0  0  0  0  0  0  0  0  0  0
   -2.3632   -2.9380    0.5175 H   0  0  0  0  0  0  0  0  0  0  0  0
   -4.0432   -2.8772   -0.0408 H   0  0  0  0  0  0  0  0  0  0  0  0
   -2.7652   -2.0937   -0.9931 H   0  0  0  0  0  0  0  0  0  0  0  0
   -2.9815   -1.6864    3.2345 N   0  0  0  0  0  0  0  0  0  0  0  0
   -3.3961   -2.0009    4.5942 C   0  0  0  0  0  0  0  0  0  0  0  0
   -1.9970   -1.7846    2.9706 H   0  0  0  0  0  0  0  0  0  0  0  0
   -4.1342   -2.8096    4.5922 H   0  0  0  0  0  0  0  0  0  0  0  0
   -2.5334   -2.3215    5.1860 H   0  0  0  0  0  0  0  0  0  0  0  0
   -3.8374   -1.1206    5.0726 H   0  0  0  0  0  0  0  0  0  0  0  0
  1  2  2  0  0  0  0
  1  3  1  0  0  0  0
  1  7  1  0  0  0  0
  3  4  1  0  0  0  0
  3  5  1  0  0  0  0
  3  6  1  0  0  0  0
  7  8  1  0  0  0  0
  7 12  1  0  0  0  0
  8  9  1  0  0  0  0
  8 11  1  0  0  0  0
  8 13  1  0  0  0  0
  9 10  2  0  0  0  0
  9 17  1  0  0  0  0
 11 14  1  0  0  0  0
 11 15  1  0  0  0  0
 11 16  1  0  0  0  0
 17 18  1  0  0  0  0
 17 25  1  0  0  0  0
 18 19  1  0  0  0  0
 18 21  1  0  0  0  0
 18 26  1  0  0  0  0
 19 20  2  0  0  0  0
 19 36  1  0  0  0  0
 21 22  1  0  0  0  0
 21 27  1  0  0  0  0
 21 28  1  0  0  0  0
 22 23  1  0  0  0  0
 22 24  1  0  0  0  0
 22 29  1  0  0  0  0
 23 30  1  0  0  0  0
 23 31  1  0  0  0  0
 23 32  1  0  0  0  0
 24 33  1  0  0  0  0
 24 34  1  0  0  0  0
 24 35  1  0  0  0  0
 36 37  1  0  0  0  0
 36 41  1  0  0  0  0
 37 38  1  0  0  0  0
 37 40  1  0  0  0  0
 37 42  1  0  0  0  0
 38 39  2  0  0  0  0
 38 46  1  0  0  0  0
 40 43  1  0  0  0  0
 40 44  1  0  0  0  0
 40 45  1  0  0  0  0
 46 47  1  0  0  0  0
 46 48  1  0  0  0  0
 47 49  1  0  0  0  0
 47 50  1  0  0  0  0
 47 51  1  0  0  0  0
M  END
$$$$

  -OEChem-05262216553D

 51 50  0     1  0  0  0  0  0999 V2000
    0.4759   -2.3139   -2.8349 C   0  0  0  0  0  0  0  0  0  0  0  0
   -0.3146   -1.3829   -2.7736 O   0  0  0  0  0  0  0  0  0  0  0  0
   -0.0446   -3.7165   -3.0847 C   0  0  0  0  0  0  0  0  0  0  0  0
    0.0815   -4.3264   -2.1863 H   0  0  0  0  0  0  0  0  0  0  0  0
   -1.1070   -3.6852   -3.3431 H   0  0  0  0  0  0  0  0  0  0  0  0
    0.5025   -4.1776   -3.9105 H   0  0  0  0  0  0  0  0  0  0  0  0
    1.8290   -2.1225   -2.6165 N   0  0  0  0  0  0  0  0  0  0  0  0
    2.5194   -0.8493   -2.3117 C   0  0  2  0  0  0  0  0  0  0  0  0
    2.1564   -0.2406   -0.9386 C   0  0  0  0  0  0  0  0  0  0  0  0
    3.0387   -0.0117   -0.1234 O   0  0  0  0  0  0  0  0  0  0  0  0
    2.3160    0.1750   -3.4371 C   0  0  0  0  0  0  0  0  0  0  0  0
    2.3950   -2.9672   -2.6088 H   0  0  0  0  0  0  0  0  0  0  0  0
    3.5915   -1.0679   -2.2704 H   0  0  0  0  0  0  0  0  0  0  0  0
    1.2787    0.5195   -3.4810 H   0  0  0  0  0  0  0  0  0  0  0  0
    2.9571    1.0465   -3.2702 H   0  0  0  0  0  0  0  0  0  0  0  0
    2.5775   -0.2660   -4.4037 H   0  0  0  0  0  0  0  0  0  0  0  0
    0.8330   -0.0563   -0.5959 N   0  0  0  0  0  0  0  0  0  0  0  0
    0.3140    0.4543    0.6806 C   0  0  2  0  0  0  0  0  0  0  0  0
   -0.8547   -0.4670    1.0927 C   0  0  0  0  0  0  0  0  0  0  0  0
   -0.6918   -1.2924    1.9812 O   0  0  0  0  0  0  0  0  0  0  0  0
   -0.2162    1.9162    0.6446 C   0  0  0  0  0  0  0  0  0  0  0  0
    0.7635    3.0895    0.3882 C   0  0  0  0  0  0  0  0  0  0  0  0
   -0.0699    4.3751    0.2667 C   0  0  0  0  0  0  0  0  0  0  0  0
    1.5908    2.9822   -0.9002 C   0  0  0  0  0  0  0  0  0  0  0  0
    0.1643   -0.3576   -1.3097 H   0  0  0  0  0  0  0  0  0  0  0  0
    1.0874    0.3845    1.4541 H   0  0  0  0  0  0  0  0  0  0  0  0
   -0.7076    2.1099    1.6048 H   0  0  0  0  0  0  0  0  0  0  0  0
   -0.9864    1.9694   -0.1312 H   0  0  0  0  0  0  0  0  0  0  0  0
    1.4471    3.1788    1.2395 H   0  0  0  0  0  0  0  0  0  0  0  0
   -0.7240    4.3350   -0.6105 H   0  0  0  0  0  0  0  0  0  0  0  0
    0.5833    5.2485    0.1732 H   0  0  0  0  0  0  0  0  0  0  0  0
   -0.6908    4.5137    1.1574 H   0  0  0  0  0  0  0  0  0  0  0  0
    0.9934    2.5594   -1.7136 H   0  0  0  0  0  0  0  0  0  0  0  0
    1.9516    3.9663   -1.2154 H   0  0  0  0  0  0  0  0  0  0  0  0
    2.4728    2.3648   -0.7354 H   0  0  0  0  0  0  0  0  0  0  0  0
   -2.0813   -0.3766    0.4505 N   0  0  0  0  0  0  0  0  0  0  0  0
   -3.2231   -1.3076    0.5684 C   0  0  2  0  0  0  0  0  0  0  0  0
   -3.9578   -1.2982    1.9296 C   0  0  0  0  0  0  0  0  0  0  0  0
   -5.1821   -1.2945    1.9473 O   0  0  0  0  0  0  0  0  0  0  0  0
   -2.8063   -2.7340    0.1834 C   0  0  0  0  0  0  0  0  0  0  0  0
   -2.1191    0.2984   -0.3080 H   0  0  0  0  0  0  0  0  0  0  0  0
   -3.9657   -0.9848   -0.1686 H   0  0  0  0  0  0  0  0  0  0  0  0
   -2.1314   -3.1648    0.9288 H   0  0  0  0  0  0  0  0  0  0  0  0
   -3.6905   -3.3754    0.1135 H   0  0  0  0  0  0  0  0  0  0  0  0
   -2.3016   -2.7334   -0.7874 H   0  0  0  0  0  0  0  0  0  0  0  0
   -3.2689   -1.3211    3.1253 N   0  0  0  0  0  0  0  0  0  0  0  0
   -3.9041   -1.3955    4.4330 C   0  0  0  0  0  0  0  0  0  0  0  0
   -2.2503   -1.3978    3.0555 H   0  0  0  0  0  0  0  0  0  0  0  0
   -4.4599   -2.3331    4.5344 H   0  0  0  0  0  0  0  0  0  0  0  0
   -3.1474   -1.3527    5.2222 H   0  0  0  0  0  0  0  0  0  0  0  0
   -4.5950   -0.5577    4.5722 H   0  0  0  0  0  0  0  0  0  0  0  0
  1  2  2  0  0  0  0
  1  3  1  0  0  0  0
  1  7  1  0  0  0  0
  3  4  1  0  0  0  0
  3  5  1  0  0  0  0
  3  6  1  0  0  0  0
  7  8  1  0  0  0  0
  7 12  1  0  0  0  0
  8  9  1  0  0  0  0
  8 11  1  0  0  0  0
  8 13  1  0  0  0  0
  9 10  2  0  0  0  0
  9 17  1  0  0  0  0
 11 14  1  0  0  0  0
 11 15  1  0  0  0  0
 11 16  1  0  0  0  0
 17 18  1  0  0  0  0
 17 25  1  0  0  0  0
 18 19  1  0  0  0  0
 18 21  1  0  0  0  0
 18 26  1  0  0  0  0
 19 20  2  0  0  0  0
 19 36  1  0  0  0  0
 21 22  1  0  0  0  0
 21 27  1  0  0  0  0
 21 28  1  0  0  0  0
 22 23  1  0  0  0  0
 22 24  1  0  0  0  0
 22 29  1  0  0  0  0
 23 30  1  0  0  0  0
 23 31  1  0  0  0  0
 23 32  1  0  0  0  0
 24 33  1  0  0  0  0
 24 34  1  0  0  0  0
 24 35  1  0  0  0  0
 36 37  1  0  0  0  0
 36 41  1  0  0  0  0
 37 38  1  0  0  0  0
 37 40  1  0  0  0  0
 37 42  1  0  0  0  0
 38 39  2  0  0  0  0
 38 46  1  0  0  0  0
 40 43  1  0  0  0  0
 40 44  1  0  0  0  0
 40 45  1  0  0  0  0
 46 47  1  0  0  0  0
 46 48  1  0  0  0  0
 47 49  1  0  0  0  0
 47 50  1  0  0  0  0
 47 51  1  0  0  0  0
M  END
$$$$

  -OEChem-05262216553D

 51 50  0     1  0  0  0  0  0999 V2000
    0.5148   -2.3055   -2.9305 C   0  0  0  0  0  0  0  0  0  0  0  0
   -0.2969   -1.3988   -2.8055 O   0  0  0  0  0  0  0  0  0  0  0  0
    0.0247   -3.7020   -3.2635 C   0  0  0  0  0  0  0  0  0  0  0  0
    0.2663   -4.3876   -2.4473 H   0  0  0  0  0  0  0  0  0  0  0  0
   -1.0593   -3.6982   -3.4097 H   0  0  0  0  0  0  0  0  0  0  0  0
    0.5006   -4.0565   -4.1812 H   0  0  0  0  0  0  0  0  0  0  0  0
    1.8666   -2.0957   -2.7170 N   0  0  0  0  0  0  0  0  0  0  0  0
    2.5392   -0.8219   -2.3740 C   0  0  2  0  0  0  0  0  0  0  0  0
    2.1767   -0.2582   -0.9814 C   0  0  0  0  0  0  0  0  0  0  0  0
    3.0575   -0.0437   -0.1613 O   0  0  0  0  0  0  0  0  0  0  0  0
    2.3110    0.2312   -3.4670 C   0  0  0  0  0  0  0  0  0  0  0  0
    2.4535   -2.9237   -2.7809 H   0  0  0  0  0  0  0  0  0  0  0  0
    3.6152   -1.0239   -2.3459 H   0  0  0  0  0  0  0  0  0  0  0  0
    1.2662    0.5532   -3.4985 H   0  0  0  0  0  0  0  0  0  0  0  0
    2.9331    1.1111   -3.2746 H   0  0  0  0  0  0  0  0  0  0  0  0
    2.5801   -0.1742   -4.4470 H   0  0  0  0  0  0  0  0  0  0  0  0
    0.8525   -0.0950   -0.6342 N   0  0  0  0  0  0  0  0  0  0  0  0
    0.3243    0.3752    0.6545 C   0  0  2  0  0  0  0  0  0  0  0  0
   -0.8373   -0.5600    1.0482 C   0  0  0  0  0  0  0  0  0  0  0  0
   -0.7968   -1.1690    2.1086 O   0  0  0  0  0  0  0  0  0  0  0  0
   -0.2466    1.8202    0.6490 C   0  0  0  0  0  0  0  0  0  0  0  0
    0.7004    3.0232    0.4121 C   0  0  0  0  0  0  0  0  0  0  0  0
   -0.1673    4.2880    0.3177 C   0  0  0  0  0  0  0  0  0  0  0  0
    1.5287    2.9603   -0.8781 C   0  0  0  0  0  0  0  0  0  0  0  0
    0.1907   -0.3814   -1.3589 H   0  0  0  0  0  0  0  0  0  0  0  0
    1.0989    0.3040    1.4269 H   0  0  0  0  0  0  0  0  0  0  0  0
   -0.7364    1.9817    1.6161 H   0  0  0  0  0  0  0  0  0  0  0  0
   -1.0264    1.8638   -0.1185 H   0  0  0  0  0  0  0  0  0  0  0  0
    1.3829    3.1145    1.2640 H   0  0  0  0  0  0  0  0  0  0  0  0
   -0.8212    4.2471   -0.5596 H   0  0  0  0  0  0  0  0  0  0  0  0
    0.4618    5.1807    0.2411 H   0  0  0  0  0  0  0  0  0  0  0  0
   -0.7911    4.3913    1.2111 H   0  0  0  0  0  0  0  0  0  0  0  0
    0.9358    2.5520   -1.7022 H   0  0  0  0  0  0  0  0  0  0  0  0
    1.8762    3.9573   -1.1664 H   0  0  0  0  0  0  0  0  0  0  0  0
    2.4183    2.3491   -0.7300 H   0  0  0  0  0  0  0  0  0  0  0  0
   -1.9431   -0.6769    0.2176 N   0  0  0  0  0  0  0  0  0  0  0  0
   -3.0787   -1.6102    0.3638 C   0  0  2  0  0  0  0  0  0  0  0  0
   -4.0145   -1.3400    1.5656 C   0  0  0  0  0  0  0  0  0  0  0  0
   -5.2266   -1.3471    1.3934 O   0  0  0  0  0  0  0  0  0  0  0  0
   -2.5906   -3.0649    0.3678 C   0  0  0  0  0  0  0  0  0  0  0  0
   -1.8789   -0.1693   -0.6611 H   0  0  0  0  0  0  0  0  0  0  0  0
   -3.7007   -1.4864   -0.5287 H   0  0  0  0  0  0  0  0  0  0  0  0
   -2.0295   -3.2917    1.2791 H   0  0  0  0  0  0  0  0  0  0  0  0
   -3.4455   -3.7466    0.3155 H   0  0  0  0  0  0  0  0  0  0  0  0
   -1.9453   -3.2514   -0.4959 H   0  0  0  0  0  0  0  0  0  0  0  0
   -3.5174   -1.1169    2.8337 N   0  0  0  0  0  0  0  0  0  0  0  0
   -4.3435   -0.9113    4.0149 C   0  0  0  0  0  0  0  0  0  0  0  0
   -2.4994   -1.1640    2.9327 H   0  0  0  0  0  0  0  0  0  0  0  0
   -4.9734   -1.7876    4.1986 H   0  0  0  0  0  0  0  0  0  0  0  0
   -3.7102   -0.7497    4.8925 H   0  0  0  0  0  0  0  0  0  0  0  0
   -4.9862   -0.0343    3.8857 H   0  0  0  0  0  0  0  0  0  0  0  0
  1  2  2  0  0  0  0
  1  3  1  0  0  0  0
  1  7  1  0  0  0  0
  3  4  1  0  0  0  0
  3  5  1  0  0  0  0
  3  6  1  0  0  0  0
  7  8  1  0  0  0  0
  7 12  1  0  0  0  0
  8  9  1  0  0  0  0
  8 11  1  0  0  0  0
  8 13  1  0  0  0  0
  9 10  2  0  0  0  0
  9 17  1  0  0  0  0
 11 14  1  0  0  0  0
 11 15  1  0  0  0  0
 11 16  1  0  0  0  0
 17 18  1  0  0  0  0
 17 25  1  0  0  0  0
 18 19  1  0  0  0  0
 18 21  1  0  0  0  0
 18 26  1  0  0  0  0
 19 20  2  0  0  0  0
 19 36  1  0  0  0  0
 21 22  1  0  0  0  0
 21 27  1  0  0  0  0
 21 28  1  0  0  0  0
 22 23  1  0  0  0  0
 22 24  1  0  0  0  0
 22 29  1  0  0  0  0
 23 30  1  0  0  0  0
 23 31  1  0  0  0  0
 23 32  1  0  0  0  0
 24 33  1  0  0  0  0
 24 34  1  0  0  0  0
 24 35  1  0  0  0  0
 36 37  1  0  0  0  0
 36 41  1  0  0  0  0
 37 38  1  0  0  0  0
 37 40  1  0  0  0  0
 37 42  1  0  0  0  0
 38 39  2  0  0  0  0
 38 46  1  0  0  0  0
 40 43  1  0  0  0  0
 40 44  1  0  0  0  0
 40 45  1  0  0  0  0
 46 47  1  0  0  0  0
 46 48  1  0  0  0  0
 47 49  1  0  0  0  0
 47 50  1  0  0  0  0
 47 51  1  0  0  0  0
M  END
$$$$

  -OEChem-05262216553D

 51 50  0     1  0  0  0  0  0999 V2000
    0.6807   -2.2904   -3.0099 C   0  0  0  0  0  0  0  0  0  0  0  0
   -0.1735   -1.4382   -2.8020 O   0  0  0  0  0  0  0  0  0  0  0  0
    0.2570   -3.6630   -3.4974 C   0  0  0  0  0  0  0  0  0  0  0  0
    0.5008   -4.4184   -2.7461 H   0  0  0  0  0  0  0  0  0  0  0  0
   -0.8213   -3.6848   -3.6804 H   0  0  0  0  0  0  0  0  0  0  0  0
    0.7748   -3.9053   -4.4288 H   0  0  0  0  0  0  0  0  0  0  0  0
    2.0219   -2.0479   -2.7626 N   0  0  0  0  0  0  0  0  0  0  0  0
    2.6482   -0.7817   -2.3179 C   0  0  2  0  0  0  0  0  0  0  0  0
    2.2435   -0.3220   -0.8982 C   0  0  0  0  0  0  0  0  0  0  0  0
    3.0954   -0.1396   -0.0411 O   0  0  0  0  0  0  0  0  0  0  0  0
    2.4012    0.3294   -3.3475 C   0  0  0  0  0  0  0  0  0  0  0  0
    2.6442   -2.8361   -2.9223 H   0  0  0  0  0  0  0  0  0  0  0  0
    3.7296   -0.9509   -2.2809 H   0  0  0  0  0  0  0  0  0  0  0  0
    1.3436    0.6052   -3.3895 H   0  0  0  0  0  0  0  0  0  0  0  0
    2.9772    1.2215   -3.0821 H   0  0  0  0  0  0  0  0  0  0  0  0
    2.7137    0.0010   -4.3433 H   0  0  0  0  0  0  0  0  0  0  0  0
    0.9078   -0.2044   -0.5844 N   0  0  0  0  0  0  0  0  0  0  0  0
    0.3132    0.2200    0.6910 C   0  0  2  0  0  0  0  0  0  0  0  0
   -0.8360   -0.7505    1.0370 C   0  0  0  0  0  0  0  0  0  0  0  0
   -1.0264   -1.0698    2.2033 O   0  0  0  0  0  0  0  0  0  0  0  0
   -0.3111    1.6414    0.6802 C   0  0  0  0  0  0  0  0  0  0  0  0
    0.5986    2.8821    0.4970 C   0  0  0  0  0  0  0  0  0  0  0  0
   -0.3101    4.1159    0.3821 C   0  0  0  0  0  0  0  0  0  0  0  0
    1.4883    2.8668   -0.7517 C   0  0  0  0  0  0  0  0  0  0  0  0
    0.2832   -0.4114   -1.3649 H   0  0  0  0  0  0  0  0  0  0  0  0
    1.0614    0.1644    1.4900 H   0  0  0  0  0  0  0  0  0  0  0  0
   -0.8440    1.7736    1.6288 H   0  0  0  0  0  0  0  0  0  0  0  0
   -1.0634    1.6606   -0.1158 H   0  0  0  0  0  0  0  0  0  0  0  0
    1.2384    2.9866    1.3802 H   0  0  0  0  0  0  0  0  0  0  0  0
   -0.9252    4.0636   -0.5221 H   0  0  0  0  0  0  0  0  0  0  0  0
    0.2887    5.0314    0.3426 H   0  0  0  0  0  0  0  0  0  0  0  0
   -0.9735    4.1842    1.2499 H   0  0  0  0  0  0  0  0  0  0  0  0
    0.9438    2.4661   -1.6118 H   0  0  0  0  0  0  0  0  0  0  0  0
    1.8271    3.8775   -1.0002 H   0  0  0  0  0  0  0  0  0  0  0  0
    2.3826    2.2704   -0.5732 H   0  0  0  0  0  0  0  0  0  0  0  0
   -1.7455   -1.1276    0.0570 N   0  0  0  0  0  0  0  0  0  0  0  0
   -2.9135   -2.0179    0.2132 C   0  0  2  0  0  0  0  0  0  0  0  0
   -4.0726   -1.4347    1.0541 C   0  0  0  0  0  0  0  0  0  0  0  0
   -5.2188   -1.5142    0.6313 O   0  0  0  0  0  0  0  0  0  0  0  0
   -2.4919   -3.3962    0.7405 C   0  0  0  0  0  0  0  0  0  0  0  0
   -1.5107   -0.8445   -0.8928 H   0  0  0  0  0  0  0  0  0  0  0  0
   -3.3231   -2.1739   -0.7900 H   0  0  0  0  0  0  0  0  0  0  0  0
   -2.1685   -3.3403    1.7841 H   0  0  0  0  0  0  0  0  0  0  0  0
   -3.3345   -4.0924    0.6826 H   0  0  0  0  0  0  0  0  0  0  0  0
   -1.6693   -3.7975    0.1411 H   0  0  0  0  0  0  0  0  0  0  0  0
   -3.8466   -0.8341    2.2763 N   0  0  0  0  0  0  0  0  0  0  0  0
   -4.8955   -0.2940    3.1294 C   0  0  0  0  0  0  0  0  0  0  0  0
   -2.8771   -0.8332    2.6054 H   0  0  0  0  0  0  0  0  0  0  0  0
   -5.6041   -1.0801    3.4103 H   0  0  0  0  0  0  0  0  0  0  0  0
   -4.4609    0.1230    4.0430 H   0  0  0  0  0  0  0  0  0  0  0  0
   -5.4385    0.5020    2.6095 H   0  0  0  0  0  0  0  0  0  0  0  0
  1  2  2  0  0  0  0
  1  3  1  0  0  0  0
  1  7  1  0  0  0  0
  3  4  1  0  0  0  0
  3  5  1  0  0  0  0
  3  6  1  0  0  0  0
  7  8  1  0  0  0  0
  7 12  1  0  0  0  0
  8  9  1  0  0  0  0
  8 11  1  0  0  0  0
  8 13  1  0  0  0  0
  9 10  2  0  0  0  0
  9 17  1  0  0  0  0
 11 14  1  0  0  0  0
 11 15  1  0  0  0  0
 11 16  1  0  0  0  0
 17 18  1  0  0  0  0
 17 25  1  0  0  0  0
 18 19  1  0  0  0  0
 18 21  1  0  0  0  0
 18 26  1  0  0  0  0
 19 20  2  0  0  0  0
 19 36  1  0  0  0  0
 21 22  1  0  0  0  0
 21 27  1  0  0  0  0
 21 28  1  0  0  0  0
 22 23  1  0  0  0  0
 22 24  1  0  0  0  0
 22 29  1  0  0  0  0
 23 30  1  0  0  0  0
 23 31  1  0  0  0  0
 23 32  1  0  0  0  0
 24 33  1  0  0  0  0
 24 34  1  0  0  0  0
 24 35  1  0  0  0  0
 36 37  1  0  0  0  0
 36 41  1  0  0  0  0
 37 38  1  0  0  0  0
 37 40  1  0  0  0  0
 37 42  1  0  0  0  0
 38 39  2  0  0  0  0
 38 46  1  0  0  0  0
 40 43  1  0  0  0  0
 40 44  1  0  0  0  0
 40 45  1  0  0  0  0
 46 47  1  0  0  0  0
 46 48  1  0  0  0  0
 47 49  1  0  0  0  0
 47 50  1  0  0  0  0
 47 51  1  0  0  0  0
M  END
$$$$

  -OEChem-05262216553D

 51 50  0     1  0  0  0  0  0999 V2000
    0.7277   -2.3469   -3.0049 C   0  0  0  0  0  0  0  0  0  0  0  0
   -0.1640   -1.5478   -2.7477 O   0  0  0  0  0  0  0  0  0  0  0  0
    0.3598   -3.7290   -3.5110 C   0  0  0  0  0  0  0  0  0  0  0  0
    0.6330   -4.4841   -2.7695 H   0  0  0  0  0  0  0  0  0  0  0  0
   -0.7167   -3.7905   -3.6953 H   0  0  0  0  0  0  0  0  0  0  0  0
    0.8861   -3.9391   -4.4455 H   0  0  0  0  0  0  0  0  0  0  0  0
    2.0614   -2.0374   -2.7941 N   0  0  0  0  0  0  0  0  0  0  0  0
    2.6331   -0.7470   -2.3446 C   0  0  2  0  0  0  0  0  0  0  0  0
    2.2303   -0.3245   -0.9130 C   0  0  0  0  0  0  0  0  0  0  0  0
    3.0791   -0.1923   -0.0437 O   0  0  0  0  0  0  0  0  0  0  0  0
    2.3122    0.3608   -3.3577 C   0  0  0  0  0  0  0  0  0  0  0  0
    2.7193   -2.7883   -2.9876 H   0  0  0  0  0  0  0  0  0  0  0  0
    3.7221   -0.8624   -2.3272 H   0  0  0  0  0  0  0  0  0  0  0  0
    1.2404    0.5786   -3.3837 H   0  0  0  0  0  0  0  0  0  0  0  0
    2.8419    1.2803   -3.0891 H   0  0  0  0  0  0  0  0  0  0  0  0
    2.6295    0.0616   -4.3611 H   0  0  0  0  0  0  0  0  0  0  0  0
    0.8945   -0.2096   -0.5996 N   0  0  0  0  0  0  0  0  0  0  0  0
    0.2988    0.1730    0.6888 C   0  0  2  0  0  0  0  0  0  0  0  0
   -0.8619   -0.7956    1.0124 C   0  0  0  0  0  0  0  0  0  0  0  0
   -1.2162   -0.9368    2.1760 O   0  0  0  0  0  0  0  0  0  0  0  0
   -0.3155    1.5990    0.7108 C   0  0  0  0  0  0  0  0  0  0  0  0
    0.6016    2.8395    0.5652 C   0  0  0  0  0  0  0  0  0  0  0  0
   -0.3016    4.0788    0.4770 C   0  0  0  0  0  0  0  0  0  0  0  0
    1.5005    2.8542   -0.6768 C   0  0  0  0  0  0  0  0  0  0  0  0
    0.2720   -0.3606   -1.3945 H   0  0  0  0  0  0  0  0  0  0  0  0
    1.0451    0.0909    1.4869 H   0  0  0  0  0  0  0  0  0  0  0  0
   -0.8524    1.7131    1.6593 H   0  0  0  0  0  0  0  0  0  0  0  0
   -1.0644    1.6404   -0.0875 H   0  0  0  0  0  0  0  0  0  0  0  0
    1.2357    2.9181    1.4551 H   0  0  0  0  0  0  0  0  0  0  0  0
   -0.9106    4.0521   -0.4324 H   0  0  0  0  0  0  0  0  0  0  0  0
    0.3003    4.9929    0.4656 H   0  0  0  0  0  0  0  0  0  0  0  0
   -0.9705    4.1264    1.3420 H   0  0  0  0  0  0  0  0  0  0  0  0
    0.9614    2.4773   -1.5510 H   0  0  0  0  0  0  0  0  0  0  0  0
    1.8435    3.8701   -0.8964 H   0  0  0  0  0  0  0  0  0  0  0  0
    2.3922    2.2510   -0.5064 H   0  0  0  0  0  0  0  0  0  0  0  0
   -1.5982   -1.3872   -0.0075 N   0  0  0  0  0  0  0  0  0  0  0  0
   -2.7365   -2.3182    0.1327 C   0  0  2  0  0  0  0  0  0  0  0  0
   -4.0355   -1.6876    0.6854 C   0  0  0  0  0  0  0  0  0  0  0  0
   -5.1044   -1.9475    0.1476 O   0  0  0  0  0  0  0  0  0  0  0  0
   -2.3405   -3.5590    0.9447 C   0  0  0  0  0  0  0  0  0  0  0  0
   -1.2358   -1.2522   -0.9517 H   0  0  0  0  0  0  0  0  0  0  0  0
   -2.9814   -2.6644   -0.8766 H   0  0  0  0  0  0  0  0  0  0  0  0
   -2.1812   -3.3106    1.9981 H   0  0  0  0  0  0  0  0  0  0  0  0
   -3.1341   -4.3109    0.8897 H   0  0  0  0  0  0  0  0  0  0  0  0
   -1.4203   -3.9960    0.5460 H   0  0  0  0  0  0  0  0  0  0  0  0
   -4.0200   -0.8492    1.7819 N   0  0  0  0  0  0  0  0  0  0  0  0
   -5.2129   -0.2768    2.3897 C   0  0  0  0  0  0  0  0  0  0  0  0
   -3.1124   -0.7283    2.2399 H   0  0  0  0  0  0  0  0  0  0  0  0
   -5.8649   -1.0693    2.7710 H   0  0  0  0  0  0  0  0  0  0  0  0
   -4.9348    0.3760    3.2227 H   0  0  0  0  0  0  0  0  0  0  0  0
   -5.7693    0.3168    1.6569 H   0  0  0  0  0  0  0  0  0  0  0  0
  1  2  2  0  0  0  0
  1  3  1  0  0  0  0
  1  7  1  0  0  0  0
  3  4  1  0  0  0  0
  3  5  1  0  0  0  0
  3  6  1  0  0  0  0
  7  8  1  0  0  0  0
  7 12  1  0  0  0  0
  8  9  1  0  0  0  0
  8 11  1  0  0  0  0
  8 13  1  0  0  0  0
  9 10  2  0  0  0  0
  9 17  1  0  0  0  0
 11 14  1  0  0  0  0
 11 15  1  0  0  0  0
 11 16  1  0  0  0  0
 17 18  1  0  0  0  0
 17 25  1  0  0  0  0
 18 19  1  0  0  0  0
 18 21  1  0  0  0  0
 18 26  1  0  0  0  0
 19 20  2  0  0  0  0
 19 36  1  0  0  0  0
 21 22  1  0  0  0  0
 21 27  1  0  0  0  0
 21 28  1  0  0  0  0
 22 23  1  0  0  0  0
 22 24  1  0  0  0  0
 22 29  1  0  0  0  0
 23 30  1  0  0  0  0
 23 31  1  0  0  0  0
 23 32  1  0  0  0  0
 24 33  1  0  0  0  0
 24 34  1  0  0  0  0
 24 35  1  0  0  0  0
 36 37  1  0  0  0  0
 36 41  1  0  0  0  0
 37 38  1  0  0  0  0
 37 40  1  0  0  0  0
 37 42  1  0  0  0  0
 38 39  2  0  0  0  0
 38 46  1  0  0  0  0
 40 43  1  0  0  0  0
 40 44  1  0  0  0  0
 40 45  1  0  0  0  0
 46 47  1  0  0  0  0
 46 48  1  0  0  0  0
 47 49  1  0  0  0  0
 47 50  1  0  0  0  0
 47 51  1  0  0  0  0
M  END
$$$$

  -OEChem-05262216553D

 51 50  0     1  0  0  0  0  0999 V2000
    0.7658   -2.4664   -3.0109 C   0  0  0  0  0  0  0  0  0  0  0  0
   -0.1798   -1.7496   -2.7094 O   0  0  0  0  0  0  0  0  0  0  0  0
    0.5066   -3.9004   -3.4316 C   0  0  0  0  0  0  0  0  0  0  0  0
    0.9536   -4.5884   -2.7096 H   0  0  0  0  0  0  0  0  0  0  0  0
   -0.5693   -4.0921   -3.4806 H   0  0  0  0  0  0  0  0  0  0  0  0
    0.9398   -4.0854   -4.4177 H   0  0  0  0  0  0  0  0  0  0  0  0
    2.0704   -2.0129   -2.9183 N   0  0  0  0  0  0  0  0  0  0  0  0
    2.5260   -0.6610   -2.5261 C   0  0  2  0  0  0  0  0  0  0  0  0
    2.1661   -0.2609   -1.0767 C   0  0  0  0  0  0  0  0  0  0  0  0
    3.0468   -0.1408   -0.2377 O   0  0  0  0  0  0  0  0  0  0  0  0
    2.0309    0.3863   -3.5334 C   0  0  0  0  0  0  0  0  0  0  0  0
    2.7902   -2.6984   -3.1328 H   0  0  0  0  0  0  0  0  0  0  0  0
    3.6200   -0.6602   -2.5749 H   0  0  0  0  0  0  0  0  0  0  0  0
    0.9422    0.4877   -3.5022 H   0  0  0  0  0  0  0  0  0  0  0  0
    2.4726    1.3620   -3.3078 H   0  0  0  0  0  0  0  0  0  0  0  0
    2.3234    0.1029   -4.5490 H   0  0  0  0  0  0  0  0  0  0  0  0
    0.8417   -0.1728   -0.7028 N   0  0  0  0  0  0  0  0  0  0  0  0
    0.3123    0.1636    0.6290 C   0  0  2  0  0  0  0  0  0  0  0  0
   -0.8259   -0.8217    0.9975 C   0  0  0  0  0  0  0  0  0  0  0  0
   -1.2627   -0.8369    2.1418 O   0  0  0  0  0  0  0  0  0  0  0  0
   -0.3093    1.5870    0.7085 C   0  0  0  0  0  0  0  0  0  0  0  0
    0.5860    2.8415    0.5426 C   0  0  0  0  0  0  0  0  0  0  0  0
   -0.3370    4.0701    0.5246 C   0  0  0  0  0  0  0  0  0  0  0  0
    1.4188    2.8974   -0.7439 C   0  0  0  0  0  0  0  0  0  0  0  0
    0.1797   -0.3376   -1.4630 H   0  0  0  0  0  0  0  0  0  0  0  0
    1.0993    0.0694    1.3852 H   0  0  0  0  0  0  0  0  0  0  0  0
   -0.7972    1.6830    1.6848 H   0  0  0  0  0  0  0  0  0  0  0  0
   -1.0985    1.6350   -0.0496 H   0  0  0  0  0  0  0  0  0  0  0  0
    1.2633    2.9107    1.4006 H   0  0  0  0  0  0  0  0  0  0  0  0
   -0.9922    4.0518   -0.3526 H   0  0  0  0  0  0  0  0  0  0  0  0
    0.2510    4.9930    0.5003 H   0  0  0  0  0  0  0  0  0  0  0  0
   -0.9610    4.0925    1.4236 H   0  0  0  0  0  0  0  0  0  0  0  0
    0.8389    2.5349   -1.5980 H   0  0  0  0  0  0  0  0  0  0  0  0
    1.7375    3.9230   -0.9558 H   0  0  0  0  0  0  0  0  0  0  0  0
    2.3258    2.3032   -0.6361 H   0  0  0  0  0  0  0  0  0  0  0  0
   -1.4182   -1.6264    0.0312 N   0  0  0  0  0  0  0  0  0  0  0  0
   -2.5070   -2.6073    0.2172 C   0  0  2  0  0  0  0  0  0  0  0  0
   -3.8858   -1.9997    0.5630 C   0  0  0  0  0  0  0  0  0  0  0  0
   -4.8833   -2.4001   -0.0234 O   0  0  0  0  0  0  0  0  0  0  0  0
   -2.1159   -3.6857    1.2368 C   0  0  0  0  0  0  0  0  0  0  0  0
   -1.0044   -1.5778   -0.9011 H   0  0  0  0  0  0  0  0  0  0  0  0
   -2.6372   -3.1121   -0.7457 H   0  0  0  0  0  0  0  0  0  0  0  0
   -2.0702   -3.2757    2.2500 H   0  0  0  0  0  0  0  0  0  0  0  0
   -2.8557   -4.4924    1.2299 H   0  0  0  0  0  0  0  0  0  0  0  0
   -1.1387   -4.1091    0.9869 H   0  0  0  0  0  0  0  0  0  0  0  0
   -4.0211   -1.0349    1.5406 N   0  0  0  0  0  0  0  0  0  0  0  0
   -5.2967   -0.4838    1.9734 C   0  0  0  0  0  0  0  0  0  0  0  0
   -3.1668   -0.7902    2.0488 H   0  0  0  0  0  0  0  0  0  0  0  0
   -5.8165   -0.0150    1.1314 H   0  0  0  0  0  0  0  0  0  0  0  0
   -5.9331   -1.2727    2.3874 H   0  0  0  0  0  0  0  0  0  0  0  0
   -5.1360    0.2739    2.7462 H   0  0  0  0  0  0  0  0  0  0  0  0
  1  2  2  0  0  0  0
  1  3  1  0  0  0  0
  1  7  1  0  0  0  0
  3  4  1  0  0  0  0
  3  5  1  0  0  0  0
  3  6  1  0  0  0  0
  7  8  1  0  0  0  0
  7 12  1  0  0  0  0
  8  9  1  0  0  0  0
  8 11  1  0  0  0  0
  8 13  1  0  0  0  0
  9 10  2  0  0  0  0
  9 17  1  0  0  0  0
 11 14  1  0  0  0  0
 11 15  1  0  0  0  0
 11 16  1  0  0  0  0
 17 18  1  0  0  0  0
 17 25  1  0  0  0  0
 18 19  1  0  0  0  0
 18 21  1  0  0  0  0
 18 26  1  0  0  0  0
 19 20  2  0  0  0  0
 19 36  1  0  0  0  0
 21 22  1  0  0  0  0
 21 27  1  0  0  0  0
 21 28  1  0  0  0  0
 22 23  1  0  0  0  0
 22 24  1  0  0  0  0
 22 29  1  0  0  0  0
 23 30  1  0  0  0  0
 23 31  1  0  0  0  0
 23 32  1  0  0  0  0
 24 33  1  0  0  0  0
 24 34  1  0  0  0  0
 24 35  1  0  0  0  0
 36 37  1  0  0  0  0
 36 41  1  0  0  0  0
 37 38  1  0  0  0  0
 37 40  1  0  0  0  0
 37 42  1  0  0  0  0
 38 39  2  0  0  0  0
 38 46  1  0  0  0  0
 40 43  1  0  0  0  0
 40 44  1  0  0  0  0
 40 45  1  0  0  0  0
 46 47  1  0  0  0  0
 46 48  1  0  0  0  0
 47 49  1  0  0  0  0
 47 50  1  0  0  0  0
 47 51  1  0  0  0  0
M  END
$$$$

  -OEChem-05262216553D

 51 50  0     1  0  0  0  0  0999 V2000
    0.8417   -2.5692   -2.9909 C   0  0  0  0  0  0  0  0  0  0  0  0
   -0.1343   -1.9093   -2.6617 O   0  0  0  0  0  0  0  0  0  0  0  0
    0.6563   -4.0141   -3.4137 C   0  0  0  0  0  0  0  0  0  0  0  0
    1.2000   -4.6759   -2.7351 H   0  0  0  0  0  0  0  0  0  0  0  0
   -0.4041   -4.2819   -3.3903 H   0  0  0  0  0  0  0  0  0  0  0  0
    1.0311   -4.1578   -4.4301 H   0  0  0  0  0  0  0  0  0  0  0  0
    2.1161   -2.0345   -2.9296 N   0  0  0  0  0  0  0  0  0  0  0  0
    2.4850   -0.6550   -2.5456 C   0  0  2  0  0  0  0  0  0  0  0  0
    2.1155   -0.2800   -1.0917 C   0  0  0  0  0  0  0  0  0  0  0  0
    2.9937   -0.2024   -0.2449 O   0  0  0  0  0  0  0  0  0  0  0  0
    1.9112    0.3526   -3.5523 C   0  0  0  0  0  0  0  0  0  0  0  0
    2.8746   -2.6721   -3.1581 H   0  0  0  0  0  0  0  0  0  0  0  0
    3.5762   -0.5811   -2.6059 H   0  0  0  0  0  0  0  0  0  0  0  0
    0.8186    0.3838   -3.5090 H   0  0  0  0  0  0  0  0  0  0  0  0
    2.2918    1.3559   -3.3378 H   0  0  0  0  0  0  0  0  0  0  0  0
    2.2091    0.0827   -4.5700 H   0  0  0  0  0  0  0  0  0  0  0  0
    0.7907   -0.1768   -0.7166 N   0  0  0  0  0  0  0  0  0  0  0  0
    0.2802    0.1232    0.6333 C   0  0  2  0  0  0  0  0  0  0  0  0
   -0.8807   -0.8490    0.9770 C   0  0  0  0  0  0  0  0  0  0  0  0
   -1.4517   -0.7654    2.0579 O   0  0  0  0  0  0  0  0  0  0  0  0
   -0.2965    1.5651    0.7584 C   0  0  0  0  0  0  0  0  0  0  0  0
    0.6341    2.7988    0.6261 C   0  0  0  0  0  0  0  0  0  0  0  0
   -0.2537    4.0533    0.6502 C   0  0  0  0  0  0  0  0  0  0  0  0
    1.4593    2.8712   -0.6648 C   0  0  0  0  0  0  0  0  0  0  0  0
    0.1199   -0.3483   -1.4681 H   0  0  0  0  0  0  0  0  0  0  0  0
    1.0679   -0.0181    1.3811 H   0  0  0  0  0  0  0  0  0  0  0  0
   -0.7747    1.6518    1.7402 H   0  0  0  0  0  0  0  0  0  0  0  0
   -1.0884    1.6588    0.0074 H   0  0  0  0  0  0  0  0  0  0  0  0
    1.3185    2.8234    1.4811 H   0  0  0  0  0  0  0  0  0  0  0  0
   -0.9187    4.0769   -0.2194 H   0  0  0  0  0  0  0  0  0  0  0  0
    0.3600    4.9597    0.6431 H   0  0  0  0  0  0  0  0  0  0  0  0
   -0.8669    4.0697    1.5567 H   0  0  0  0  0  0  0  0  0  0  0  0
    0.8688    2.5345   -1.5221 H   0  0  0  0  0  0  0  0  0  0  0  0
    1.7909    3.8962   -0.8589 H   0  0  0  0  0  0  0  0  0  0  0  0
    2.3588    2.2627   -0.5752 H   0  0  0  0  0  0  0  0  0  0  0  0
   -1.2922   -1.8169    0.0692 N   0  0  0  0  0  0  0  0  0  0  0  0
   -2.3465   -2.8360    0.2457 C   0  0  2  0  0  0  0  0  0  0  0  0
   -3.7868   -2.2826    0.3465 C   0  0  0  0  0  0  0  0  0  0  0  0
   -4.6752   -2.7931   -0.3240 O   0  0  0  0  0  0  0  0  0  0  0  0
   -2.0294   -3.7585    1.4300 C   0  0  0  0  0  0  0  0  0  0  0  0
   -0.7970   -1.8234   -0.8244 H   0  0  0  0  0  0  0  0  0  0  0  0
   -2.3304   -3.4579   -0.6553 H   0  0  0  0  0  0  0  0  0  0  0  0
   -2.1287   -3.2297    2.3823 H   0  0  0  0  0  0  0  0  0  0  0  0
   -2.7198   -4.6077    1.4383 H   0  0  0  0  0  0  0  0  0  0  0  0
   -1.0085   -4.1431    1.3493 H   0  0  0  0  0  0  0  0  0  0  0  0
   -4.0994   -1.2356    1.1900 N   0  0  0  0  0  0  0  0  0  0  0  0
   -5.4387   -0.6895    1.3565 C   0  0  0  0  0  0  0  0  0  0  0  0
   -3.3306   -0.8745    1.7615 H   0  0  0  0  0  0  0  0  0  0  0  0
   -5.4260    0.1233    2.0889 H   0  0  0  0  0  0  0  0  0  0  0  0
   -5.8106   -0.2930    0.4062 H   0  0  0  0  0  0  0  0  0  0  0  0
   -6.1271   -1.4642    1.7096 H   0  0  0  0  0  0  0  0  0  0  0  0
  1  2  2  0  0  0  0
  1  3  1  0  0  0  0
  1  7  1  0  0  0  0
  3  4  1  0  0  0  0
  3  5  1  0  0  0  0
  3  6  1  0  0  0  0
  7  8  1  0  0  0  0
  7 12  1  0  0  0  0
  8  9  1  0  0  0  0
  8 11  1  0  0  0  0
  8 13  1  0  0  0  0
  9 10  2  0  0  0  0
  9 17  1  0  0  0  0
 11 14  1  0  0  0  0
 11 15  1  0  0  0  0
 11 16  1  0  0  0  0
 17 18  1  0  0  0  0
 17 25  1  0  0  0  0
 18 19  1  0  0  0  0
 18 21  1  0  0  0  0
 18 26  1  0  0  0  0
 19 20  2  0  0  0  0
 19 36  1  0  0  0  0
 21 22  1  0  0  0  0
 21 27  1  0  0  0  0
 21 28  1  0  0  0  0
 22 23  1  0  0  0  0
 22 24  1  0  0  0  0
 22 29  1  0  0  0  0
 23 30  1  0  0  0  0
 23 31  1  0  0  0  0
 23 32  1  0  0  0  0
 24 33  1  0  0  0  0
 24 34  1  0  0  0  0
 24 35  1  0  0  0  0
 36 37  1  0  0  0  0
 36 41  1  0  0  0  0
 37 38  1  0  0  0  0
 37 40  1  0  0  0  0
 37 42  1  0  0  0  0
 38 39  2  0  0  0  0
 38 46  1  0  0  0  0
 40 43  1  0  0  0  0
 40 44  1  0  0  0  0
 40 45  1  0  0  0  0
 46 47  1  0  0  0  0
 46 48  1  0  0  0  0
 47 49  1  0  0  0  0
 47 50  1  0  0  0  0
 47 51  1  0  0  0  0
M  END
$$$$

  -OEChem-05262216553D

 51 50  0     1  0  0  0  0  0999 V2000
    0.9891   -2.7197   -2.9460 C   0  0  0  0  0  0  0  0  0  0  0  0
   -0.0382   -2.1973   -2.5372 O   0  0  0  0  0  0  0  0  0  0  0  0
    0.9881   -4.1921   -3.3107 C   0  0  0  0  0  0  0  0  0  0  0  0
    1.6762   -4.7393   -2.6613 H   0  0  0  0  0  0  0  0  0  0  0  0
   -0.0154   -4.6111   -3.1910 H   0  0  0  0  0  0  0  0  0  0  0  0
    1.2993   -4.3205   -4.3503 H   0  0  0  0  0  0  0  0  0  0  0  0
    2.1639   -1.9957   -3.0274 N   0  0  0  0  0  0  0  0  0  0  0  0
    2.3418   -0.5725   -2.6765 C   0  0  2  0  0  0  0  0  0  0  0  0
    2.0181   -0.2491   -1.1993 C   0  0  0  0  0  0  0  0  0  0  0  0
    2.9266   -0.2130   -0.3816 O   0  0  0  0  0  0  0  0  0  0  0  0
    1.5572    0.3197   -3.6506 C   0  0  0  0  0  0  0  0  0  0  0  0
    2.9921   -2.5184   -3.3001 H   0  0  0  0  0  0  0  0  0  0  0  0
    3.4018   -0.3319   -2.8082 H   0  0  0  0  0  0  0  0  0  0  0  0
    0.4780    0.1712   -3.5512 H   0  0  0  0  0  0  0  0  0  0  0  0
    1.7788    1.3740   -3.4578 H   0  0  0  0  0  0  0  0  0  0  0  0
    1.8423    0.0931   -4.6825 H   0  0  0  0  0  0  0  0  0  0  0  0
    0.7078   -0.1513   -0.7694 N   0  0  0  0  0  0  0  0  0  0  0  0
    0.2639    0.0984    0.6155 C   0  0  2  0  0  0  0  0  0  0  0  0
   -0.8917   -0.8803    0.9691 C   0  0  0  0  0  0  0  0  0  0  0  0
   -1.5864   -0.7008    1.9627 O   0  0  0  0  0  0  0  0  0  0  0  0
   -0.2697    1.5490    0.8243 C   0  0  0  0  0  0  0  0  0  0  0  0
    0.6830    2.7670    0.7029 C   0  0  0  0  0  0  0  0  0  0  0  0
   -0.1760    4.0368    0.8173 C   0  0  0  0  0  0  0  0  0  0  0  0
    1.4574    2.8800   -0.6166 C   0  0  0  0  0  0  0  0  0  0  0  0
    0.0035   -0.3579   -1.4794 H   0  0  0  0  0  0  0  0  0  0  0  0
    1.0820   -0.0879    1.3195 H   0  0  0  0  0  0  0  0  0  0  0  0
   -0.6983    1.6090    1.8304 H   0  0  0  0  0  0  0  0  0  0  0  0
   -1.0929    1.6908    0.1160 H   0  0  0  0  0  0  0  0  0  0  0  0
    1.4013    2.7412    1.5293 H   0  0  0  0  0  0  0  0  0  0  0  0
   -0.8728    4.1130   -0.0239 H   0  0  0  0  0  0  0  0  0  0  0  0
    0.4563    4.9303    0.8267 H   0  0  0  0  0  0  0  0  0  0  0  0
   -0.7543    4.0247    1.7467 H   0  0  0  0  0  0  0  0  0  0  0  0
    0.8303    2.5818   -1.4618 H   0  0  0  0  0  0  0  0  0  0  0  0
    1.7929    3.9081   -0.7852 H   0  0  0  0  0  0  0  0  0  0  0  0
    2.3533    2.2608   -0.5858 H   0  0  0  0  0  0  0  0  0  0  0  0
   -1.1407   -1.9905    0.1738 N   0  0  0  0  0  0  0  0  0  0  0  0
   -2.1498   -3.0492    0.3811 C   0  0  2  0  0  0  0  0  0  0  0  0
   -3.6221   -2.5964    0.2468 C   0  0  0  0  0  0  0  0  0  0  0  0
   -4.4080   -3.2868   -0.3899 O   0  0  0  0  0  0  0  0  0  0  0  0
   -1.9234   -3.7756    1.7139 C   0  0  0  0  0  0  0  0  0  0  0  0
   -0.5780   -2.0565   -0.6773 H   0  0  0  0  0  0  0  0  0  0  0  0
   -1.9923   -3.7859   -0.4132 H   0  0  0  0  0  0  0  0  0  0  0  0
   -2.1643   -3.1302    2.5637 H   0  0  0  0  0  0  0  0  0  0  0  0
   -2.5622   -4.6626    1.7688 H   0  0  0  0  0  0  0  0  0  0  0  0
   -0.8802   -4.0935    1.8020 H   0  0  0  0  0  0  0  0  0  0  0  0
   -4.0824   -1.4486    0.8605 N   0  0  0  0  0  0  0  0  0  0  0  0
   -5.4745   -1.0221    0.8546 C   0  0  0  0  0  0  0  0  0  0  0  0
   -3.4065   -0.9566    1.4514 H   0  0  0  0  0  0  0  0  0  0  0  0
   -5.5833   -0.0833    1.4059 H   0  0  0  0  0  0  0  0  0  0  0  0
   -5.8217   -0.8630   -0.1716 H   0  0  0  0  0  0  0  0  0  0  0  0
   -6.1084   -1.7786    1.3286 H   0  0  0  0  0  0  0  0  0  0  0  0
  1  2  2  0  0  0  0
  1  3  1  0  0  0  0
  1  7  1  0  0  0  0
  3  4  1  0  0  0  0
  3  5  1  0  0  0  0
  3  6  1  0  0  0  0
  7  8  1  0  0  0  0
  7 12  1  0  0  0  0
  8  9  1  0  0  0  0
  8 11  1  0  0  0  0
  8 13  1  0  0  0  0
  9 10  2  0  0  0  0
  9 17  1  0  0  0  0
 11 14  1  0  0  0  0
 11 15  1  0  0  0  0
 11 16  1  0  0  0  0
 17 18  1  0  0  0  0
 17 25  1  0  0  0  0
 18 19  1  0  0  0  0
 18 21  1  0  0  0  0
 18 26  1  0  0  0  0
 19 20  2  0  0  0  0
 19 36  1  0  0  0  0
 21 22  1  0  0  0  0
 21 27  1  0  0  0  0
 21 28  1  0  0  0  0
 22 23  1  0  0  0  0
 22 24  1  0  0  0  0
 22 29  1  0  0  0  0
 23 30  1  0  0  0  0
 23 31  1  0  0  0  0
 23 32  1  0  0  0  0
 24 33  1  0  0  0  0
 24 34  1  0  0  0  0
 24 35  1  0  0  0  0
 36 37  1  0  0  0  0
 36 41  1  0  0  0  0
 37 38  1  0  0  0  0
 37 40  1  0  0  0  0
 37 42  1  0  0  0  0
 38 39  2  0  0  0  0
 38 46  1  0  0  0  0
 40 43  1  0  0  0  0
 40 44  1  0  0  0  0
 40 45  1  0  0  0  0
 46 47  1  0  0  0  0
 46 48  1  0  0  0  0
 47 49  1  0  0  0  0
 47 50  1  0  0  0  0
 47 51  1  0  0  0  0
M  END
$$$$

  -OEChem-05262216553D

 51 50  0     1  0  0  0  0  0999 V2000
    1.3103   -2.8577   -2.8400 C   0  0  0  0  0  0  0  0  0  0  0  0
    0.2440   -2.5542   -2.3243 O   0  0  0  0  0  0  0  0  0  0  0  0
    1.6153   -4.3136   -3.1363 C   0  0  0  0  0  0  0  0  0  0  0  0
    2.4441   -4.6563   -2.5116 H   0  0  0  0  0  0  0  0  0  0  0  0
    0.7382   -4.9336   -2.9285 H   0  0  0  0  0  0  0  0  0  0  0  0
    1.8870   -4.4331   -4.1880 H   0  0  0  0  0  0  0  0  0  0  0  0
    2.2579   -1.8896   -3.1143 N   0  0  0  0  0  0  0  0  0  0  0  0
    2.1308   -0.4539   -2.8015 C   0  0  2  0  0  0  0  0  0  0  0  0
    1.8708   -0.1825   -1.3012 C   0  0  0  0  0  0  0  0  0  0  0  0
    2.8159   -0.1911   -0.5244 O   0  0  0  0  0  0  0  0  0  0  0  0
    1.0798    0.1951   -3.7164 C   0  0  0  0  0  0  0  0  0  0  0  0
    3.1622   -2.2251   -3.4353 H   0  0  0  0  0  0  0  0  0  0  0  0
    3.0899    0.0236   -3.0269 H   0  0  0  0  0  0  0  0  0  0  0  0
    0.0863   -0.2330   -3.5543 H   0  0  0  0  0  0  0  0  0  0  0  0
    1.0272    1.2719   -3.5277 H   0  0  0  0  0  0  0  0  0  0  0  0
    1.3504    0.0433   -4.7657 H   0  0  0  0  0  0  0  0  0  0  0  0
    0.5816   -0.0949   -0.8065 N   0  0  0  0  0  0  0  0  0  0  0  0
    0.2173    0.0805    0.6122 C   0  0  2  0  0  0  0  0  0  0  0  0
   -0.9322   -0.9119    0.9491 C   0  0  0  0  0  0  0  0  0  0  0  0
   -1.7606   -0.6682    1.8192 O   0  0  0  0  0  0  0  0  0  0  0  0
   -0.2646    1.5275    0.9433 C   0  0  0  0  0  0  0  0  0  0  0  0
    0.7120    2.7296    0.8487 C   0  0  0  0  0  0  0  0  0  0  0  0
   -0.1059    4.0084    1.0930 C   0  0  0  0  0  0  0  0  0  0  0  0
    1.4128    2.9143   -0.5044 C   0  0  0  0  0  0  0  0  0  0  0  0
   -0.1595   -0.2987   -1.4755 H   0  0  0  0  0  0  0  0  0  0  0  0
    1.0648   -0.1672    1.2601 H   0  0  0  0  0  0  0  0  0  0  0  0
   -0.6344    1.5295    1.9744 H   0  0  0  0  0  0  0  0  0  0  0  0
   -1.1211    1.7355    0.2929 H   0  0  0  0  0  0  0  0  0  0  0  0
    1.4748    2.6326    1.6289 H   0  0  0  0  0  0  0  0  0  0  0  0
   -0.8410    4.1600    0.2960 H   0  0  0  0  0  0  0  0  0  0  0  0
    0.5505    4.8835    1.1321 H   0  0  0  0  0  0  0  0  0  0  0  0
   -0.6375    3.9450    2.0478 H   0  0  0  0  0  0  0  0  0  0  0  0
    0.7363    2.6732   -1.3296 H   0  0  0  0  0  0  0  0  0  0  0  0
    1.7518    3.9474   -0.6307 H   0  0  0  0  0  0  0  0  0  0  0  0
    2.3012    2.2864   -0.5616 H   0  0  0  0  0  0  0  0  0  0  0  0
   -1.0176   -2.1181    0.2686 N   0  0  0  0  0  0  0  0  0  0  0  0
   -1.9772   -3.2212    0.4838 C   0  0  2  0  0  0  0  0  0  0  0  0
   -3.4506   -2.9031    0.1374 C   0  0  0  0  0  0  0  0  0  0  0  0
   -4.1196   -3.7313   -0.4681 O   0  0  0  0  0  0  0  0  0  0  0  0
   -1.8640   -3.7794    1.9088 C   0  0  0  0  0  0  0  0  0  0  0  0
   -0.3605   -2.2309   -0.5086 H   0  0  0  0  0  0  0  0  0  0  0  0
   -1.6799   -4.0247   -0.1981 H   0  0  0  0  0  0  0  0  0  0  0  0
   -2.2397   -3.0637    2.6459 H   0  0  0  0  0  0  0  0  0  0  0  0
   -2.4502   -4.6994    1.9976 H   0  0  0  0  0  0  0  0  0  0  0  0
   -0.8209   -4.0096    2.1450 H   0  0  0  0  0  0  0  0  0  0  0  0
   -4.0467   -1.7236    0.5375 N   0  0  0  0  0  0  0  0  0  0  0  0
   -5.4601   -1.4226    0.3588 C   0  0  0  0  0  0  0  0  0  0  0  0
   -3.4757   -1.1189    1.1341 H   0  0  0  0  0  0  0  0  0  0  0  0
   -5.6801   -0.4165    0.7286 H   0  0  0  0  0  0  0  0  0  0  0  0
   -5.7304   -1.4673   -0.7013 H   0  0  0  0  0  0  0  0  0  0  0  0
   -6.0768   -2.1390    0.9115 H   0  0  0  0  0  0  0  0  0  0  0  0
  1  2  2  0  0  0  0
  1  3  1  0  0  0  0
  1  7  1  0  0  0  0
  3  4  1  0  0  0  0
  3  5  1  0  0  0  0
  3  6  1  0  0  0  0
  7  8  1  0  0  0  0
  7 12  1  0  0  0  0
  8  9  1  0  0  0  0
  8 11  1  0  0  0  0
  8 13  1  0  0  0  0
  9 10  2  0  0  0  0
  9 17  1  0  0  0  0
 11 14  1  0  0  0  0
 11 15  1  0  0  0  0
 11 16  1  0  0  0  0
 17 18  1  0  0  0  0
 17 25  1  0  0  0  0
 18 19  1  0  0  0  0
 18 21  1  0  0  0  0
 18 26  1  0  0  0  0
 19 20  2  0  0  0  0
 19 36  1  0  0  0  0
 21 22  1  0  0  0  0
 21 27  1  0  0  0  0
 21 28  1  0  0  0  0
 22 23  1  0  0  0  0
 22 24  1  0  0  0  0
 22 29  1  0  0  0  0
 23 30  1  0  0  0  0
 23 31  1  0  0  0  0
 23 32  1  0  0  0  0
 24 33  1  0  0  0  0
 24 34  1  0  0  0  0
 24 35  1  0  0  0  0
 36 37  1  0  0  0  0
 36 41  1  0  0  0  0
 37 38  1  0  0  0  0
 37 40  1  0  0  0  0
 37 42  1  0  0  0  0
 38 39  2  0  0  0  0
 38 46  1  0  0  0  0
 40 43  1  0  0  0  0
 40 44  1  0  0  0  0
 40 45  1  0  0  0  0
 46 47  1  0  0  0  0
 46 48  1  0  0  0  0
 47 49  1  0  0  0  0
 47 50  1  0  0  0  0
 47 51  1  0  0  0  0
M  END
$$$$

  -OEChem-05262216553D

 51 50  0     1  0  0  0  0  0999 V2000
    1.7207   -3.1296   -2.5193 C   0  0  0  0  0  0  0  0  0  0  0  0
    0.8871   -3.1582   -1.6237 O   0  0  0  0  0  0  0  0  0  0  0  0
    2.6045   -4.3399   -2.7543 C   0  0  0  0  0  0  0  0  0  0  0  0
    3.6463   -4.0857   -2.5426 H   0  0  0  0  0  0  0  0  0  0  0  0
    2.3024   -5.1621   -2.0992 H   0  0  0  0  0  0  0  0  0  0  0  0
    2.5201   -4.6695   -3.7927 H   0  0  0  0  0  0  0  0  0  0  0  0
    1.8990   -2.0028   -3.3023 N   0  0  0  0  0  0  0  0  0  0  0  0
    1.2375   -0.7063   -3.0651 C   0  0  2  0  0  0  0  0  0  0  0  0
    1.4269   -0.2121   -1.6110 C   0  0  0  0  0  0  0  0  0  0  0  0
    2.5700   -0.0668   -1.1928 O   0  0  0  0  0  0  0  0  0  0  0  0
   -0.2293   -0.7922   -3.5112 C   0  0  0  0  0  0  0  0  0  0  0  0
    2.7130   -2.0106   -3.9095 H   0  0  0  0  0  0  0  0  0  0  0  0
    1.7217    0.0462   -3.6948 H   0  0  0  0  0  0  0  0  0  0  0  0
   -0.7591   -1.5824   -2.9730 H   0  0  0  0  0  0  0  0  0  0  0  0
   -0.7427    0.1574   -3.3305 H   0  0  0  0  0  0  0  0  0  0  0  0
   -0.2840   -1.0150   -4.5809 H   0  0  0  0  0  0  0  0  0  0  0  0
    0.3662   -0.1447   -0.7257 N   0  0  0  0  0  0  0  0  0  0  0  0
    0.4995    0.0487    0.7302 C   0  0  2  0  0  0  0  0  0  0  0  0
   -0.4605   -0.9844    1.3740 C   0  0  0  0  0  0  0  0  0  0  0  0
   -1.3247   -0.6715    2.1876 O   0  0  0  0  0  0  0  0  0  0  0  0
    0.1045    1.4765    1.2156 C   0  0  0  0  0  0  0  0  0  0  0  0
    0.9378    2.7159    0.7987 C   0  0  0  0  0  0  0  0  0  0  0  0
    0.2007    3.9602    1.3203 C   0  0  0  0  0  0  0  0  0  0  0  0
    1.1043    2.9189   -0.7143 C   0  0  0  0  0  0  0  0  0  0  0  0
   -0.5419   -0.4670   -1.0766 H   0  0  0  0  0  0  0  0  0  0  0  0
    1.5166   -0.1746    1.0675 H   0  0  0  0  0  0  0  0  0  0  0  0
    0.1016    1.4603    2.3111 H   0  0  0  0  0  0  0  0  0  0  0  0
   -0.9283    1.6479    0.8921 H   0  0  0  0  0  0  0  0  0  0  0  0
    1.9292    2.6569    1.2604 H   0  0  0  0  0  0  0  0  0  0  0  0
   -0.7730    4.0699    0.8315 H   0  0  0  0  0  0  0  0  0  0  0  0
    0.7886    4.8639    1.1308 H   0  0  0  0  0  0  0  0  0  0  0  0
    0.0396    3.8837    2.4002 H   0  0  0  0  0  0  0  0  0  0  0  0
    0.1920    2.6358   -1.2482 H   0  0  0  0  0  0  0  0  0  0  0  0
    1.3257    3.9654   -0.9459 H   0  0  0  0  0  0  0  0  0  0  0  0
    1.9426    2.3341   -1.0887 H   0  0  0  0  0  0  0  0  0  0  0  0
   -0.4466   -2.2756    0.8662 N   0  0  0  0  0  0  0  0  0  0  0  0
   -1.6915   -3.0370    0.6826 C   0  0  2  0  0  0  0  0  0  0  0  0
   -2.7673   -2.2013   -0.0620 C   0  0  0  0  0  0  0  0  0  0  0  0
   -2.4356   -1.4811   -1.0024 O   0  0  0  0  0  0  0  0  0  0  0  0
   -2.1700   -3.6327    2.0169 C   0  0  0  0  0  0  0  0  0  0  0  0
    0.2371   -2.4031    0.1128 H   0  0  0  0  0  0  0  0  0  0  0  0
   -1.4599   -3.8800    0.0242 H   0  0  0  0  0  0  0  0  0  0  0  0
   -2.5314   -2.8539    2.6947 H   0  0  0  0  0  0  0  0  0  0  0  0
   -2.9806   -4.3470    1.8455 H   0  0  0  0  0  0  0  0  0  0  0  0
   -1.3462   -4.1601    2.5075 H   0  0  0  0  0  0  0  0  0  0  0  0
   -4.0989   -2.2380    0.3111 N   0  0  0  0  0  0  0  0  0  0  0  0
   -5.0996   -1.3413   -0.2540 C   0  0  0  0  0  0  0  0  0  0  0  0
   -4.3005   -2.6853    1.2004 H   0  0  0  0  0  0  0  0  0  0  0  0
   -6.0869   -1.5680    0.1596 H   0  0  0  0  0  0  0  0  0  0  0  0
   -4.8550   -0.2998   -0.0197 H   0  0  0  0  0  0  0  0  0  0  0  0
   -5.1485   -1.4562   -1.3419 H   0  0  0  0  0  0  0  0  0  0  0  0
  1  2  2  0  0  0  0
  1  3  1  0  0  0  0
  1  7  1  0  0  0  0
  3  4  1  0  0  0  0
  3  5  1  0  0  0  0
  3  6  1  0  0  0  0
  7  8  1  0  0  0  0
  7 12  1  0  0  0  0
  8  9  1  0  0  0  0
  8 11  1  0  0  0  0
  8 13  1  0  0  0  0
  9 10  2  0  0  0  0
  9 17  1  0  0  0  0
 11 14  1  0  0  0  0
 11 15  1  0  0  0  0
 11 16  1  0  0  0  0
 17 18  1  0  0  0  0
 17 25  1  0  0  0  0
 18 19  1  0  0  0  0
 18 21  1  0  0  0  0
 18 26  1  0  0  0  0
 19 20  2  0  0  0  0
 19 36  1  0  0  0  0
 21 22  1  0  0  0  0
 21 27  1  0  0  0  0
 21 28  1  0  0  0  0
 22 23  1  0  0  0  0
 22 24  1  0  0  0  0
 22 29  1  0  0  0  0
 23 30  1  0  0  0  0
 23 31  1  0  0  0  0
 23 32  1  0  0  0  0
 24 33  1  0  0  0  0
 24 34  1  0  0  0  0
 24 35  1  0  0  0  0
 36 37  1  0  0  0  0
 36 41  1  0  0  0  0
 37 38  1  0  0  0  0
 37 40  1  0  0  0  0
 37 42  1  0  0  0  0
 38 39  2  0  0  0  0
 38 46  1  0  0  0  0
 40 43  1  0  0  0  0
 40 44  1  0  0  0  0
 40 45  1  0  0  0  0
 46 47  1  0  0  0  0
 46 48  1  0  0  0  0
 47 49  1  0  0  0  0
 47 50  1  0  0  0  0
 47 51  1  0  0  0  0
M  END
$$$$

  -OEChem-05262216553D

 51 50  0     1  0  0  0  0  0999 V2000
    1.7252   -3.1318   -2.3901 C   0  0  0  0  0  0  0  0  0  0  0  0
    0.9404   -3.1187   -1.4507 O   0  0  0  0  0  0  0  0  0  0  0  0
    2.6214   -4.3389   -2.5926 C   0  0  0  0  0  0  0  0  0  0  0  0
    3.6705   -4.0402   -2.5249 H   0  0  0  0  0  0  0  0  0  0  0  0
    2.4205   -5.0919   -1.8254 H   0  0  0  0  0  0  0  0  0  0  0  0
    2.4374   -4.7801   -3.5751 H   0  0  0  0  0  0  0  0  0  0  0  0
    1.8358   -2.0585   -3.2573 N   0  0  0  0  0  0  0  0  0  0  0  0
    1.1516   -0.7637   -3.0796 C   0  0  2  0  0  0  0  0  0  0  0  0
    1.3658   -0.1770   -1.6633 C   0  0  0  0  0  0  0  0  0  0  0  0
    2.5181   -0.0417   -1.2664 O   0  0  0  0  0  0  0  0  0  0  0  0
   -0.3228   -0.9141   -3.4793 C   0  0  0  0  0  0  0  0  0  0  0  0
    2.6135   -2.0942   -3.9092 H   0  0  0  0  0  0  0  0  0  0  0  0
    1.6008   -0.0403   -3.7664 H   0  0  0  0  0  0  0  0  0  0  0  0
   -0.8152   -1.6803   -2.8755 H   0  0  0  0  0  0  0  0  0  0  0  0
   -0.8569    0.0322   -3.3486 H   0  0  0  0  0  0  0  0  0  0  0  0
   -0.3992   -1.2099   -4.5297 H   0  0  0  0  0  0  0  0  0  0  0  0
    0.3146   -0.0376   -0.7734 N   0  0  0  0  0  0  0  0  0  0  0  0
    0.4953    0.1247    0.6799 C   0  0  2  0  0  0  0  0  0  0  0  0
   -0.5345   -0.8391    1.3157 C   0  0  0  0  0  0  0  0  0  0  0  0
   -1.4726   -0.4553    2.0079 O   0  0  0  0  0  0  0  0  0  0  0  0
    0.2202    1.5670    1.2048 C   0  0  0  0  0  0  0  0  0  0  0  0
    1.1307    2.7528    0.7932 C   0  0  0  0  0  0  0  0  0  0  0  0
    0.4991    4.0342    1.3620 C   0  0  0  0  0  0  0  0  0  0  0  0
    1.2634    2.9814   -0.7202 C   0  0  0  0  0  0  0  0  0  0  0  0
   -0.5888   -0.4003   -1.0915 H   0  0  0  0  0  0  0  0  0  0  0  0
    1.4968   -0.1844    0.9954 H   0  0  0  0  0  0  0  0  0  0  0  0
    0.2363    1.5226    2.2993 H   0  0  0  0  0  0  0  0  0  0  0  0
   -0.8023    1.8253    0.9071 H   0  0  0  0  0  0  0  0  0  0  0  0
    2.1280    2.6114    1.2225 H   0  0  0  0  0  0  0  0  0  0  0  0
   -0.4706    4.2312    0.8934 H   0  0  0  0  0  0  0  0  0  0  0  0
    1.1517    4.8956    1.1870 H   0  0  0  0  0  0  0  0  0  0  0  0
    0.3489    3.9395    2.4421 H   0  0  0  0  0  0  0  0  0  0  0  0
    0.3232    2.7547   -1.2320 H   0  0  0  0  0  0  0  0  0  0  0  0
    1.5288    4.0208   -0.9371 H   0  0  0  0  0  0  0  0  0  0  0  0
    2.0602    2.3658   -1.1335 H   0  0  0  0  0  0  0  0  0  0  0  0
   -0.4185   -2.1856    1.0074 N   0  0  0  0  0  0  0  0  0  0  0  0
   -1.5975   -3.0639    0.9382 C   0  0  2  0  0  0  0  0  0  0  0  0
   -2.7338   -2.4621    0.0654 C   0  0  0  0  0  0  0  0  0  0  0  0
   -2.4622   -1.7712   -0.9148 O   0  0  0  0  0  0  0  0  0  0  0  0
   -2.0506   -3.4671    2.3514 C   0  0  0  0  0  0  0  0  0  0  0  0
    0.2908   -2.3730    0.2912 H   0  0  0  0  0  0  0  0  0  0  0  0
   -1.2854   -3.9811    0.4292 H   0  0  0  0  0  0  0  0  0  0  0  0
   -2.5070   -2.6233    2.8774 H   0  0  0  0  0  0  0  0  0  0  0  0
   -2.7806   -4.2803    2.3015 H   0  0  0  0  0  0  0  0  0  0  0  0
   -1.1922   -3.8137    2.9350 H   0  0  0  0  0  0  0  0  0  0  0  0
   -4.0645   -2.7259    0.3393 N   0  0  0  0  0  0  0  0  0  0  0  0
   -5.1630   -2.0955   -0.3829 C   0  0  0  0  0  0  0  0  0  0  0  0
   -4.2620   -3.1708    1.2303 H   0  0  0  0  0  0  0  0  0  0  0  0
   -6.1221   -2.4783   -0.0210 H   0  0  0  0  0  0  0  0  0  0  0  0
   -5.1438   -1.0103   -0.2364 H   0  0  0  0  0  0  0  0  0  0  0  0
   -5.0911   -2.3083   -1.4548 H   0  0  0  0  0  0  0  0  0  0  0  0
  1  2  2  0  0  0  0
  1  3  1  0  0  0  0
  1  7  1  0  0  0  0
  3  4  1  0  0  0  0
  3  5  1  0  0  0  0
  3  6  1  0  0  0  0
  7  8  1  0  0  0  0
  7 12  1  0  0  0  0
  8  9  1  0  0  0  0
  8 11  1  0  0  0  0
  8 13  1  0  0  0  0
  9 10  2  0  0  0  0
  9 17  1  0  0  0  0
 11 14  1  0  0  0  0
 11 15  1  0  0  0  0
 11 16  1  0  0  0  0
 17 18  1  0  0  0  0
 17 25  1  0  0  0  0
 18 19  1  0  0  0  0
 18 21  1  0  0  0  0
 18 26  1  0  0  0  0
 19 20  2  0  0  0  0
 19 36  1  0  0  0  0
 21 22  1  0  0  0  0
 21 27  1  0  0  0  0
 21 28  1  0  0  0  0
 22 23  1  0  0  0  0
 22 24  1  0  0  0  0
 22 29  1  0  0  0  0
 23 30  1  0  0  0  0
 23 31  1  0  0  0  0
 23 32  1  0  0  0  0
 24 33  1  0  0  0  0
 24 34  1  0  0  0  0
 24 35  1  0  0  0  0
 36 37  1  0  0  0  0
 36 41  1  0  0  0  0
 37 38  1  0  0  0  0
 37 40  1  0  0  0  0
 37 42  1  0  0  0  0
 38 39  2  0  0  0  0
 38 46  1  0  0  0  0
 40 43  1  0  0  0  0
 40 44  1  0  0  0  0
 40 45  1  0  0  0  0
 46 47  1  0  0  0  0
 46 48  1  0  0  0  0
 47 49  1  0  0  0  0
 47 50  1  0  0  0  0
 47 51  1  0  0  0  0
M  END
$$$$

  -OEChem-05262216553D

 51 50  0     1  0  0  0  0  0999 V2000
    1.8219   -3.1190   -2.2392 C   0  0  0  0  0  0  0  0  0  0  0  0
    1.0669   -3.0452   -1.2786 O   0  0  0  0  0  0  0  0  0  0  0  0
    2.7207   -4.3326   -2.3824 C   0  0  0  0  0  0  0  0  0  0  0  0
    3.7684   -4.0297   -2.3123 H   0  0  0  0  0  0  0  0  0  0  0  0
    2.5092   -5.0553   -1.5893 H   0  0  0  0  0  0  0  0  0  0  0  0
    2.5502   -4.8125   -3.3491 H   0  0  0  0  0  0  0  0  0  0  0  0
    1.9001   -2.1105   -3.1850 N   0  0  0  0  0  0  0  0  0  0  0  0
    1.1919   -0.8186   -3.1034 C   0  0  2  0  0  0  0  0  0  0  0  0
    1.3764   -0.1302   -1.7294 C   0  0  0  0  0  0  0  0  0  0  0  0
    2.5186    0.0237   -1.3111 O   0  0  0  0  0  0  0  0  0  0  0  0
   -0.2775   -1.0295   -3.4980 C   0  0  0  0  0  0  0  0  0  0  0  0
    2.6526   -2.1942   -3.8614 H   0  0  0  0  0  0  0  0  0  0  0  0
    1.6330   -0.1370   -3.8370 H   0  0  0  0  0  0  0  0  0  0  0  0
   -0.7711   -1.7243   -2.8125 H   0  0  0  0  0  0  0  0  0  0  0  0
   -0.8196   -0.0788   -3.4830 H   0  0  0  0  0  0  0  0  0  0  0  0
   -0.3415   -1.4450   -4.5082 H   0  0  0  0  0  0  0  0  0  0  0  0
    0.2975    0.0380   -0.8784 N   0  0  0  0  0  0  0  0  0  0  0  0
    0.4437    0.1644    0.5790 C   0  0  2  0  0  0  0  0  0  0  0  0
   -0.6463   -0.7679    1.1581 C   0  0  0  0  0  0  0  0  0  0  0  0
   -1.6871   -0.3486    1.6561 O   0  0  0  0  0  0  0  0  0  0  0  0
    0.2018    1.6008    1.1359 C   0  0  0  0  0  0  0  0  0  0  0  0
    1.1582    2.7681    0.7810 C   0  0  0  0  0  0  0  0  0  0  0  0
    0.5511    4.0525    1.3709 C   0  0  0  0  0  0  0  0  0  0  0  0
    1.3251    3.0376   -0.7231 C   0  0  0  0  0  0  0  0  0  0  0  0
   -0.5827   -0.3538   -1.2162 H   0  0  0  0  0  0  0  0  0  0  0  0
    1.4231   -0.1899    0.9170 H   0  0  0  0  0  0  0  0  0  0  0  0
    0.1813    1.5254    2.2286 H   0  0  0  0  0  0  0  0  0  0  0  0
   -0.8011    1.9037    0.8146 H   0  0  0  0  0  0  0  0  0  0  0  0
    2.1416    2.5844    1.2267 H   0  0  0  0  0  0  0  0  0  0  0  0
   -0.4048    4.2890    0.8920 H   0  0  0  0  0  0  0  0  0  0  0  0
    1.2300    4.8996    1.2292 H   0  0  0  0  0  0  0  0  0  0  0  0
    0.3799    3.9350    2.4458 H   0  0  0  0  0  0  0  0  0  0  0  0
    0.3886    2.8538   -1.2585 H   0  0  0  0  0  0  0  0  0  0  0  0
    1.6245    4.0746   -0.9046 H   0  0  0  0  0  0  0  0  0  0  0  0
    2.1108    2.4129   -1.1421 H   0  0  0  0  0  0  0  0  0  0  0  0
   -0.4178   -2.1322    1.0967 N   0  0  0  0  0  0  0  0  0  0  0  0
   -1.5073   -3.1177    1.1914 C   0  0  2  0  0  0  0  0  0  0  0  0
   -2.6816   -2.8112    0.2222 C   0  0  0  0  0  0  0  0  0  0  0  0
   -2.4514   -2.4409   -0.9255 O   0  0  0  0  0  0  0  0  0  0  0  0
   -1.9416   -3.2837    2.6573 C   0  0  0  0  0  0  0  0  0  0  0  0
    0.3325   -2.3815    0.4430 H   0  0  0  0  0  0  0  0  0  0  0  0
   -1.1003   -4.0801    0.8671 H   0  0  0  0  0  0  0  0  0  0  0  0
   -2.4554   -2.3891    3.0216 H   0  0  0  0  0  0  0  0  0  0  0  0
   -2.6158   -4.1391    2.7611 H   0  0  0  0  0  0  0  0  0  0  0  0
   -1.0662   -3.4594    3.2901 H   0  0  0  0  0  0  0  0  0  0  0  0
   -3.9996   -2.9710    0.6135 N   0  0  0  0  0  0  0  0  0  0  0  0
   -5.1232   -2.5625   -0.2201 C   0  0  0  0  0  0  0  0  0  0  0  0
   -4.1577   -3.1001    1.6081 H   0  0  0  0  0  0  0  0  0  0  0  0
   -6.0691   -2.7970    0.2772 H   0  0  0  0  0  0  0  0  0  0  0  0
   -5.0868   -1.4841   -0.4075 H   0  0  0  0  0  0  0  0  0  0  0  0
   -5.1000   -3.0886   -1.1803 H   0  0  0  0  0  0  0  0  0  0  0  0
  1  2  2  0  0  0  0
  1  3  1  0  0  0  0
  1  7  1  0  0  0  0
  3  4  1  0  0  0  0
  3  5  1  0  0  0  0
  3  6  1  0  0  0  0
  7  8  1  0  0  0  0
  7 12  1  0  0  0  0
  8  9  1  0  0  0  0
  8 11  1  0  0  0  0
  8 13  1  0  0  0  0
  9 10  2  0  0  0  0
  9 17  1  0  0  0  0
 11 14  1  0  0  0  0
 11 15  1  0  0  0  0
 11 16  1  0  0  0  0
 17 18  1  0  0  0  0
 17 25  1  0  0  0  0
 18 19  1  0  0  0  0
 18 21  1  0  0  0  0
 18 26  1  0  0  0  0
 19 20  2  0  0  0  0
 19 36  1  0  0  0  0
 21 22  1  0  0  0  0
 21 27  1  0  0  0  0
 21 28  1  0  0  0  0
 22 23  1  0  0  0  0
 22 24  1  0  0  0  0
 22 29  1  0  0  0  0
 23 30  1  0  0  0  0
 23 31  1  0  0  0  0
 23 32  1  0  0  0  0
 24 33  1  0  0  0  0
 24 34  1  0  0  0  0
 24 35  1  0  0  0  0
 36 37  1  0  0  0  0
 36 41  1  0  0  0  0
 37 38  1  0  0  0  0
 37 40  1  0  0  0  0
 37 42  1  0  0  0  0
 38 39  2  0  0  0  0
 38 46  1  0  0  0  0
 40 43  1  0  0  0  0
 40 44  1  0  0  0  0
 40 45  1  0  0  0  0
 46 47  1  0  0  0  0
 46 48  1  0  0  0  0
 47 49  1  0  0  0  0
 47 50  1  0  0  0  0
 47 51  1  0  0  0  0
M  END
$$$$

  -OEChem-05262216553D

 51 50  0     1  0  0  0  0  0999 V2000
    0.2773   -2.7011   -2.6534 C   0  0  0  0  0  0  0  0  0  0  0  0
   -0.6380   -1.9170   -2.4538 O   0  0  0  0  0  0  0  0  0  0  0  0
   -0.0022   -4.1895   -2.7455 C   0  0  0  0  0  0  0  0  0  0  0  0
    0.3344   -4.6883   -1.8327 H   0  0  0  0  0  0  0  0  0  0  0  0
   -1.0732   -4.3684   -2.8672 H   0  0  0  0  0  0  0  0  0  0  0  0
    0.5214   -4.6201   -3.6020 H   0  0  0  0  0  0  0  0  0  0  0  0
    1.5807   -2.2498   -2.7570 N   0  0  0  0  0  0  0  0  0  0  0  0
    2.0497   -0.8578   -2.5925 C   0  0  2  0  0  0  0  0  0  0  0  0
    1.8831   -0.3213   -1.1537 C   0  0  0  0  0  0  0  0  0  0  0  0
    2.8766   -0.1509   -0.4586 O   0  0  0  0  0  0  0  0  0  0  0  0
    1.4054    0.0848   -3.6200 C   0  0  0  0  0  0  0  0  0  0  0  0
    2.2893   -2.9734   -2.8435 H   0  0  0  0  0  0  0  0  0  0  0  0
    3.1257   -0.8550   -2.7965 H   0  0  0  0  0  0  0  0  0  0  0  0
    0.3401    0.2306   -3.4191 H   0  0  0  0  0  0  0  0  0  0  0  0
    1.8933    1.0639   -3.5867 H   0  0  0  0  0  0  0  0  0  0  0  0
    1.5154   -0.3222   -4.6296 H   0  0  0  0  0  0  0  0  0  0  0  0
    0.6336   -0.2234   -0.5738 N   0  0  0  0  0  0  0  0  0  0  0  0
    0.3590    0.1682    0.8162 C   0  0  2  0  0  0  0  0  0  0  0  0
   -0.6846   -0.8346    1.3552 C   0  0  0  0  0  0  0  0  0  0  0  0
   -1.8903   -0.6549    1.2218 O   0  0  0  0  0  0  0  0  0  0  0  0
   -0.2143    1.6054    0.9805 C   0  0  0  0  0  0  0  0  0  0  0  0
    0.6565    2.8376    0.6253 C   0  0  0  0  0  0  0  0  0  0  0  0
   -0.2310    4.0858    0.7531 C   0  0  0  0  0  0  0  0  0  0  0  0
    1.2270    2.8487   -0.7994 C   0  0  0  0  0  0  0  0  0  0  0  0
   -0.1498   -0.5421   -1.1551 H   0  0  0  0  0  0  0  0  0  0  0  0
    1.2638    0.0906    1.4273 H   0  0  0  0  0  0  0  0  0  0  0  0
   -0.5246    1.7175    2.0250 H   0  0  0  0  0  0  0  0  0  0  0  0
   -1.1211    1.6634    0.3677 H   0  0  0  0  0  0  0  0  0  0  0  0
    1.4859    2.9078    1.3371 H   0  0  0  0  0  0  0  0  0  0  0  0
   -1.0414    4.0644    0.0171 H   0  0  0  0  0  0  0  0  0  0  0  0
    0.3579    4.9949    0.5955 H   0  0  0  0  0  0  0  0  0  0  0  0
   -0.6723    4.1395    1.7533 H   0  0  0  0  0  0  0  0  0  0  0  0
    0.4995    2.4489   -1.5126 H   0  0  0  0  0  0  0  0  0  0  0  0
    1.4858    3.8664   -1.1085 H   0  0  0  0  0  0  0  0  0  0  0  0
    2.1450    2.2636   -0.8463 H   0  0  0  0  0  0  0  0  0  0  0  0
   -0.2206   -1.9895    1.9632 N   0  0  0  0  0  0  0  0  0  0  0  0
   -1.0303   -3.1819    2.2781 C   0  0  2  0  0  0  0  0  0  0  0  0
   -1.7152   -3.8099    1.0398 C   0  0  0  0  0  0  0  0  0  0  0  0
   -1.2365   -4.8184    0.5341 O   0  0  0  0  0  0  0  0  0  0  0  0
   -2.0342   -2.8835    3.4020 C   0  0  0  0  0  0  0  0  0  0  0  0
    0.7868   -2.1195    1.9112 H   0  0  0  0  0  0  0  0  0  0  0  0
   -0.3466   -3.9448    2.6637 H   0  0  0  0  0  0  0  0  0  0  0  0
   -2.7978   -2.1693    3.0812 H   0  0  0  0  0  0  0  0  0  0  0  0
   -2.5376   -3.8055    3.7089 H   0  0  0  0  0  0  0  0  0  0  0  0
   -1.5152   -2.4669    4.2704 H   0  0  0  0  0  0  0  0  0  0  0  0
   -2.8264   -3.2180    0.4721 N   0  0  0  0  0  0  0  0  0  0  0  0
   -3.4210   -3.6531   -0.7837 C   0  0  0  0  0  0  0  0  0  0  0  0
   -2.9724   -2.2456    0.7571 H   0  0  0  0  0  0  0  0  0  0  0  0
   -4.4097   -3.2006   -0.9055 H   0  0  0  0  0  0  0  0  0  0  0  0
   -2.7958   -3.3487   -1.6272 H   0  0  0  0  0  0  0  0  0  0  0  0
   -3.5385   -4.7416   -0.8032 H   0  0  0  0  0  0  0  0  0  0  0  0
  1  2  2  0  0  0  0
  1  3  1  0  0  0  0
  1  7  1  0  0  0  0
  3  4  1  0  0  0  0
  3  5  1  0  0  0  0
  3  6  1  0  0  0  0
  7  8  1  0  0  0  0
  7 12  1  0  0  0  0
  8  9  1  0  0  0  0
  8 11  1  0  0  0  0
  8 13  1  0  0  0  0
  9 10  2  0  0  0  0
  9 17  1  0  0  0  0
 11 14  1  0  0  0  0
 11 15  1  0  0  0  0
 11 16  1  0  0  0  0
 17 18  1  0  0  0  0
 17 25  1  0  0  0  0
 18 19  1  0  0  0  0
 18 21  1  0  0  0  0
 18 26  1  0  0  0  0
 19 20  2  0  0  0  0
 19 36  1  0  0  0  0
 21 22  1  0  0  0  0
 21 27  1  0  0  0  0
 21 28  1  0  0  0  0
 22 23  1  0  0  0  0
 22 24  1  0  0  0  0
 22 29  1  0  0  0  0
 23 30  1  0  0  0  0
 23 31  1  0  0  0  0
 23 32  1  0  0  0  0
 24 33  1  0  0  0  0
 24 34  1  0  0  0  0
 24 35  1  0  0  0  0
 36 37  1  0  0  0  0
 36 41  1  0  0  0  0
 37 38  1  0  0  0  0
 37 40  1  0  0  0  0
 37 42  1  0  0  0  0
 38 39  2  0  0  0  0
 38 46  1  0  0  0  0
 40 43  1  0  0  0  0
 40 44  1  0  0  0  0
 40 45  1  0  0  0  0
 46 47  1  0  0  0  0
 46 48  1  0  0  0  0
 47 49  1  0  0  0  0
 47 50  1  0  0  0  0
 47 51  1  0  0  0  0
M  END
$$$$

  -OEChem-05262216553D

 51 50  0     1  0  0  0  0  0999 V2000
    0.2726   -2.6146   -2.7546 C   0  0  0  0  0  0  0  0  0  0  0  0
   -0.6093   -1.7993   -2.5354 O   0  0  0  0  0  0  0  0  0  0  0  0
   -0.0905   -4.0663   -3.0022 C   0  0  0  0  0  0  0  0  0  0  0  0
    0.1866   -4.6717   -2.1354 H   0  0  0  0  0  0  0  0  0  0  0  0
   -1.1663   -4.1617   -3.1719 H   0  0  0  0  0  0  0  0  0  0  0  0
    0.4354   -4.4410   -3.8837 H   0  0  0  0  0  0  0  0  0  0  0  0
    1.6040   -2.2403   -2.7495 N   0  0  0  0  0  0  0  0  0  0  0  0
    2.1438   -0.8874   -2.4994 C   0  0  2  0  0  0  0  0  0  0  0  0
    1.9227   -0.3816   -1.0565 C   0  0  0  0  0  0  0  0  0  0  0  0
    2.8886   -0.2208   -0.3213 O   0  0  0  0  0  0  0  0  0  0  0  0
    1.6207    0.1235   -3.5303 C   0  0  0  0  0  0  0  0  0  0  0  0
    2.2743   -2.9939   -2.8742 H   0  0  0  0  0  0  0  0  0  0  0  0
    3.2285   -0.9451   -2.6377 H   0  0  0  0  0  0  0  0  0  0  0  0
    0.5547    0.3238   -3.3888 H   0  0  0  0  0  0  0  0  0  0  0  0
    2.1602    1.0707   -3.4322 H   0  0  0  0  0  0  0  0  0  0  0  0
    1.7711   -0.2563   -4.5454 H   0  0  0  0  0  0  0  0  0  0  0  0
    0.6518   -0.2486   -0.5337 N   0  0  0  0  0  0  0  0  0  0  0  0
    0.3210    0.1789    0.8330 C   0  0  2  0  0  0  0  0  0  0  0  0
   -0.7637   -0.7834    1.3604 C   0  0  0  0  0  0  0  0  0  0  0  0
   -1.9057   -0.7474    0.9174 O   0  0  0  0  0  0  0  0  0  0  0  0
   -0.2464    1.6221    0.9444 C   0  0  0  0  0  0  0  0  0  0  0  0
    0.6512    2.8380    0.6009 C   0  0  0  0  0  0  0  0  0  0  0  0
   -0.2272    4.0972    0.6652 C   0  0  0  0  0  0  0  0  0  0  0  0
    1.2826    2.8126   -0.7972 C   0  0  0  0  0  0  0  0  0  0  0  0
   -0.1168   -0.5310   -1.1527 H   0  0  0  0  0  0  0  0  0  0  0  0
    1.2005    0.1060    1.4802 H   0  0  0  0  0  0  0  0  0  0  0  0
   -0.5994    1.7592    1.9723 H   0  0  0  0  0  0  0  0  0  0  0  0
   -1.1269    1.6739    0.2937 H   0  0  0  0  0  0  0  0  0  0  0  0
    1.4503    2.9158    1.3457 H   0  0  0  0  0  0  0  0  0  0  0  0
   -1.0039    4.0701   -0.1063 H   0  0  0  0  0  0  0  0  0  0  0  0
    0.3785    4.9969    0.5171 H   0  0  0  0  0  0  0  0  0  0  0  0
   -0.7125    4.1751    1.6432 H   0  0  0  0  0  0  0  0  0  0  0  0
    0.5767    2.4191   -1.5352 H   0  0  0  0  0  0  0  0  0  0  0  0
    1.5792    3.8190   -1.1091 H   0  0  0  0  0  0  0  0  0  0  0  0
    2.1869    2.2048   -0.7958 H   0  0  0  0  0  0  0  0  0  0  0  0
   -0.4096   -1.7542    2.2834 N   0  0  0  0  0  0  0  0  0  0  0  0
   -1.2589   -2.8559    2.7835 C   0  0  2  0  0  0  0  0  0  0  0  0
   -1.6713   -3.9010    1.7180 C   0  0  0  0  0  0  0  0  0  0  0  0
   -1.5548   -5.0932    1.9714 O   0  0  0  0  0  0  0  0  0  0  0  0
   -2.4924   -2.3157    3.5200 C   0  0  0  0  0  0  0  0  0  0  0  0
    0.5801   -1.7925    2.5132 H   0  0  0  0  0  0  0  0  0  0  0  0
   -0.6633   -3.4008    3.5234 H   0  0  0  0  0  0  0  0  0  0  0  0
   -3.1996   -1.8525    2.8260 H   0  0  0  0  0  0  0  0  0  0  0  0
   -3.0078   -3.1329    4.0342 H   0  0  0  0  0  0  0  0  0  0  0  0
   -2.1954   -1.5706    4.2639 H   0  0  0  0  0  0  0  0  0  0  0  0
   -2.1865   -3.5246    0.4931 N   0  0  0  0  0  0  0  0  0  0  0  0
   -2.7405   -4.4535   -0.4809 C   0  0  0  0  0  0  0  0  0  0  0  0
   -2.3185   -2.5184    0.3517 H   0  0  0  0  0  0  0  0  0  0  0  0
   -3.0265   -3.9159   -1.3902 H   0  0  0  0  0  0  0  0  0  0  0  0
   -2.0033   -5.2174   -0.7478 H   0  0  0  0  0  0  0  0  0  0  0  0
   -3.6291   -4.9475   -0.0745 H   0  0  0  0  0  0  0  0  0  0  0  0
  1  2  2  0  0  0  0
  1  3  1  0  0  0  0
  1  7  1  0  0  0  0
  3  4  1  0  0  0  0
  3  5  1  0  0  0  0
  3  6  1  0  0  0  0
  7  8  1  0  0  0  0
  7 12  1  0  0  0  0
  8  9  1  0  0  0  0
  8 11  1  0  0  0  0
  8 13  1  0  0  0  0
  9 10  2  0  0  0  0
  9 17  1  0  0  0  0
 11 14  1  0  0  0  0
 11 15  1  0  0  0  0
 11 16  1  0  0  0  0
 17 18  1  0  0  0  0
 17 25  1  0  0  0  0
 18 19  1  0  0  0  0
 18 21  1  0  0  0  0
 18 26  1  0  0  0  0
 19 20  2  0  0  0  0
 19 36  1  0  0  0  0
 21 22  1  0  0  0  0
 21 27  1  0  0  0  0
 21 28  1  0  0  0  0
 22 23  1  0  0  0  0
 22 24  1  0  0  0  0
 22 29  1  0  0  0  0
 23 30  1  0  0  0  0
 23 31  1  0  0  0  0
 23 32  1  0  0  0  0
 24 33  1  0  0  0  0
 24 34  1  0  0  0  0
 24 35  1  0  0  0  0
 36 37  1  0  0  0  0
 36 41  1  0  0  0  0
 37 38  1  0  0  0  0
 37 40  1  0  0  0  0
 37 42  1  0  0  0  0
 38 39  2  0  0  0  0
 38 46  1  0  0  0  0
 40 43  1  0  0  0  0
 40 44  1  0  0  0  0
 40 45  1  0  0  0  0
 46 47  1  0  0  0  0
 46 48  1  0  0  0  0
 47 49  1  0  0  0  0
 47 50  1  0  0  0  0
 47 51  1  0  0  0  0
M  END
$$$$

  -OEChem-05262216553D

 51 50  0     1  0  0  0  0  0999 V2000
    0.3867   -2.8015   -2.6059 C   0  0  0  0  0  0  0  0  0  0  0  0
   -0.5570   -2.0658   -2.3649 O   0  0  0  0  0  0  0  0  0  0  0  0
    0.1593   -4.2946   -2.7482 C   0  0  0  0  0  0  0  0  0  0  0  0
    0.5381   -4.8142   -1.8643 H   0  0  0  0  0  0  0  0  0  0  0  0
   -0.9083   -4.5054   -2.8533 H   0  0  0  0  0  0  0  0  0  0  0  0
    0.6766   -4.6715   -3.6337 H   0  0  0  0  0  0  0  0  0  0  0  0
    1.6694   -2.2981   -2.7198 N   0  0  0  0  0  0  0  0  0  0  0  0
    2.0799   -0.8887   -2.5573 C   0  0  2  0  0  0  0  0  0  0  0  0
    1.8922   -0.3513   -1.1215 C   0  0  0  0  0  0  0  0  0  0  0  0
    2.8763   -0.1846   -0.4116 O   0  0  0  0  0  0  0  0  0  0  0  0
    1.3965    0.0181   -3.5917 C   0  0  0  0  0  0  0  0  0  0  0  0
    2.4058   -2.9876   -2.8429 H   0  0  0  0  0  0  0  0  0  0  0  0
    3.1549   -0.8408   -2.7604 H   0  0  0  0  0  0  0  0  0  0  0  0
    0.3220    0.1020   -3.4053 H   0  0  0  0  0  0  0  0  0  0  0  0
    1.8273    1.0231   -3.5504 H   0  0  0  0  0  0  0  0  0  0  0  0
    1.5435   -0.3798   -4.6001 H   0  0  0  0  0  0  0  0  0  0  0  0
    0.6324   -0.1876   -0.5799 N   0  0  0  0  0  0  0  0  0  0  0  0
    0.3416    0.2216    0.8016 C   0  0  2  0  0  0  0  0  0  0  0  0
   -0.7670   -0.7066    1.3394 C   0  0  0  0  0  0  0  0  0  0  0  0
   -1.8440   -0.7809    0.7600 O   0  0  0  0  0  0  0  0  0  0  0  0
   -0.1921    1.6734    0.9476 C   0  0  0  0  0  0  0  0  0  0  0  0
    0.7230    2.8763    0.6026 C   0  0  0  0  0  0  0  0  0  0  0  0
   -0.1286    4.1515    0.7063 C   0  0  0  0  0  0  0  0  0  0  0  0
    1.3226    2.8603   -0.8103 C   0  0  0  0  0  0  0  0  0  0  0  0
   -0.1442   -0.5483   -1.1463 H   0  0  0  0  0  0  0  0  0  0  0  0
    1.2318    0.1112    1.4284 H   0  0  0  0  0  0  0  0  0  0  0  0
   -0.5173    1.8027    1.9857 H   0  0  0  0  0  0  0  0  0  0  0  0
   -1.0868    1.7519    0.3194 H   0  0  0  0  0  0  0  0  0  0  0  0
    1.5403    2.9261    1.3300 H   0  0  0  0  0  0  0  0  0  0  0  0
   -0.9232    4.1514   -0.0470 H   0  0  0  0  0  0  0  0  0  0  0  0
    0.4910    5.0415    0.5574 H   0  0  0  0  0  0  0  0  0  0  0  0
   -0.5894    4.2237    1.6965 H   0  0  0  0  0  0  0  0  0  0  0  0
    0.5956    2.4866   -1.5379 H   0  0  0  0  0  0  0  0  0  0  0  0
    1.6274    3.8662   -1.1158 H   0  0  0  0  0  0  0  0  0  0  0  0
    2.2177    2.2397   -0.8373 H   0  0  0  0  0  0  0  0  0  0  0  0
   -0.5244   -1.4937    2.4535 N   0  0  0  0  0  0  0  0  0  0  0  0
   -1.4163   -2.5313    3.0142 C   0  0  2  0  0  0  0  0  0  0  0  0
   -1.6649   -3.7486    2.0900 C   0  0  0  0  0  0  0  0  0  0  0  0
   -1.5350   -4.8792    2.5413 O   0  0  0  0  0  0  0  0  0  0  0  0
   -2.7460   -1.9282    3.4888 C   0  0  0  0  0  0  0  0  0  0  0  0
    0.4234   -1.4524    2.8186 H   0  0  0  0  0  0  0  0  0  0  0  0
   -0.9160   -2.9278    3.9036 H   0  0  0  0  0  0  0  0  0  0  0  0
   -3.3645   -1.6120    2.6439 H   0  0  0  0  0  0  0  0  0  0  0  0
   -3.3094   -2.6715    4.0616 H   0  0  0  0  0  0  0  0  0  0  0  0
   -2.5637   -1.0616    4.1311 H   0  0  0  0  0  0  0  0  0  0  0  0
   -2.0453   -3.5942    0.7715 N   0  0  0  0  0  0  0  0  0  0  0  0
   -2.4142   -4.6922   -0.1091 C   0  0  0  0  0  0  0  0  0  0  0  0
   -2.1713   -2.6304    0.4468 H   0  0  0  0  0  0  0  0  0  0  0  0
   -3.2732   -5.2365    0.2967 H   0  0  0  0  0  0  0  0  0  0  0  0
   -2.6853   -4.3045   -1.0958 H   0  0  0  0  0  0  0  0  0  0  0  0
   -1.5777   -5.3883   -0.2267 H   0  0  0  0  0  0  0  0  0  0  0  0
  1  2  2  0  0  0  0
  1  3  1  0  0  0  0
  1  7  1  0  0  0  0
  3  4  1  0  0  0  0
  3  5  1  0  0  0  0
  3  6  1  0  0  0  0
  7  8  1  0  0  0  0
  7 12  1  0  0  0  0
  8  9  1  0  0  0  0
  8 11  1  0  0  0  0
  8 13  1  0  0  0  0
  9 10  2  0  0  0  0
  9 17  1  0  0  0  0
 11 14  1  0  0  0  0
 11 15  1  0  0  0  0
 11 16  1  0  0  0  0
 17 18  1  0  0  0  0
 17 25  1  0  0  0  0
 18 19  1  0  0  0  0
 18 21  1  0  0  0  0
 18 26  1  0  0  0  0
 19 20  2  0  0  0  0
 19 36  1  0  0  0  0
 21 22  1  0  0  0  0
 21 27  1  0  0  0  0
 21 28  1  0  0  0  0
 22 23  1  0  0  0  0
 22 24  1  0  0  0  0
 22 29  1  0  0  0  0
 23 30  1  0  0  0  0
 23 31  1  0  0  0  0
 23 32  1  0  0  0  0
 24 33  1  0  0  0  0
 24 34  1  0  0  0  0
 24 35  1  0  0  0  0
 36 37  1  0  0  0  0
 36 41  1  0  0  0  0
 37 38  1  0  0  0  0
 37 40  1  0  0  0  0
 37 42  1  0  0  0  0
 38 39  2  0  0  0  0
 38 46  1  0  0  0  0
 40 43  1  0  0  0  0
 40 44  1  0  0  0  0
 40 45  1  0  0  0  0
 46 47  1  0  0  0  0
 46 48  1  0  0  0  0
 47 49  1  0  0  0  0
 47 50  1  0  0  0  0
 47 51  1  0  0  0  0
M  END
$$$$

  -OEChem-05262216553D

 51 50  0     1  0  0  0  0  0999 V2000
    0.0738   -2.1867   -3.0388 C   0  0  0  0  0  0  0  0  0  0  0  0
   -0.5747   -1.1609   -2.9145 O   0  0  0  0  0  0  0  0  0  0  0  0
   -0.6342   -3.4864   -3.3722 C   0  0  0  0  0  0  0  0  0  0  0  0
   -0.5027   -4.2024   -2.5572 H   0  0  0  0  0  0  0  0  0  0  0  0
   -1.7042   -3.3073   -3.5121 H   0  0  0  0  0  0  0  0  0  0  0  0
   -0.2257   -3.9109   -4.2924 H   0  0  0  0  0  0  0  0  0  0  0  0
    1.4389   -2.1908   -2.8159 N   0  0  0  0  0  0  0  0  0  0  0  0
    2.2796   -1.0358   -2.4298 C   0  0  2  0  0  0  0  0  0  0  0  0
    2.0110   -0.4894   -1.0080 C   0  0  0  0  0  0  0  0  0  0  0  0
    2.9569   -0.2667   -0.2627 O   0  0  0  0  0  0  0  0  0  0  0  0
    2.2013    0.0867   -3.4735 C   0  0  0  0  0  0  0  0  0  0  0  0
    1.8950   -3.0959   -2.8894 H   0  0  0  0  0  0  0  0  0  0  0  0
    3.3162   -1.3882   -2.4229 H   0  0  0  0  0  0  0  0  0  0  0  0
    1.2195    0.5684   -3.4672 H   0  0  0  0  0  0  0  0  0  0  0  0
    2.9556    0.8501   -3.2588 H   0  0  0  0  0  0  0  0  0  0  0  0
    2.3869   -0.3119   -4.4752 H   0  0  0  0  0  0  0  0  0  0  0  0
    0.7270   -0.3613   -0.5172 N   0  0  0  0  0  0  0  0  0  0  0  0
    0.3484    0.1311    0.8150 C   0  0  2  0  0  0  0  0  0  0  0  0
   -0.7258   -0.8094    1.4019 C   0  0  0  0  0  0  0  0  0  0  0  0
   -1.6419   -1.2212    0.6984 O   0  0  0  0  0  0  0  0  0  0  0  0
   -0.2823    1.5488    0.8201 C   0  0  0  0  0  0  0  0  0  0  0  0
    0.5727    2.7766    0.4161 C   0  0  0  0  0  0  0  0  0  0  0  0
   -0.3572    3.9989    0.3778 C   0  0  0  0  0  0  0  0  0  0  0  0
    1.2457    2.6865   -0.9594 C   0  0  0  0  0  0  0  0  0  0  0  0
   -0.0275   -0.5597   -1.1833 H   0  0  0  0  0  0  0  0  0  0  0  0
    1.2195    0.1288    1.4776 H   0  0  0  0  0  0  0  0  0  0  0  0
   -0.6625    1.7402    1.8294 H   0  0  0  0  0  0  0  0  0  0  0  0
   -1.1505    1.5142    0.1516 H   0  0  0  0  0  0  0  0  0  0  0  0
    1.3477    2.9365    1.1733 H   0  0  0  0  0  0  0  0  0  0  0  0
   -1.1126    3.8887   -0.4072 H   0  0  0  0  0  0  0  0  0  0  0  0
    0.2155    4.9112    0.1833 H   0  0  0  0  0  0  0  0  0  0  0  0
   -0.8689    4.1201    1.3376 H   0  0  0  0  0  0  0  0  0  0  0  0
    0.5766    2.2217   -1.6900 H   0  0  0  0  0  0  0  0  0  0  0  0
    1.5163    3.6814   -1.3268 H   0  0  0  0  0  0  0  0  0  0  0  0
    2.1705    2.1137   -0.8933 H   0  0  0  0  0  0  0  0  0  0  0  0
   -0.6228   -1.2293    2.7187 N   0  0  0  0  0  0  0  0  0  0  0  0
   -1.5269   -2.1558    3.4328 C   0  0  2  0  0  0  0  0  0  0  0  0
   -1.5155   -3.6118    2.9092 C   0  0  0  0  0  0  0  0  0  0  0  0
   -1.3411   -4.5323    3.6968 O   0  0  0  0  0  0  0  0  0  0  0  0
   -2.9586   -1.6040    3.4833 C   0  0  0  0  0  0  0  0  0  0  0  0
    0.2074   -0.9174    3.2154 H   0  0  0  0  0  0  0  0  0  0  0  0
   -1.1723   -2.2065    4.4674 H   0  0  0  0  0  0  0  0  0  0  0  0
   -3.4259   -1.6171    2.4943 H   0  0  0  0  0  0  0  0  0  0  0  0
   -3.5704   -2.2135    4.1558 H   0  0  0  0  0  0  0  0  0  0  0  0
   -2.9571   -0.5747    3.8543 H   0  0  0  0  0  0  0  0  0  0  0  0
   -1.7020   -3.8988    1.5716 N   0  0  0  0  0  0  0  0  0  0  0  0
   -1.7125   -5.2440    1.0155 C   0  0  0  0  0  0  0  0  0  0  0  0
   -1.8441   -3.0939    0.9545 H   0  0  0  0  0  0  0  0  0  0  0  0
   -2.4906   -5.8492    1.4924 H   0  0  0  0  0  0  0  0  0  0  0  0
   -1.9146   -5.2057   -0.0592 H   0  0  0  0  0  0  0  0  0  0  0  0
   -0.7429   -5.7285    1.1701 H   0  0  0  0  0  0  0  0  0  0  0  0
  1  2  2  0  0  0  0
  1  3  1  0  0  0  0
  1  7  1  0  0  0  0
  3  4  1  0  0  0  0
  3  5  1  0  0  0  0
  3  6  1  0  0  0  0
  7  8  1  0  0  0  0
  7 12  1  0  0  0  0
  8  9  1  0  0  0  0
  8 11  1  0  0  0  0
  8 13  1  0  0  0  0
  9 10  2  0  0  0  0
  9 17  1  0  0  0  0
 11 14  1  0  0  0  0
 11 15  1  0  0  0  0
 11 16  1  0  0  0  0
 17 18  1  0  0  0  0
 17 25  1  0  0  0  0
 18 19  1  0  0  0  0
 18 21  1  0  0  0  0
 18 26  1  0  0  0  0
 19 20  2  0  0  0  0
 19 36  1  0  0  0  0
 21 22  1  0  0  0  0
 21 27  1  0  0  0  0
 21 28  1  0  0  0  0
 22 23  1  0  0  0  0
 22 24  1  0  0  0  0
 22 29  1  0  0  0  0
 23 30  1  0  0  0  0
 23 31  1  0  0  0  0
 23 32  1  0  0  0  0
 24 33  1  0  0  0  0
 24 34  1  0  0  0  0
 24 35  1  0  0  0  0
 36 37  1  0  0  0  0
 36 41  1  0  0  0  0
 37 38  1  0  0  0  0
 37 40  1  0  0  0  0
 37 42  1  0  0  0  0
 38 39  2  0  0  0  0
 38 46  1  0  0  0  0
 40 43  1  0  0  0  0
 40 44  1  0  0  0  0
 40 45  1  0  0  0  0
 46 47  1  0  0  0  0
 46 48  1  0  0  0  0
 47 49  1  0  0  0  0
 47 50  1  0  0  0  0
 47 51  1  0  0  0  0
M  END
$$$$

  -OEChem-05262216553D

 51 50  0     1  0  0  0  0  0999 V2000
    0.1704   -2.0048   -3.1992 C   0  0  0  0  0  0  0  0  0  0  0  0
   -0.4125   -0.9455   -3.0355 O   0  0  0  0  0  0  0  0  0  0  0  0
   -0.5982   -3.2173   -3.6889 C   0  0  0  0  0  0  0  0  0  0  0  0
   -0.6516   -3.9684   -2.8971 H   0  0  0  0  0  0  0  0  0  0  0  0
   -1.6155   -2.9299   -3.9697 H   0  0  0  0  0  0  0  0  0  0  0  0
   -0.1028   -3.6503   -4.5613 H   0  0  0  0  0  0  0  0  0  0  0  0
    1.5121   -2.1274   -2.8871 N   0  0  0  0  0  0  0  0  0  0  0  0
    2.4124   -1.0582   -2.4017 C   0  0  2  0  0  0  0  0  0  0  0  0
    2.0971   -0.5256   -0.9831 C   0  0  0  0  0  0  0  0  0  0  0  0
    3.0229   -0.2534   -0.2289 O   0  0  0  0  0  0  0  0  0  0  0  0
    2.4989    0.0915   -3.4150 C   0  0  0  0  0  0  0  0  0  0  0  0
    1.9105   -3.0542   -3.0083 H   0  0  0  0  0  0  0  0  0  0  0  0
    3.4140   -1.4955   -2.3351 H   0  0  0  0  0  0  0  0  0  0  0  0
    1.5542    0.6389   -3.4780 H   0  0  0  0  0  0  0  0  0  0  0  0
    3.2816    0.7961   -3.1162 H   0  0  0  0  0  0  0  0  0  0  0  0
    2.7438   -0.2951   -4.4087 H   0  0  0  0  0  0  0  0  0  0  0  0
    0.8022   -0.4395   -0.5110 N   0  0  0  0  0  0  0  0  0  0  0  0
    0.3868    0.0717    0.8043 C   0  0  2  0  0  0  0  0  0  0  0  0
   -0.6576   -0.8819    1.4281 C   0  0  0  0  0  0  0  0  0  0  0  0
   -1.4210   -1.5284    0.7179 O   0  0  0  0  0  0  0  0  0  0  0  0
   -0.3062    1.4607    0.7537 C   0  0  0  0  0  0  0  0  0  0  0  0
    0.4942    2.7147    0.3199 C   0  0  0  0  0  0  0  0  0  0  0  0
   -0.4923    3.8897    0.2310 C   0  0  0  0  0  0  0  0  0  0  0  0
    1.1842    2.6120   -1.0455 C   0  0  0  0  0  0  0  0  0  0  0  0
    0.0668   -0.6383   -1.1964 H   0  0  0  0  0  0  0  0  0  0  0  0
    1.2511    0.1266    1.4738 H   0  0  0  0  0  0  0  0  0  0  0  0
   -0.7081    1.6711    1.7506 H   0  0  0  0  0  0  0  0  0  0  0  0
   -1.1628    1.3630    0.0767 H   0  0  0  0  0  0  0  0  0  0  0  0
    1.2522    2.9360    1.0788 H   0  0  0  0  0  0  0  0  0  0  0  0
   -1.2323    3.7177   -0.5576 H   0  0  0  0  0  0  0  0  0  0  0  0
    0.0385    4.8215    0.0117 H   0  0  0  0  0  0  0  0  0  0  0  0
   -1.0208    4.0185    1.1807 H   0  0  0  0  0  0  0  0  0  0  0  0
    0.5408    2.0986   -1.7668 H   0  0  0  0  0  0  0  0  0  0  0  0
    1.4175    3.6056   -1.4405 H   0  0  0  0  0  0  0  0  0  0  0  0
    2.1304    2.0792   -0.9538 H   0  0  0  0  0  0  0  0  0  0  0  0
   -0.7336   -0.9984    2.8077 N   0  0  0  0  0  0  0  0  0  0  0  0
   -1.7366   -1.7519    3.5903 C   0  0  2  0  0  0  0  0  0  0  0  0
   -1.6649   -3.2913    3.4571 C   0  0  0  0  0  0  0  0  0  0  0  0
   -1.6898   -3.9820    4.4675 O   0  0  0  0  0  0  0  0  0  0  0  0
   -3.1561   -1.2476    3.2941 C   0  0  0  0  0  0  0  0  0  0  0  0
   -0.0375   -0.4749    3.3312 H   0  0  0  0  0  0  0  0  0  0  0  0
   -1.5379   -1.5367    4.6453 H   0  0  0  0  0  0  0  0  0  0  0  0
   -3.4681   -1.5117    2.2794 H   0  0  0  0  0  0  0  0  0  0  0  0
   -3.8665   -1.6964    3.9955 H   0  0  0  0  0  0  0  0  0  0  0  0
   -3.2044   -0.1600    3.4020 H   0  0  0  0  0  0  0  0  0  0  0  0
   -1.6034   -3.9071    2.2235 N   0  0  0  0  0  0  0  0  0  0  0  0
   -1.6058   -5.3498    2.0290 C   0  0  0  0  0  0  0  0  0  0  0  0
   -1.6190   -3.2856    1.4099 H   0  0  0  0  0  0  0  0  0  0  0  0
   -2.5254   -5.7881    2.4305 H   0  0  0  0  0  0  0  0  0  0  0  0
   -1.5462   -5.5862    0.9624 H   0  0  0  0  0  0  0  0  0  0  0  0
   -0.7475   -5.8054    2.5335 H   0  0  0  0  0  0  0  0  0  0  0  0
  1  2  2  0  0  0  0
  1  3  1  0  0  0  0
  1  7  1  0  0  0  0
  3  4  1  0  0  0  0
  3  5  1  0  0  0  0
  3  6  1  0  0  0  0
  7  8  1  0  0  0  0
  7 12  1  0  0  0  0
  8  9  1  0  0  0  0
  8 11  1  0  0  0  0
  8 13  1  0  0  0  0
  9 10  2  0  0  0  0
  9 17  1  0  0  0  0
 11 14  1  0  0  0  0
 11 15  1  0  0  0  0
 11 16  1  0  0  0  0
 17 18  1  0  0  0  0
 17 25  1  0  0  0  0
 18 19  1  0  0  0  0
 18 21  1  0  0  0  0
 18 26  1  0  0  0  0
 19 20  2  0  0  0  0
 19 36  1  0  0  0  0
 21 22  1  0  0  0  0
 21 27  1  0  0  0  0
 21 28  1  0  0  0  0
 22 23  1  0  0  0  0
 22 24  1  0  0  0  0
 22 29  1  0  0  0  0
 23 30  1  0  0  0  0
 23 31  1  0  0  0  0
 23 32  1  0  0  0  0
 24 33  1  0  0  0  0
 24 34  1  0  0  0  0
 24 35  1  0  0  0  0
 36 37  1  0  0  0  0
 36 41  1  0  0  0  0
 37 38  1  0  0  0  0
 37 40  1  0  0  0  0
 37 42  1  0  0  0  0
 38 39  2  0  0  0  0
 38 46  1  0  0  0  0
 40 43  1  0  0  0  0
 40 44  1  0  0  0  0
 40 45  1  0  0  0  0
 46 47  1  0  0  0  0
 46 48  1  0  0  0  0
 47 49  1  0  0  0  0
 47 50  1  0  0  0  0
 47 51  1  0  0  0  0
M  END
$$$$

  -OEChem-05262216553D

 51 50  0     1  0  0  0  0  0999 V2000
    0.8801   -3.1745   -2.2471 C   0  0  0  0  0  0  0  0  0  0  0  0
   -0.1755   -2.7562   -1.8011 O   0  0  0  0  0  0  0  0  0  0  0  0
    1.2071   -4.6520   -2.1379 C   0  0  0  0  0  0  0  0  0  0  0  0
    2.0642   -4.7954   -1.4753 H   0  0  0  0  0  0  0  0  0  0  0  0
    0.3523   -5.1990   -1.7304 H   0  0  0  0  0  0  0  0  0  0  0  0
    1.4452   -5.0570   -3.1244 H   0  0  0  0  0  0  0  0  0  0  0  0
    1.8020   -2.3146   -2.8148 N   0  0  0  0  0  0  0  0  0  0  0  0
    1.7042   -0.8432   -2.8083 C   0  0  2  0  0  0  0  0  0  0  0  0
    1.6638   -0.2640   -1.3759 C   0  0  0  0  0  0  0  0  0  0  0  0
    2.7095   -0.2083   -0.7393 O   0  0  0  0  0  0  0  0  0  0  0  0
    0.5383   -0.3627   -3.6885 C   0  0  0  0  0  0  0  0  0  0  0  0
    2.7088   -2.7205   -3.0272 H   0  0  0  0  0  0  0  0  0  0  0  0
    2.6199   -0.4500   -3.2609 H   0  0  0  0  0  0  0  0  0  0  0  0
   -0.4282   -0.6872   -3.2923 H   0  0  0  0  0  0  0  0  0  0  0  0
    0.5353    0.7302   -3.7457 H   0  0  0  0  0  0  0  0  0  0  0  0
    0.6439   -0.7610   -4.7022 H   0  0  0  0  0  0  0  0  0  0  0  0
    0.4656    0.0372   -0.7548 N   0  0  0  0  0  0  0  0  0  0  0  0
    0.3323    0.3326    0.6809 C   0  0  2  0  0  0  0  0  0  0  0  0
   -0.8842   -0.4539    1.2243 C   0  0  0  0  0  0  0  0  0  0  0  0
   -1.7399   -0.8694    0.4509 O   0  0  0  0  0  0  0  0  0  0  0  0
    0.0244    1.8260    0.9870 C   0  0  0  0  0  0  0  0  0  0  0  0
    1.0716    2.9256    0.6739 C   0  0  0  0  0  0  0  0  0  0  0  0
    0.4090    4.2844    0.9537 C   0  0  0  0  0  0  0  0  0  0  0  0
    1.5600    2.9725   -0.7813 C   0  0  0  0  0  0  0  0  0  0  0  0
   -0.3537   -0.3957   -1.1910 H   0  0  0  0  0  0  0  0  0  0  0  0
    1.2263    0.0181    1.2287 H   0  0  0  0  0  0  0  0  0  0  0  0
   -0.2056    1.9100    2.0542 H   0  0  0  0  0  0  0  0  0  0  0  0
   -0.8918    2.0777    0.4406 H   0  0  0  0  0  0  0  0  0  0  0  0
    1.9375    2.7990    1.3326 H   0  0  0  0  0  0  0  0  0  0  0  0
   -0.4341    4.4541    0.2761 H   0  0  0  0  0  0  0  0  0  0  0  0
    1.1289    5.0987    0.8235 H   0  0  0  0  0  0  0  0  0  0  0  0
    0.0395    4.3240    1.9832 H   0  0  0  0  0  0  0  0  0  0  0  0
    0.7409    2.7589   -1.4749 H   0  0  0  0  0  0  0  0  0  0  0  0
    1.9671    3.9590   -1.0245 H   0  0  0  0  0  0  0  0  0  0  0  0
    2.3653    2.2564   -0.9381 H   0  0  0  0  0  0  0  0  0  0  0  0
   -1.0634   -0.6181    2.5892 N   0  0  0  0  0  0  0  0  0  0  0  0
   -2.1273   -1.4068    3.2482 C   0  0  2  0  0  0  0  0  0  0  0  0
   -2.0885   -2.9256    2.9488 C   0  0  0  0  0  0  0  0  0  0  0  0
   -2.1520   -3.7182    3.8797 O   0  0  0  0  0  0  0  0  0  0  0  0
   -3.5189   -0.8283    2.9559 C   0  0  0  0  0  0  0  0  0  0  0  0
   -0.2979   -0.2953    3.1742 H   0  0  0  0  0  0  0  0  0  0  0  0
   -1.9676   -1.3097    4.3269 H   0  0  0  0  0  0  0  0  0  0  0  0
   -3.8129   -1.0020    1.9168 H   0  0  0  0  0  0  0  0  0  0  0  0
   -4.2636   -1.3038    3.6018 H   0  0  0  0  0  0  0  0  0  0  0  0
   -3.5315    0.2489    3.1468 H   0  0  0  0  0  0  0  0  0  0  0  0
   -1.9691   -3.4099    1.6607 N   0  0  0  0  0  0  0  0  0  0  0  0
   -1.9261   -4.8220    1.3123 C   0  0  0  0  0  0  0  0  0  0  0  0
   -1.9344   -2.7110    0.9118 H   0  0  0  0  0  0  0  0  0  0  0  0
   -2.8599   -5.3159    1.5997 H   0  0  0  0  0  0  0  0  0  0  0  0
   -1.7903   -4.9369    0.2323 H   0  0  0  0  0  0  0  0  0  0  0  0
   -1.0924   -5.3175    1.8202 H   0  0  0  0  0  0  0  0  0  0  0  0
  1  2  2  0  0  0  0
  1  3  1  0  0  0  0
  1  7  1  0  0  0  0
  3  4  1  0  0  0  0
  3  5  1  0  0  0  0
  3  6  1  0  0  0  0
  7  8  1  0  0  0  0
  7 12  1  0  0  0  0
  8  9  1  0  0  0  0
  8 11  1  0  0  0  0
  8 13  1  0  0  0  0
  9 10  2  0  0  0  0
  9 17  1  0  0  0  0
 11 14  1  0  0  0  0
 11 15  1  0  0  0  0
 11 16  1  0  0  0  0
 17 18  1  0  0  0  0
 17 25  1  0  0  0  0
 18 19  1  0  0  0  0
 18 21  1  0  0  0  0
 18 26  1  0  0  0  0
 19 20  2  0  0  0  0
 19 36  1  0  0  0  0
 21 22  1  0  0  0  0
 21 27  1  0  0  0  0
 21 28  1  0  0  0  0
 22 23  1  0  0  0  0
 22 24  1  0  0  0  0
 22 29  1  0  0  0  0
 23 30  1  0  0  0  0
 23 31  1  0  0  0  0
 23 32  1  0  0  0  0
 24 33  1  0  0  0  0
 24 34  1  0  0  0  0
 24 35  1  0  0  0  0
 36 37  1  0  0  0  0
 36 41  1  0  0  0  0
 37 38  1  0  0  0  0
 37 40  1  0  0  0  0
 37 42  1  0  0  0  0
 38 39  2  0  0  0  0
 38 46  1  0  0  0  0
 40 43  1  0  0  0  0
 40 44  1  0  0  0  0
 40 45  1  0  0  0  0
 46 47  1  0  0  0  0
 46 48  1  0  0  0  0
 47 49  1  0  0  0  0
 47 50  1  0  0  0  0
 47 51  1  0  0  0  0
M  END
$$$$

  -OEChem-05262216553D

 51 50  0     1  0  0  0  0  0999 V2000
    1.6364   -3.2982   -2.1223 C   0  0  0  0  0  0  0  0  0  0  0  0
    0.6265   -3.2792   -1.4373 O   0  0  0  0  0  0  0  0  0  0  0  0
    2.5518   -4.5073   -2.0695 C   0  0  0  0  0  0  0  0  0  0  0  0
    3.5150   -4.2264   -1.6363 H   0  0  0  0  0  0  0  0  0  0  0  0
    2.1045   -5.2922   -1.4531 H   0  0  0  0  0  0  0  0  0  0  0  0
    2.7124   -4.9006   -3.0762 H   0  0  0  0  0  0  0  0  0  0  0  0
    1.9747   -2.2255   -2.9273 N   0  0  0  0  0  0  0  0  0  0  0  0
    1.2967   -0.9163   -2.8954 C   0  0  2  0  0  0  0  0  0  0  0  0
    1.3399   -0.2680   -1.4901 C   0  0  0  0  0  0  0  0  0  0  0  0
    2.4282   -0.1226   -0.9437 O   0  0  0  0  0  0  0  0  0  0  0  0
   -0.1215   -1.0305   -3.4815 C   0  0  0  0  0  0  0  0  0  0  0  0
    2.9098   -2.2562   -3.3225 H   0  0  0  0  0  0  0  0  0  0  0  0
    1.8540   -0.2383   -3.5487 H   0  0  0  0  0  0  0  0  0  0  0  0
   -0.7677   -1.6464   -2.8487 H   0  0  0  0  0  0  0  0  0  0  0  0
   -0.5743   -0.0386   -3.5754 H   0  0  0  0  0  0  0  0  0  0  0  0
   -0.0816   -1.4847   -4.4760 H   0  0  0  0  0  0  0  0  0  0  0  0
    0.1818    0.1145   -0.8339 N   0  0  0  0  0  0  0  0  0  0  0  0
    0.1331    0.3561    0.6179 C   0  0  2  0  0  0  0  0  0  0  0  0
   -0.8886   -0.6245    1.2473 C   0  0  0  0  0  0  0  0  0  0  0  0
   -1.5806   -1.3308    0.5216 O   0  0  0  0  0  0  0  0  0  0  0  0
   -0.3279    1.8012    0.9556 C   0  0  0  0  0  0  0  0  0  0  0  0
    0.5791    2.9950    0.5600 C   0  0  0  0  0  0  0  0  0  0  0  0
   -0.1824    4.2908    0.8780 C   0  0  0  0  0  0  0  0  0  0  0  0
    0.9685    3.0616   -0.9235 C   0  0  0  0  0  0  0  0  0  0  0  0
   -0.6607   -0.3155   -1.2169 H   0  0  0  0  0  0  0  0  0  0  0  0
    1.1064    0.1721    1.0841 H   0  0  0  0  0  0  0  0  0  0  0  0
   -0.4823    1.8706    2.0367 H   0  0  0  0  0  0  0  0  0  0  0  0
   -1.3049    1.9463    0.4812 H   0  0  0  0  0  0  0  0  0  0  0  0
    1.4957    2.9584    1.1585 H   0  0  0  0  0  0  0  0  0  0  0  0
   -1.0810    4.3761    0.2583 H   0  0  0  0  0  0  0  0  0  0  0  0
    0.4515    5.1637    0.6923 H   0  0  0  0  0  0  0  0  0  0  0  0
   -0.4829    4.3097    1.9302 H   0  0  0  0  0  0  0  0  0  0  0  0
    0.1066    2.8449   -1.5622 H   0  0  0  0  0  0  0  0  0  0  0  0
    1.3458    4.0566   -1.1800 H   0  0  0  0  0  0  0  0  0  0  0  0
    1.7675    2.3532   -1.1427 H   0  0  0  0  0  0  0  0  0  0  0  0
   -1.1317   -0.6186    2.6128 N   0  0  0  0  0  0  0  0  0  0  0  0
   -2.0560   -1.5065    3.3515 C   0  0  2  0  0  0  0  0  0  0  0  0
   -1.6788   -3.0078    3.3190 C   0  0  0  0  0  0  0  0  0  0  0  0
   -1.6496   -3.6361    4.3695 O   0  0  0  0  0  0  0  0  0  0  0  0
   -3.5114   -1.2990    2.9091 C   0  0  0  0  0  0  0  0  0  0  0  0
   -0.5011   -0.0462    3.1668 H   0  0  0  0  0  0  0  0  0  0  0  0
   -2.0030   -1.2076    4.4035 H   0  0  0  0  0  0  0  0  0  0  0  0
   -3.6824   -1.6927    1.9031 H   0  0  0  0  0  0  0  0  0  0  0  0
   -4.1878   -1.8185    3.5951 H   0  0  0  0  0  0  0  0  0  0  0  0
   -3.7629   -0.2345    2.9150 H   0  0  0  0  0  0  0  0  0  0  0  0
   -1.3541   -3.6504    2.1404 N   0  0  0  0  0  0  0  0  0  0  0  0
   -0.9443   -5.0438    2.0498 C   0  0  0  0  0  0  0  0  0  0  0  0
   -1.3895   -3.0859    1.2862 H   0  0  0  0  0  0  0  0  0  0  0  0
   -1.7397   -5.7017    2.4148 H   0  0  0  0  0  0  0  0  0  0  0  0
   -0.7287   -5.3036    1.0086 H   0  0  0  0  0  0  0  0  0  0  0  0
   -0.0408   -5.2166    2.6434 H   0  0  0  0  0  0  0  0  0  0  0  0
  1  2  2  0  0  0  0
  1  3  1  0  0  0  0
  1  7  1  0  0  0  0
  3  4  1  0  0  0  0
  3  5  1  0  0  0  0
  3  6  1  0  0  0  0
  7  8  1  0  0  0  0
  7 12  1  0  0  0  0
  8  9  1  0  0  0  0
  8 11  1  0  0  0  0
  8 13  1  0  0  0  0
  9 10  2  0  0  0  0
  9 17  1  0  0  0  0
 11 14  1  0  0  0  0
 11 15  1  0  0  0  0
 11 16  1  0  0  0  0
 17 18  1  0  0  0  0
 17 25  1  0  0  0  0
 18 19  1  0  0  0  0
 18 21  1  0  0  0  0
 18 26  1  0  0  0  0
 19 20  2  0  0  0  0
 19 36  1  0  0  0  0
 21 22  1  0  0  0  0
 21 27  1  0  0  0  0
 21 28  1  0  0  0  0
 22 23  1  0  0  0  0
 22 24  1  0  0  0  0
 22 29  1  0  0  0  0
 23 30  1  0  0  0  0
 23 31  1  0  0  0  0
 23 32  1  0  0  0  0
 24 33  1  0  0  0  0
 24 34  1  0  0  0  0
 24 35  1  0  0  0  0
 36 37  1  0  0  0  0
 36 41  1  0  0  0  0
 37 38  1  0  0  0  0
 37 40  1  0  0  0  0
 37 42  1  0  0  0  0
 38 39  2  0  0  0  0
 38 46  1  0  0  0  0
 40 43  1  0  0  0  0
 40 44  1  0  0  0  0
 40 45  1  0  0  0  0
 46 47  1  0  0  0  0
 46 48  1  0  0  0  0
 47 49  1  0  0  0  0
 47 50  1  0  0  0  0
 47 51  1  0  0  0  0
M  END
$$$$

  -OEChem-05262216553D

 51 50  0     1  0  0  0  0  0999 V2000
    2.1262   -3.2468   -2.4628 C   0  0  0  0  0  0  0  0  0  0  0  0
    1.1692   -3.5629   -1.7753 O   0  0  0  0  0  0  0  0  0  0  0  0
    3.3046   -4.1945   -2.5852 C   0  0  0  0  0  0  0  0  0  0  0  0
    4.1974   -3.7340   -2.1551 H   0  0  0  0  0  0  0  0  0  0  0  0
    3.0969   -5.1260   -2.0511 H   0  0  0  0  0  0  0  0  0  0  0  0
    3.4911   -4.4262   -3.6365 H   0  0  0  0  0  0  0  0  0  0  0  0
    2.1682   -2.0325   -3.1230 N   0  0  0  0  0  0  0  0  0  0  0  0
    1.2237   -0.9246   -2.8867 C   0  0  2  0  0  0  0  0  0  0  0  0
    1.2800   -0.3918   -1.4332 C   0  0  0  0  0  0  0  0  0  0  0  0
    2.3693   -0.2835   -0.8793 O   0  0  0  0  0  0  0  0  0  0  0  0
   -0.1958   -1.3076   -3.3427 C   0  0  0  0  0  0  0  0  0  0  0  0
    3.0750   -1.7896   -3.5101 H   0  0  0  0  0  0  0  0  0  0  0  0
    1.5399   -0.0895   -3.5185 H   0  0  0  0  0  0  0  0  0  0  0  0
   -0.6518   -2.0318   -2.6606 H   0  0  0  0  0  0  0  0  0  0  0  0
   -0.8359   -0.4211   -3.3794 H   0  0  0  0  0  0  0  0  0  0  0  0
   -0.1647   -1.7488   -4.3435 H   0  0  0  0  0  0  0  0  0  0  0  0
    0.1357    0.0420   -0.7835 N   0  0  0  0  0  0  0  0  0  0  0  0
    0.0901    0.3103    0.6650 C   0  0  2  0  0  0  0  0  0  0  0  0
   -0.9695   -0.6239    1.3123 C   0  0  0  0  0  0  0  0  0  0  0  0
   -1.5104   -1.4883    0.6307 O   0  0  0  0  0  0  0  0  0  0  0  0
   -0.3029    1.7876    0.9590 C   0  0  0  0  0  0  0  0  0  0  0  0
    0.6618    2.9283    0.5416 C   0  0  0  0  0  0  0  0  0  0  0  0
   -0.0437    4.2647    0.8196 C   0  0  0  0  0  0  0  0  0  0  0  0
    1.0635    2.9443   -0.9400 C   0  0  0  0  0  0  0  0  0  0  0  0
   -0.7245   -0.3366   -1.1777 H   0  0  0  0  0  0  0  0  0  0  0  0
    1.0533    0.0969    1.1400 H   0  0  0  0  0  0  0  0  0  0  0  0
   -0.4533    1.8994    2.0366 H   0  0  0  0  0  0  0  0  0  0  0  0
   -1.2703    1.9658    0.4766 H   0  0  0  0  0  0  0  0  0  0  0  0
    1.5716    2.8650    1.1481 H   0  0  0  0  0  0  0  0  0  0  0  0
   -0.9341    4.3729    0.1918 H   0  0  0  0  0  0  0  0  0  0  0  0
    0.6287    5.1040    0.6150 H   0  0  0  0  0  0  0  0  0  0  0  0
   -0.3493    4.3256    1.8688 H   0  0  0  0  0  0  0  0  0  0  0  0
    0.1978    2.7482   -1.5801 H   0  0  0  0  0  0  0  0  0  0  0  0
    1.4829    3.9166   -1.2170 H   0  0  0  0  0  0  0  0  0  0  0  0
    1.8348    2.2001   -1.1368 H   0  0  0  0  0  0  0  0  0  0  0  0
   -1.4471   -0.3946    2.5952 N   0  0  0  0  0  0  0  0  0  0  0  0
   -2.5236   -1.1272    3.2970 C   0  0  2  0  0  0  0  0  0  0  0  0
   -2.2180   -2.6133    3.6003 C   0  0  0  0  0  0  0  0  0  0  0  0
   -2.3591   -3.0300    4.7427 O   0  0  0  0  0  0  0  0  0  0  0  0
   -3.8646   -0.9835    2.5633 C   0  0  0  0  0  0  0  0  0  0  0  0
   -0.9519    0.3151    3.1269 H   0  0  0  0  0  0  0  0  0  0  0  0
   -2.6461   -0.6445    4.2721 H   0  0  0  0  0  0  0  0  0  0  0  0
   -3.8622   -1.5327    1.6173 H   0  0  0  0  0  0  0  0  0  0  0  0
   -4.6743   -1.3811    3.1833 H   0  0  0  0  0  0  0  0  0  0  0  0
   -4.0735    0.0700    2.3552 H   0  0  0  0  0  0  0  0  0  0  0  0
   -1.7912   -3.4791    2.6137 N   0  0  0  0  0  0  0  0  0  0  0  0
   -1.4571   -4.8782    2.8369 C   0  0  0  0  0  0  0  0  0  0  0  0
   -1.6638   -3.0766    1.6806 H   0  0  0  0  0  0  0  0  0  0  0  0
   -2.3168   -5.4172    3.2481 H   0  0  0  0  0  0  0  0  0  0  0  0
   -1.1724   -5.3515    1.8920 H   0  0  0  0  0  0  0  0  0  0  0  0
   -0.6181   -4.9646    3.5349 H   0  0  0  0  0  0  0  0  0  0  0  0
  1  2  2  0  0  0  0
  1  3  1  0  0  0  0
  1  7  1  0  0  0  0
  3  4  1  0  0  0  0
  3  5  1  0  0  0  0
  3  6  1  0  0  0  0
  7  8  1  0  0  0  0
  7 12  1  0  0  0  0
  8  9  1  0  0  0  0
  8 11  1  0  0  0  0
  8 13  1  0  0  0  0
  9 10  2  0  0  0  0
  9 17  1  0  0  0  0
 11 14  1  0  0  0  0
 11 15  1  0  0  0  0
 11 16  1  0  0  0  0
 17 18  1  0  0  0  0
 17 25  1  0  0  0  0
 18 19  1  0  0  0  0
 18 21  1  0  0  0  0
 18 26  1  0  0  0  0
 19 20  2  0  0  0  0
 19 36  1  0  0  0  0
 21 22  1  0  0  0  0
 21 27  1  0  0  0  0
 21 28  1  0  0  0  0
 22 23  1  0  0  0  0
 22 24  1  0  0  0  0
 22 29  1  0  0  0  0
 23 30  1  0  0  0  0
 23 31  1  0  0  0  0
 23 32  1  0  0  0  0
 24 33  1  0  0  0  0
 24 34  1  0  0  0  0
 24 35  1  0  0  0  0
 36 37  1  0  0  0  0
 36 41  1  0  0  0  0
 37 38  1  0  0  0  0
 37 40  1  0  0  0  0
 37 42  1  0  0  0  0
 38 39  2  0  0  0  0
 38 46  1  0  0  0  0
 40 43  1  0  0  0  0
 40 44  1  0  0  0  0
 40 45  1  0  0  0  0
 46 47  1  0  0  0  0
 46 48  1  0  0  0  0
 47 49  1  0  0  0  0
 47 50  1  0  0  0  0
 47 51  1  0  0  0  0
M  END
$$$$

  -OEChem-05262216553D

 51 50  0     1  0  0  0  0  0999 V2000
    2.1420   -3.2294   -2.5108 C   0  0  0  0  0  0  0  0  0  0  0  0
    1.1537   -3.5942   -1.8965 O   0  0  0  0  0  0  0  0  0  0  0  0
    3.3523   -4.1409   -2.5878 C   0  0  0  0  0  0  0  0  0  0  0  0
    4.1993   -3.6767   -2.0765 H   0  0  0  0  0  0  0  0  0  0  0  0
    3.1344   -5.0995   -2.1085 H   0  0  0  0  0  0  0  0  0  0  0  0
    3.6185   -4.3220   -3.6318 H   0  0  0  0  0  0  0  0  0  0  0  0
    2.1939   -1.9913   -3.1245 N   0  0  0  0  0  0  0  0  0  0  0  0
    1.2282   -0.9022   -2.8844 C   0  0  2  0  0  0  0  0  0  0  0  0
    1.2593   -0.3926   -1.4221 C   0  0  0  0  0  0  0  0  0  0  0  0
    2.3386   -0.3075   -0.8449 O   0  0  0  0  0  0  0  0  0  0  0  0
   -0.1817   -1.2881   -3.3669 C   0  0  0  0  0  0  0  0  0  0  0  0
    3.1192   -1.7178   -3.4409 H   0  0  0  0  0  0  0  0  0  0  0  0
    1.5436   -0.0535   -3.4981 H   0  0  0  0  0  0  0  0  0  0  0  0
   -0.6516   -2.0080   -2.6894 H   0  0  0  0  0  0  0  0  0  0  0  0
   -0.8201   -0.4012   -3.4213 H   0  0  0  0  0  0  0  0  0  0  0  0
   -0.1302   -1.7349   -4.3645 H   0  0  0  0  0  0  0  0  0  0  0  0
    0.1098    0.0637   -0.7962 N   0  0  0  0  0  0  0  0  0  0  0  0
    0.0447    0.3377    0.6515 C   0  0  2  0  0  0  0  0  0  0  0  0
   -1.0450   -0.5798    1.2773 C   0  0  0  0  0  0  0  0  0  0  0  0
   -1.3815   -1.5985    0.6858 O   0  0  0  0  0  0  0  0  0  0  0  0
   -0.2988    1.8291    0.9406 C   0  0  0  0  0  0  0  0  0  0  0  0
    0.7139    2.9352    0.5441 C   0  0  0  0  0  0  0  0  0  0  0  0
    0.0501    4.2950    0.8129 C   0  0  0  0  0  0  0  0  0  0  0  0
    1.1395    2.9420   -0.9312 C   0  0  0  0  0  0  0  0  0  0  0  0
   -0.7469   -0.2993   -1.2098 H   0  0  0  0  0  0  0  0  0  0  0  0
    0.9924    0.0963    1.1442 H   0  0  0  0  0  0  0  0  0  0  0  0
   -0.4547    1.9453    2.0168 H   0  0  0  0  0  0  0  0  0  0  0  0
   -1.2519    2.0446    0.4447 H   0  0  0  0  0  0  0  0  0  0  0  0
    1.6110    2.8388    1.1652 H   0  0  0  0  0  0  0  0  0  0  0  0
   -0.8219    4.4374    0.1665 H   0  0  0  0  0  0  0  0  0  0  0  0
    0.7563    5.1106    0.6275 H   0  0  0  0  0  0  0  0  0  0  0  0
   -0.2756    4.3632    1.8556 H   0  0  0  0  0  0  0  0  0  0  0  0
    0.2797    2.7692   -1.5858 H   0  0  0  0  0  0  0  0  0  0  0  0
    1.5891    3.9030   -1.2004 H   0  0  0  0  0  0  0  0  0  0  0  0
    1.8942    2.1784   -1.1162 H   0  0  0  0  0  0  0  0  0  0  0  0
   -1.7742   -0.2028    2.3973 N   0  0  0  0  0  0  0  0  0  0  0  0
   -2.9087   -0.9231    3.0161 C   0  0  2  0  0  0  0  0  0  0  0  0
   -2.5584   -2.3009    3.6272 C   0  0  0  0  0  0  0  0  0  0  0  0
   -2.8736   -2.5362    4.7865 O   0  0  0  0  0  0  0  0  0  0  0  0
   -4.0916   -1.0413    2.0444 C   0  0  0  0  0  0  0  0  0  0  0  0
   -1.4527    0.6371    2.8684 H   0  0  0  0  0  0  0  0  0  0  0  0
   -3.2521   -0.3061    3.8528 H   0  0  0  0  0  0  0  0  0  0  0  0
   -3.8711   -1.7383    1.2309 H   0  0  0  0  0  0  0  0  0  0  0  0
   -4.9755   -1.4091    2.5751 H   0  0  0  0  0  0  0  0  0  0  0  0
   -4.3288   -0.0646    1.6127 H   0  0  0  0  0  0  0  0  0  0  0  0
   -1.9040   -3.2716    2.8957 N   0  0  0  0  0  0  0  0  0  0  0  0
   -1.5493   -4.5868    3.4090 C   0  0  0  0  0  0  0  0  0  0  0  0
   -1.6470   -3.0209    1.9363 H   0  0  0  0  0  0  0  0  0  0  0  0
   -2.4477   -5.1346    3.7117 H   0  0  0  0  0  0  0  0  0  0  0  0
   -1.0351   -5.1654    2.6354 H   0  0  0  0  0  0  0  0  0  0  0  0
   -0.8830   -4.4948    4.2729 H   0  0  0  0  0  0  0  0  0  0  0  0
  1  2  2  0  0  0  0
  1  3  1  0  0  0  0
  1  7  1  0  0  0  0
  3  4  1  0  0  0  0
  3  5  1  0  0  0  0
  3  6  1  0  0  0  0
  7  8  1  0  0  0  0
  7 12  1  0  0  0  0
  8  9  1  0  0  0  0
  8 11  1  0  0  0  0
  8 13  1  0  0  0  0
  9 10  2  0  0  0  0
  9 17  1  0  0  0  0
 11 14  1  0  0  0  0
 11 15  1  0  0  0  0
 11 16  1  0  0  0  0
 17 18  1  0  0  0  0
 17 25  1  0  0  0  0
 18 19  1  0  0  0  0
 18 21  1  0  0  0  0
 18 26  1  0  0  0  0
 19 20  2  0  0  0  0
 19 36  1  0  0  0  0
 21 22  1  0  0  0  0
 21 27  1  0  0  0  0
 21 28  1  0  0  0  0
 22 23  1  0  0  0  0
 22 24  1  0  0  0  0
 22 29  1  0  0  0  0
 23 30  1  0  0  0  0
 23 31  1  0  0  0  0
 23 32  1  0  0  0  0
 24 33  1  0  0  0  0
 24 34  1  0  0  0  0
 24 35  1  0  0  0  0
 36 37  1  0  0  0  0
 36 41  1  0  0  0  0
 37 38  1  0  0  0  0
 37 40  1  0  0  0  0
 37 42  1  0  0  0  0
 38 39  2  0  0  0  0
 38 46  1  0  0  0  0
 40 43  1  0  0  0  0
 40 44  1  0  0  0  0
 40 45  1  0  0  0  0
 46 47  1  0  0  0  0
 46 48  1  0  0  0  0
 47 49  1  0  0  0  0
 47 50  1  0  0  0  0
 47 51  1  0  0  0  0
M  END
$$$$

  -OEChem-05262216553D

 51 50  0     1  0  0  0  0  0999 V2000
    0.4648   -2.5631   -2.4119 C   0  0  0  0  0  0  0  0  0  0  0  0
   -0.3810   -1.6981   -2.5864 O   0  0  0  0  0  0  0  0  0  0  0  0
    0.0322   -4.0074   -2.2478 C   0  0  0  0  0  0  0  0  0  0  0  0
    0.2399   -4.3426   -1.2282 H   0  0  0  0  0  0  0  0  0  0  0  0
   -1.0406   -4.1043   -2.4376 H   0  0  0  0  0  0  0  0  0  0  0  0
    0.5725   -4.6438   -2.9529 H   0  0  0  0  0  0  0  0  0  0  0  0
    1.8069   -2.2412   -2.3063 N   0  0  0  0  0  0  0  0  0  0  0  0
    2.3945   -0.8838   -2.2640 C   0  0  2  0  0  0  0  0  0  0  0  0
    2.0162   -0.0935   -0.9923 C   0  0  0  0  0  0  0  0  0  0  0  0
    2.8974    0.2819   -0.2298 O   0  0  0  0  0  0  0  0  0  0  0  0
    2.0720   -0.0803   -3.5322 C   0  0  0  0  0  0  0  0  0  0  0  0
    2.4169   -3.0136   -2.0529 H   0  0  0  0  0  0  0  0  0  0  0  0
    3.4824   -1.0058   -2.2364 H   0  0  0  0  0  0  0  0  0  0  0  0
    1.0131    0.1897   -3.5768 H   0  0  0  0  0  0  0  0  0  0  0  0
    2.6578    0.8441   -3.5476 H   0  0  0  0  0  0  0  0  0  0  0  0
    2.3209   -0.6629   -4.4243 H   0  0  0  0  0  0  0  0  0  0  0  0
    0.6876    0.0585   -0.6492 N   0  0  0  0  0  0  0  0  0  0  0  0
    0.2010    0.4391    0.6840 C   0  0  2  0  0  0  0  0  0  0  0  0
   -0.7025   -0.7156    1.1997 C   0  0  0  0  0  0  0  0  0  0  0  0
   -0.3290   -1.8763    1.0612 O   0  0  0  0  0  0  0  0  0  0  0  0
   -0.5850    1.7816    0.6626 C   0  0  0  0  0  0  0  0  0  0  0  0
    0.1682    3.0923    0.3173 C   0  0  0  0  0  0  0  0  0  0  0  0
   -0.8695    4.2217    0.2271 C   0  0  0  0  0  0  0  0  0  0  0  0
    0.9301    3.0815   -1.0154 C   0  0  0  0  0  0  0  0  0  0  0  0
    0.0375   -0.4347   -1.2689 H   0  0  0  0  0  0  0  0  0  0  0  0
    1.0339    0.5395    1.3879 H   0  0  0  0  0  0  0  0  0  0  0  0
   -1.0208    1.9375    1.6544 H   0  0  0  0  0  0  0  0  0  0  0  0
   -1.4091    1.6659   -0.0503 H   0  0  0  0  0  0  0  0  0  0  0  0
    0.8782    3.3171    1.1207 H   0  0  0  0  0  0  0  0  0  0  0  0
   -1.5657    4.0455   -0.5994 H   0  0  0  0  0  0  0  0  0  0  0  0
   -0.3752    5.1850    0.0650 H   0  0  0  0  0  0  0  0  0  0  0  0
   -1.4431    4.2900    1.1566 H   0  0  0  0  0  0  0  0  0  0  0  0
    0.3355    2.6044   -1.8008 H   0  0  0  0  0  0  0  0  0  0  0  0
    1.1673    4.1011   -1.3350 H   0  0  0  0  0  0  0  0  0  0  0  0
    1.8784    2.5546   -0.9090 H   0  0  0  0  0  0  0  0  0  0  0  0
   -1.9307   -0.4813    1.8035 N   0  0  0  0  0  0  0  0  0  0  0  0
   -2.9490   -1.4827    2.1882 C   0  0  2  0  0  0  0  0  0  0  0  0
   -2.5675   -2.4001    3.3738 C   0  0  0  0  0  0  0  0  0  0  0  0
   -3.3937   -2.6172    4.2505 O   0  0  0  0  0  0  0  0  0  0  0  0
   -3.3904   -2.3134    0.9748 C   0  0  0  0  0  0  0  0  0  0  0  0
   -2.1947    0.4955    1.8883 H   0  0  0  0  0  0  0  0  0  0  0  0
   -3.8275   -0.9206    2.5214 H   0  0  0  0  0  0  0  0  0  0  0  0
   -2.5988   -2.9946    0.6496 H   0  0  0  0  0  0  0  0  0  0  0  0
   -4.2695   -2.9122    1.2323 H   0  0  0  0  0  0  0  0  0  0  0  0
   -3.6509   -1.6576    0.1385 H   0  0  0  0  0  0  0  0  0  0  0  0
   -1.3246   -2.9943    3.4591 N   0  0  0  0  0  0  0  0  0  0  0  0
   -0.9297   -3.9171    4.5142 C   0  0  0  0  0  0  0  0  0  0  0  0
   -0.6961   -2.8343    2.6673 H   0  0  0  0  0  0  0  0  0  0  0  0
   -1.5452   -4.8220    4.4813 H   0  0  0  0  0  0  0  0  0  0  0  0
    0.1186   -4.2048    4.3897 H   0  0  0  0  0  0  0  0  0  0  0  0
   -1.0438   -3.4483    5.4973 H   0  0  0  0  0  0  0  0  0  0  0  0
  1  2  2  0  0  0  0
  1  3  1  0  0  0  0
  1  7  1  0  0  0  0
  3  4  1  0  0  0  0
  3  5  1  0  0  0  0
  3  6  1  0  0  0  0
  7  8  1  0  0  0  0
  7 12  1  0  0  0  0
  8  9  1  0  0  0  0
  8 11  1  0  0  0  0
  8 13  1  0  0  0  0
  9 10  2  0  0  0  0
  9 17  1  0  0  0  0
 11 14  1  0  0  0  0
 11 15  1  0  0  0  0
 11 16  1  0  0  0  0
 17 18  1  0  0  0  0
 17 25  1  0  0  0  0
 18 19  1  0  0  0  0
 18 21  1  0  0  0  0
 18 26  1  0  0  0  0
 19 20  2  0  0  0  0
 19 36  1  0  0  0  0
 21 22  1  0  0  0  0
 21 27  1  0  0  0  0
 21 28  1  0  0  0  0
 22 23  1  0  0  0  0
 22 24  1  0  0  0  0
 22 29  1  0  0  0  0
 23 30  1  0  0  0  0
 23 31  1  0  0  0  0
 23 32  1  0  0  0  0
 24 33  1  0  0  0  0
 24 34  1  0  0  0  0
 24 35  1  0  0  0  0
 36 37  1  0  0  0  0
 36 41  1  0  0  0  0
 37 38  1  0  0  0  0
 37 40  1  0  0  0  0
 37 42  1  0  0  0  0
 38 39  2  0  0  0  0
 38 46  1  0  0  0  0
 40 43  1  0  0  0  0
 40 44  1  0  0  0  0
 40 45  1  0  0  0  0
 46 47  1  0  0  0  0
 46 48  1  0  0  0  0
 47 49  1  0  0  0  0
 47 50  1  0  0  0  0
 47 51  1  0  0  0  0
M  END
$$$$

  -OEChem-05262216553D

 51 50  0     1  0  0  0  0  0999 V2000
    0.3063   -2.5131   -2.4340 C   0  0  0  0  0  0  0  0  0  0  0  0
   -0.5402   -1.6409   -2.5656 O   0  0  0  0  0  0  0  0  0  0  0  0
   -0.1331   -3.9503   -2.2299 C   0  0  0  0  0  0  0  0  0  0  0  0
    0.0907   -4.2636   -1.2067 H   0  0  0  0  0  0  0  0  0  0  0  0
   -1.2095   -4.0443   -2.3987 H   0  0  0  0  0  0  0  0  0  0  0  0
    0.3902   -4.6073   -2.9287 H   0  0  0  0  0  0  0  0  0  0  0  0
    1.6555   -2.2050   -2.4010 N   0  0  0  0  0  0  0  0  0  0  0  0
    2.2620   -0.8548   -2.3980 C   0  0  2  0  0  0  0  0  0  0  0  0
    1.9573   -0.0507   -1.1152 C   0  0  0  0  0  0  0  0  0  0  0  0
    2.8782    0.3145   -0.3965 O   0  0  0  0  0  0  0  0  0  0  0  0
    1.8865   -0.0556   -3.6537 C   0  0  0  0  0  0  0  0  0  0  0  0
    2.2688   -2.9826   -2.1721 H   0  0  0  0  0  0  0  0  0  0  0  0
    3.3484   -0.9905   -2.4237 H   0  0  0  0  0  0  0  0  0  0  0  0
    0.8290    0.2234   -3.6494 H   0  0  0  0  0  0  0  0  0  0  0  0
    2.4788    0.8636   -3.7011 H   0  0  0  0  0  0  0  0  0  0  0  0
    2.0880   -0.6446   -4.5535 H   0  0  0  0  0  0  0  0  0  0  0  0
    0.6481    0.1106   -0.7086 N   0  0  0  0  0  0  0  0  0  0  0  0
    0.2263    0.4734    0.6500 C   0  0  2  0  0  0  0  0  0  0  0  0
   -0.6629   -0.6864    1.1709 C   0  0  0  0  0  0  0  0  0  0  0  0
   -0.1988   -1.8212    1.1988 O   0  0  0  0  0  0  0  0  0  0  0  0
   -0.5468    1.8212    0.6978 C   0  0  0  0  0  0  0  0  0  0  0  0
    0.2015    3.1326    0.3465 C   0  0  0  0  0  0  0  0  0  0  0  0
   -0.8291    4.2718    0.3328 C   0  0  0  0  0  0  0  0  0  0  0  0
    0.8971    3.1435   -1.0220 C   0  0  0  0  0  0  0  0  0  0  0  0
   -0.0347   -0.3636   -1.3067 H   0  0  0  0  0  0  0  0  0  0  0  0
    1.0903    0.5492    1.3190 H   0  0  0  0  0  0  0  0  0  0  0  0
   -0.9393    1.9485    1.7123 H   0  0  0  0  0  0  0  0  0  0  0  0
   -1.4008    1.7328    0.0172 H   0  0  0  0  0  0  0  0  0  0  0  0
    0.9516    3.3338    1.1190 H   0  0  0  0  0  0  0  0  0  0  0  0
   -1.5697    4.1172   -0.4588 H   0  0  0  0  0  0  0  0  0  0  0  0
   -0.3359    5.2342    0.1629 H   0  0  0  0  0  0  0  0  0  0  0  0
   -1.3517    4.3259    1.2929 H   0  0  0  0  0  0  0  0  0  0  0  0
    0.2591    2.6907   -1.7874 H   0  0  0  0  0  0  0  0  0  0  0  0
    1.1315    4.1673   -1.3301 H   0  0  0  0  0  0  0  0  0  0  0  0
    1.8425    2.6032   -0.9740 H   0  0  0  0  0  0  0  0  0  0  0  0
   -1.9849   -0.4951    1.5489 N   0  0  0  0  0  0  0  0  0  0  0  0
   -2.9820   -1.5364    1.8788 C   0  0  2  0  0  0  0  0  0  0  0  0
   -2.7258   -2.3029    3.1978 C   0  0  0  0  0  0  0  0  0  0  0  0
   -3.6460   -2.4525    3.9911 O   0  0  0  0  0  0  0  0  0  0  0  0
   -3.1706   -2.5111    0.7066 C   0  0  0  0  0  0  0  0  0  0  0  0
   -2.3257    0.4585    1.4713 H   0  0  0  0  0  0  0  0  0  0  0  0
   -3.9381   -1.0208    2.0172 H   0  0  0  0  0  0  0  0  0  0  0  0
   -2.2950   -3.1538    0.5784 H   0  0  0  0  0  0  0  0  0  0  0  0
   -4.0382   -3.1525    0.8904 H   0  0  0  0  0  0  0  0  0  0  0  0
   -3.3373   -1.9606   -0.2243 H   0  0  0  0  0  0  0  0  0  0  0  0
   -1.4869   -2.8323    3.4978 N   0  0  0  0  0  0  0  0  0  0  0  0
   -1.1873   -3.5816    4.7097 C   0  0  0  0  0  0  0  0  0  0  0  0
   -0.7581   -2.7015    2.7908 H   0  0  0  0  0  0  0  0  0  0  0  0
   -1.7998   -4.4877    4.7605 H   0  0  0  0  0  0  0  0  0  0  0  0
   -0.1331   -3.8746    4.7200 H   0  0  0  0  0  0  0  0  0  0  0  0
   -1.3856   -2.9713    5.5969 H   0  0  0  0  0  0  0  0  0  0  0  0
  1  2  2  0  0  0  0
  1  3  1  0  0  0  0
  1  7  1  0  0  0  0
  3  4  1  0  0  0  0
  3  5  1  0  0  0  0
  3  6  1  0  0  0  0
  7  8  1  0  0  0  0
  7 12  1  0  0  0  0
  8  9  1  0  0  0  0
  8 11  1  0  0  0  0
  8 13  1  0  0  0  0
  9 10  2  0  0  0  0
  9 17  1  0  0  0  0
 11 14  1  0  0  0  0
 11 15  1  0  0  0  0
 11 16  1  0  0  0  0
 17 18  1  0  0  0  0
 17 25  1  0  0  0  0
 18 19  1  0  0  0  0
 18 21  1  0  0  0  0
 18 26  1  0  0  0  0
 19 20  2  0  0  0  0
 19 36  1  0  0  0  0
 21 22  1  0  0  0  0
 21 27  1  0  0  0  0
 21 28  1  0  0  0  0
 22 23  1  0  0  0  0
 22 24  1  0  0  0  0
 22 29  1  0  0  0  0
 23 30  1  0  0  0  0
 23 31  1  0  0  0  0
 23 32  1  0  0  0  0
 24 33  1  0  0  0  0
 24 34  1  0  0  0  0
 24 35  1  0  0  0  0
 36 37  1  0  0  0  0
 36 41  1  0  0  0  0
 37 38  1  0  0  0  0
 37 40  1  0  0  0  0
 37 42  1  0  0  0  0
 38 39  2  0  0  0  0
 38 46  1  0  0  0  0
 40 43  1  0  0  0  0
 40 44  1  0  0  0  0
 40 45  1  0  0  0  0
 46 47  1  0  0  0  0
 46 48  1  0  0  0  0
 47 49  1  0  0  0  0
 47 50  1  0  0  0  0
 47 51  1  0  0  0  0
M  END
$$$$

  -OEChem-05262216553D

 51 50  0     1  0  0  0  0  0999 V2000
    0.3517   -2.5674   -2.3442 C   0  0  0  0  0  0  0  0  0  0  0  0
   -0.5459   -1.7449   -2.4576 O   0  0  0  0  0  0  0  0  0  0  0  0
    0.0011   -4.0187   -2.0781 C   0  0  0  0  0  0  0  0  0  0  0  0
    0.2853   -4.2871   -1.0571 H   0  0  0  0  0  0  0  0  0  0  0  0
   -1.0746   -4.1762   -2.1977 H   0  0  0  0  0  0  0  0  0  0  0  0
    0.5306   -4.6679   -2.7794 H   0  0  0  0  0  0  0  0  0  0  0  0
    1.6829   -2.1897   -2.3895 N   0  0  0  0  0  0  0  0  0  0  0  0
    2.2156   -0.8105   -2.4551 C   0  0  2  0  0  0  0  0  0  0  0  0
    1.9249    0.0125   -1.1815 C   0  0  0  0  0  0  0  0  0  0  0  0
    2.8530    0.3784   -0.4728 O   0  0  0  0  0  0  0  0  0  0  0  0
    1.7393   -0.0729   -3.7150 C   0  0  0  0  0  0  0  0  0  0  0  0
    2.3473   -2.9270   -2.1691 H   0  0  0  0  0  0  0  0  0  0  0  0
    3.3055   -0.8886   -2.5280 H   0  0  0  0  0  0  0  0  0  0  0  0
    0.6682    0.1450   -3.6719 H   0  0  0  0  0  0  0  0  0  0  0  0
    2.2746    0.8765   -3.8163 H   0  0  0  0  0  0  0  0  0  0  0  0
    1.9361   -0.6771   -4.6056 H   0  0  0  0  0  0  0  0  0  0  0  0
    0.6182    0.1726   -0.7654 N   0  0  0  0  0  0  0  0  0  0  0  0
    0.2114    0.5150    0.6028 C   0  0  2  0  0  0  0  0  0  0  0  0
   -0.6776   -0.6457    1.1127 C   0  0  0  0  0  0  0  0  0  0  0  0
   -0.1572   -1.7303    1.3459 O   0  0  0  0  0  0  0  0  0  0  0  0
   -0.5526    1.8650    0.6941 C   0  0  0  0  0  0  0  0  0  0  0  0
    0.1993    3.1801    0.3661 C   0  0  0  0  0  0  0  0  0  0  0  0
   -0.8227    4.3270    0.3933 C   0  0  0  0  0  0  0  0  0  0  0  0
    0.8804    3.2205   -1.0091 C   0  0  0  0  0  0  0  0  0  0  0  0
   -0.0603   -0.3295   -1.3459 H   0  0  0  0  0  0  0  0  0  0  0  0
    1.0839    0.5713    1.2629 H   0  0  0  0  0  0  0  0  0  0  0  0
   -0.9400    1.9615    1.7143 H   0  0  0  0  0  0  0  0  0  0  0  0
   -1.4106    1.8039    0.0160 H   0  0  0  0  0  0  0  0  0  0  0  0
    0.9593    3.3557    1.1351 H   0  0  0  0  0  0  0  0  0  0  0  0
   -1.5663    4.2051   -0.4009 H   0  0  0  0  0  0  0  0  0  0  0  0
   -0.3217    5.2903    0.2545 H   0  0  0  0  0  0  0  0  0  0  0  0
   -1.3430    4.3530    1.3559 H   0  0  0  0  0  0  0  0  0  0  0  0
    0.2324    2.7899   -1.7787 H   0  0  0  0  0  0  0  0  0  0  0  0
    1.1162    4.2506   -1.2941 H   0  0  0  0  0  0  0  0  0  0  0  0
    1.8235    2.6747   -0.9845 H   0  0  0  0  0  0  0  0  0  0  0  0
   -2.0561   -0.5211    1.2132 N   0  0  0  0  0  0  0  0  0  0  0  0
   -3.0374   -1.6019    1.4466 C   0  0  2  0  0  0  0  0  0  0  0  0
   -3.0020   -2.2365    2.8567 C   0  0  0  0  0  0  0  0  0  0  0  0
   -4.0478   -2.3762    3.4775 O   0  0  0  0  0  0  0  0  0  0  0  0
   -2.9345   -2.6809    0.3588 C   0  0  0  0  0  0  0  0  0  0  0  0
   -2.4286    0.3872    0.9530 H   0  0  0  0  0  0  0  0  0  0  0  0
   -4.0295   -1.1490    1.3502 H   0  0  0  0  0  0  0  0  0  0  0  0
   -2.0192   -3.2695    0.4685 H   0  0  0  0  0  0  0  0  0  0  0  0
   -3.7874   -3.3632    0.4279 H   0  0  0  0  0  0  0  0  0  0  0  0
   -2.9367   -2.2225   -0.6350 H   0  0  0  0  0  0  0  0  0  0  0  0
   -1.8195   -2.6639    3.4258 N   0  0  0  0  0  0  0  0  0  0  0  0
   -1.7178   -3.2817    4.7403 C   0  0  0  0  0  0  0  0  0  0  0  0
   -0.9758   -2.5372    2.8599 H   0  0  0  0  0  0  0  0  0  0  0  0
   -2.3193   -4.1957    4.7810 H   0  0  0  0  0  0  0  0  0  0  0  0
   -0.6767   -3.5423    4.9542 H   0  0  0  0  0  0  0  0  0  0  0  0
   -2.0688   -2.5925    5.5153 H   0  0  0  0  0  0  0  0  0  0  0  0
  1  2  2  0  0  0  0
  1  3  1  0  0  0  0
  1  7  1  0  0  0  0
  3  4  1  0  0  0  0
  3  5  1  0  0  0  0
  3  6  1  0  0  0  0
  7  8  1  0  0  0  0
  7 12  1  0  0  0  0
  8  9  1  0  0  0  0
  8 11  1  0  0  0  0
  8 13  1  0  0  0  0
  9 10  2  0  0  0  0
  9 17  1  0  0  0  0
 11 14  1  0  0  0  0
 11 15  1  0  0  0  0
 11 16  1  0  0  0  0
 17 18  1  0  0  0  0
 17 25  1  0  0  0  0
 18 19  1  0  0  0  0
 18 21  1  0  0  0  0
 18 26  1  0  0  0  0
 19 20  2  0  0  0  0
 19 36  1  0  0  0  0
 21 22  1  0  0  0  0
 21 27  1  0  0  0  0
 21 28  1  0  0  0  0
 22 23  1  0  0  0  0
 22 24  1  0  0  0  0
 22 29  1  0  0  0  0
 23 30  1  0  0  0  0
 23 31  1  0  0  0  0
 23 32  1  0  0  0  0
 24 33  1  0  0  0  0
 24 34  1  0  0  0  0
 24 35  1  0  0  0  0
 36 37  1  0  0  0  0
 36 41  1  0  0  0  0
 37 38  1  0  0  0  0
 37 40  1  0  0  0  0
 37 42  1  0  0  0  0
 38 39  2  0  0  0  0
 38 46  1  0  0  0  0
 40 43  1  0  0  0  0
 40 44  1  0  0  0  0
 40 45  1  0  0  0  0
 46 47  1  0  0  0  0
 46 48  1  0  0  0  0
 47 49  1  0  0  0  0
 47 50  1  0  0  0  0
 47 51  1  0  0  0  0
M  END
$$$$

  -OEChem-05262216553D

 51 50  0     1  0  0  0  0  0999 V2000
    0.5133   -2.5769   -2.5069 C   0  0  0  0  0  0  0  0  0  0  0  0
   -0.4125   -1.7788   -2.5443 O   0  0  0  0  0  0  0  0  0  0  0  0
    0.2151   -4.0615   -2.4145 C   0  0  0  0  0  0  0  0  0  0  0  0
    0.5270   -4.4431   -1.4389 H   0  0  0  0  0  0  0  0  0  0  0  0
   -0.8570   -4.2400   -2.5361 H   0  0  0  0  0  0  0  0  0  0  0  0
    0.7513   -4.6023   -3.1982 H   0  0  0  0  0  0  0  0  0  0  0  0
    1.8285   -2.1473   -2.4882 N   0  0  0  0  0  0  0  0  0  0  0  0
    2.3082   -0.7492   -2.4407 C   0  0  2  0  0  0  0  0  0  0  0  0
    1.9507   -0.0211   -1.1263 C   0  0  0  0  0  0  0  0  0  0  0  0
    2.8450    0.3274   -0.3678 O   0  0  0  0  0  0  0  0  0  0  0  0
    1.8410    0.0497   -3.6664 C   0  0  0  0  0  0  0  0  0  0  0  0
    2.5237   -2.8771   -2.3550 H   0  0  0  0  0  0  0  0  0  0  0  0
    3.4018   -0.7822   -2.4838 H   0  0  0  0  0  0  0  0  0  0  0  0
    0.7600    0.2155   -3.6498 H   0  0  0  0  0  0  0  0  0  0  0  0
    2.3338    1.0269   -3.6851 H   0  0  0  0  0  0  0  0  0  0  0  0
    2.0962   -0.4841   -4.5868 H   0  0  0  0  0  0  0  0  0  0  0  0
    0.6262    0.1244   -0.7622 N   0  0  0  0  0  0  0  0  0  0  0  0
    0.1550    0.4671    0.5868 C   0  0  2  0  0  0  0  0  0  0  0  0
   -0.7429   -0.6911    1.0789 C   0  0  0  0  0  0  0  0  0  0  0  0
   -0.2313   -1.6522    1.6386 O   0  0  0  0  0  0  0  0  0  0  0  0
   -0.6255    1.8081    0.6512 C   0  0  0  0  0  0  0  0  0  0  0  0
    0.1320    3.1278    0.3582 C   0  0  0  0  0  0  0  0  0  0  0  0
   -0.8957    4.2694    0.3456 C   0  0  0  0  0  0  0  0  0  0  0  0
    0.8680    3.1734   -0.9883 C   0  0  0  0  0  0  0  0  0  0  0  0
   -0.0269   -0.3586   -1.3862 H   0  0  0  0  0  0  0  0  0  0  0  0
    1.0006    0.5373    1.2802 H   0  0  0  0  0  0  0  0  0  0  0  0
   -1.0594    1.8947    1.6536 H   0  0  0  0  0  0  0  0  0  0  0  0
   -1.4536    1.7453   -0.0621 H   0  0  0  0  0  0  0  0  0  0  0  0
    0.8591    3.3052    1.1580 H   0  0  0  0  0  0  0  0  0  0  0  0
   -1.6048    4.1460   -0.4794 H   0  0  0  0  0  0  0  0  0  0  0  0
   -0.3941    5.2356    0.2306 H   0  0  0  0  0  0  0  0  0  0  0  0
   -1.4557    4.2898    1.2859 H   0  0  0  0  0  0  0  0  0  0  0  0
    0.2534    2.7406   -1.7836 H   0  0  0  0  0  0  0  0  0  0  0  0
    1.1096    4.2049   -1.2628 H   0  0  0  0  0  0  0  0  0  0  0  0
    1.8120    2.6319   -0.9260 H   0  0  0  0  0  0  0  0  0  0  0  0
   -2.1087   -0.6881    0.8359 N   0  0  0  0  0  0  0  0  0  0  0  0
   -3.0626   -1.7930    1.0660 C   0  0  2  0  0  0  0  0  0  0  0  0
   -3.3265   -2.1367    2.5503 C   0  0  0  0  0  0  0  0  0  0  0  0
   -4.4804   -2.1949    2.9551 O   0  0  0  0  0  0  0  0  0  0  0  0
   -2.6567   -3.0445    0.2747 C   0  0  0  0  0  0  0  0  0  0  0  0
   -2.4540    0.1158    0.3201 H   0  0  0  0  0  0  0  0  0  0  0  0
   -4.0255   -1.4634    0.6623 H   0  0  0  0  0  0  0  0  0  0  0  0
   -1.7437   -3.4919    0.6779 H   0  0  0  0  0  0  0  0  0  0  0  0
   -3.4533   -3.7935    0.3250 H   0  0  0  0  0  0  0  0  0  0  0  0
   -2.4867   -2.7903   -0.7759 H   0  0  0  0  0  0  0  0  0  0  0  0
   -2.2915   -2.3846    3.4292 N   0  0  0  0  0  0  0  0  0  0  0  0
   -2.4725   -2.6814    4.8433 C   0  0  0  0  0  0  0  0  0  0  0  0
   -1.3452   -2.2935    3.0488 H   0  0  0  0  0  0  0  0  0  0  0  0
   -3.0982   -3.5708    4.9721 H   0  0  0  0  0  0  0  0  0  0  0  0
   -1.5037   -2.8699    5.3159 H   0  0  0  0  0  0  0  0  0  0  0  0
   -2.9490   -1.8377    5.3530 H   0  0  0  0  0  0  0  0  0  0  0  0
  1  2  2  0  0  0  0
  1  3  1  0  0  0  0
  1  7  1  0  0  0  0
  3  4  1  0  0  0  0
  3  5  1  0  0  0  0
  3  6  1  0  0  0  0
  7  8  1  0  0  0  0
  7 12  1  0  0  0  0
  8  9  1  0  0  0  0
  8 11  1  0  0  0  0
  8 13  1  0  0  0  0
  9 10  2  0  0  0  0
  9 17  1  0  0  0  0
 11 14  1  0  0  0  0
 11 15  1  0  0  0  0
 11 16  1  0  0  0  0
 17 18  1  0  0  0  0
 17 25  1  0  0  0  0
 18 19  1  0  0  0  0
 18 21  1  0  0  0  0
 18 26  1  0  0  0  0
 19 20  2  0  0  0  0
 19 36  1  0  0  0  0
 21 22  1  0  0  0  0
 21 27  1  0  0  0  0
 21 28  1  0  0  0  0
 22 23  1  0  0  0  0
 22 24  1  0  0  0  0
 22 29  1  0  0  0  0
 23 30  1  0  0  0  0
 23 31  1  0  0  0  0
 23 32  1  0  0  0  0
 24 33  1  0  0  0  0
 24 34  1  0  0  0  0
 24 35  1  0  0  0  0
 36 37  1  0  0  0  0
 36 41  1  0  0  0  0
 37 38  1  0  0  0  0
 37 40  1  0  0  0  0
 37 42  1  0  0  0  0
 38 39  2  0  0  0  0
 38 46  1  0  0  0  0
 40 43  1  0  0  0  0
 40 44  1  0  0  0  0
 40 45  1  0  0  0  0
 46 47  1  0  0  0  0
 46 48  1  0  0  0  0
 47 49  1  0  0  0  0
 47 50  1  0  0  0  0
 47 51  1  0  0  0  0
M  END
$$$$

  -OEChem-05262216553D

 51 50  0     1  0  0  0  0  0999 V2000
    0.5868   -2.5153   -2.6881 C   0  0  0  0  0  0  0  0  0  0  0  0
   -0.3417   -1.7202   -2.6508 O   0  0  0  0  0  0  0  0  0  0  0  0
    0.2927   -4.0009   -2.7762 C   0  0  0  0  0  0  0  0  0  0  0  0
    0.5562   -4.4891   -1.8344 H   0  0  0  0  0  0  0  0  0  0  0  0
   -0.7708   -4.1646   -2.9725 H   0  0  0  0  0  0  0  0  0  0  0  0
    0.8712   -4.4514   -3.5865 H   0  0  0  0  0  0  0  0  0  0  0  0
    1.9002   -2.0894   -2.5959 N   0  0  0  0  0  0  0  0  0  0  0  0
    2.3814   -0.6994   -2.4390 C   0  0  2  0  0  0  0  0  0  0  0  0
    1.9895   -0.0485   -1.0936 C   0  0  0  0  0  0  0  0  0  0  0  0
    2.8636    0.2876   -0.3073 O   0  0  0  0  0  0  0  0  0  0  0  0
    1.9496    0.1758   -3.6247 C   0  0  0  0  0  0  0  0  0  0  0  0
    2.5985   -2.8272   -2.5534 H   0  0  0  0  0  0  0  0  0  0  0  0
    3.4760   -0.7339   -2.4516 H   0  0  0  0  0  0  0  0  0  0  0  0
    0.8674    0.3340   -3.6322 H   0  0  0  0  0  0  0  0  0  0  0  0
    2.4358    1.1546   -3.5634 H   0  0  0  0  0  0  0  0  0  0  0  0
    2.2384   -0.2949   -4.5694 H   0  0  0  0  0  0  0  0  0  0  0  0
    0.6572    0.0702   -0.7508 N   0  0  0  0  0  0  0  0  0  0  0  0
    0.1459    0.3978    0.5878 C   0  0  2  0  0  0  0  0  0  0  0  0
   -0.7399   -0.7732    1.0625 C   0  0  0  0  0  0  0  0  0  0  0  0
   -0.3198   -1.5524    1.9073 O   0  0  0  0  0  0  0  0  0  0  0  0
   -0.6767    1.7123    0.6401 C   0  0  0  0  0  0  0  0  0  0  0  0
    0.0491    3.0537    0.3659 C   0  0  0  0  0  0  0  0  0  0  0  0
   -1.0081    4.1671    0.3338 C   0  0  0  0  0  0  0  0  0  0  0  0
    0.8174    3.1224   -0.9609 C   0  0  0  0  0  0  0  0  0  0  0  0
    0.0187   -0.3781   -1.4136 H   0  0  0  0  0  0  0  0  0  0  0  0
    0.9750    0.4896    1.2985 H   0  0  0  0  0  0  0  0  0  0  0  0
   -1.1315    1.7815    1.6347 H   0  0  0  0  0  0  0  0  0  0  0  0
   -1.4923    1.6264   -0.0852 H   0  0  0  0  0  0  0  0  0  0  0  0
    0.7513    3.2492    1.1835 H   0  0  0  0  0  0  0  0  0  0  0  0
   -1.6973    4.0255   -0.5050 H   0  0  0  0  0  0  0  0  0  0  0  0
   -0.5303    5.1464    0.2290 H   0  0  0  0  0  0  0  0  0  0  0  0
   -1.5868    4.1712    1.2629 H   0  0  0  0  0  0  0  0  0  0  0  0
    0.2279    2.6901   -1.7752 H   0  0  0  0  0  0  0  0  0  0  0  0
    1.0523    4.1599   -1.2183 H   0  0  0  0  0  0  0  0  0  0  0  0
    1.7666    2.5921   -0.8804 H   0  0  0  0  0  0  0  0  0  0  0  0
   -2.0095   -0.9458    0.5315 N   0  0  0  0  0  0  0  0  0  0  0  0
   -2.9364   -2.0717    0.7688 C   0  0  2  0  0  0  0  0  0  0  0  0
   -3.5173   -2.1602    2.1995 C   0  0  0  0  0  0  0  0  0  0  0  0
   -4.7227   -2.3143    2.3472 O   0  0  0  0  0  0  0  0  0  0  0  0
   -2.2988   -3.4042    0.3535 C   0  0  0  0  0  0  0  0  0  0  0  0
   -2.2634   -0.2883   -0.2004 H   0  0  0  0  0  0  0  0  0  0  0  0
   -3.7961   -1.9134    0.1093 H   0  0  0  0  0  0  0  0  0  0  0  0
   -1.4811   -3.6799    1.0257 H   0  0  0  0  0  0  0  0  0  0  0  0
   -3.0477   -4.2020    0.3826 H   0  0  0  0  0  0  0  0  0  0  0  0
   -1.9067   -3.3348   -0.6652 H   0  0  0  0  0  0  0  0  0  0  0  0
   -2.7079   -2.0849    3.3150 N   0  0  0  0  0  0  0  0  0  0  0  0
   -3.1896   -2.1842    4.6853 C   0  0  0  0  0  0  0  0  0  0  0  0
   -1.7046   -1.9812    3.1383 H   0  0  0  0  0  0  0  0  0  0  0  0
   -3.6811   -3.1487    4.8495 H   0  0  0  0  0  0  0  0  0  0  0  0
   -2.3531   -2.0984    5.3854 H   0  0  0  0  0  0  0  0  0  0  0  0
   -3.9039   -1.3825    4.8992 H   0  0  0  0  0  0  0  0  0  0  0  0
  1  2  2  0  0  0  0
  1  3  1  0  0  0  0
  1  7  1  0  0  0  0
  3  4  1  0  0  0  0
  3  5  1  0  0  0  0
  3  6  1  0  0  0  0
  7  8  1  0  0  0  0
  7 12  1  0  0  0  0
  8  9  1  0  0  0  0
  8 11  1  0  0  0  0
  8 13  1  0  0  0  0
  9 10  2  0  0  0  0
  9 17  1  0  0  0  0
 11 14  1  0  0  0  0
 11 15  1  0  0  0  0
 11 16  1  0  0  0  0
 17 18  1  0  0  0  0
 17 25  1  0  0  0  0
 18 19  1  0  0  0  0
 18 21  1  0  0  0  0
 18 26  1  0  0  0  0
 19 20  2  0  0  0  0
 19 36  1  0  0  0  0
 21 22  1  0  0  0  0
 21 27  1  0  0  0  0
 21 28  1  0  0  0  0
 22 23  1  0  0  0  0
 22 24  1  0  0  0  0
 22 29  1  0  0  0  0
 23 30  1  0  0  0  0
 23 31  1  0  0  0  0
 23 32  1  0  0  0  0
 24 33  1  0  0  0  0
 24 34  1  0  0  0  0
 24 35  1  0  0  0  0
 36 37  1  0  0  0  0
 36 41  1  0  0  0  0
 37 38  1  0  0  0  0
 37 40  1  0  0  0  0
 37 42  1  0  0  0  0
 38 39  2  0  0  0  0
 38 46  1  0  0  0  0
 40 43  1  0  0  0  0
 40 44  1  0  0  0  0
 40 45  1  0  0  0  0
 46 47  1  0  0  0  0
 46 48  1  0  0  0  0
 47 49  1  0  0  0  0
 47 50  1  0  0  0  0
 47 51  1  0  0  0  0
M  END
$$$$

  -OEChem-05262216553D

 51 50  0     1  0  0  0  0  0999 V2000
    0.6224   -2.4263   -2.8520 C   0  0  0  0  0  0  0  0  0  0  0  0
   -0.2982   -1.6307   -2.7223 O   0  0  0  0  0  0  0  0  0  0  0  0
    0.3110   -3.8858   -3.1234 C   0  0  0  0  0  0  0  0  0  0  0  0
    0.6657   -4.5038   -2.2947 H   0  0  0  0  0  0  0  0  0  0  0  0
   -0.7679   -4.0291   -3.2319 H   0  0  0  0  0  0  0  0  0  0  0  0
    0.8018   -4.2078   -4.0452 H   0  0  0  0  0  0  0  0  0  0  0  0
    1.9420   -2.0342   -2.7041 N   0  0  0  0  0  0  0  0  0  0  0  0
    2.4537   -0.6737   -2.4245 C   0  0  2  0  0  0  0  0  0  0  0  0
    2.0560   -0.1140   -1.0403 C   0  0  0  0  0  0  0  0  0  0  0  0
    2.9193    0.1836   -0.2281 O   0  0  0  0  0  0  0  0  0  0  0  0
    2.0597    0.3002   -3.5440 C   0  0  0  0  0  0  0  0  0  0  0  0
    2.6298   -2.7801   -2.7702 H   0  0  0  0  0  0  0  0  0  0  0  0
    3.5471   -0.7335   -2.4229 H   0  0  0  0  0  0  0  0  0  0  0  0
    0.9793    0.4711   -3.5641 H   0  0  0  0  0  0  0  0  0  0  0  0
    2.5542    1.2647   -3.3910 H   0  0  0  0  0  0  0  0  0  0  0  0
    2.3669   -0.0948   -4.5171 H   0  0  0  0  0  0  0  0  0  0  0  0
    0.7213   -0.0200   -0.7077 N   0  0  0  0  0  0  0  0  0  0  0  0
    0.1673    0.3021    0.6144 C   0  0  2  0  0  0  0  0  0  0  0  0
   -0.7028   -0.8826    1.0792 C   0  0  0  0  0  0  0  0  0  0  0  0
   -0.4867   -1.4109    2.1615 O   0  0  0  0  0  0  0  0  0  0  0  0
   -0.6999    1.5857    0.6355 C   0  0  0  0  0  0  0  0  0  0  0  0
   -0.0106    2.9466    0.3654 C   0  0  0  0  0  0  0  0  0  0  0  0
   -1.1010    4.0253    0.2970 C   0  0  0  0  0  0  0  0  0  0  0  0
    0.7943    3.0254   -0.9386 C   0  0  0  0  0  0  0  0  0  0  0  0
    0.0895   -0.3899   -1.4213 H   0  0  0  0  0  0  0  0  0  0  0  0
    0.9779    0.4244    1.3418 H   0  0  0  0  0  0  0  0  0  0  0  0
   -1.1777    1.6492    1.6196 H   0  0  0  0  0  0  0  0  0  0  0  0
   -1.4981    1.4620   -0.1039 H   0  0  0  0  0  0  0  0  0  0  0  0
    0.6627    3.1717    1.1999 H   0  0  0  0  0  0  0  0  0  0  0  0
   -1.7599    3.8591   -0.5615 H   0  0  0  0  0  0  0  0  0  0  0  0
   -0.6520    5.0192    0.2032 H   0  0  0  0  0  0  0  0  0  0  0  0
   -1.7074    4.0134    1.2079 H   0  0  0  0  0  0  0  0  0  0  0  0
    0.2410    2.5705   -1.7660 H   0  0  0  0  0  0  0  0  0  0  0  0
    1.0081    4.0671   -1.1981 H   0  0  0  0  0  0  0  0  0  0  0  0
    1.7548    2.5208   -0.8239 H   0  0  0  0  0  0  0  0  0  0  0  0
   -1.7965   -1.2743    0.3200 N   0  0  0  0  0  0  0  0  0  0  0  0
   -2.6987   -2.4165    0.5734 C   0  0  2  0  0  0  0  0  0  0  0  0
   -3.6255   -2.2664    1.8023 C   0  0  0  0  0  0  0  0  0  0  0  0
   -4.8089   -2.5631    1.6999 O   0  0  0  0  0  0  0  0  0  0  0  0
   -1.9120   -3.7322    0.6408 C   0  0  0  0  0  0  0  0  0  0  0  0
   -1.8792   -0.8184   -0.5855 H   0  0  0  0  0  0  0  0  0  0  0  0
   -3.3640   -2.4881   -0.2934 H   0  0  0  0  0  0  0  0  0  0  0  0
   -1.2993   -3.7815    1.5458 H   0  0  0  0  0  0  0  0  0  0  0  0
   -2.6031   -4.5809    0.6514 H   0  0  0  0  0  0  0  0  0  0  0  0
   -1.2575   -3.8283   -0.2303 H   0  0  0  0  0  0  0  0  0  0  0  0
   -3.1452   -1.8249    3.0187 N   0  0  0  0  0  0  0  0  0  0  0  0
   -3.9493   -1.7223    4.2278 C   0  0  0  0  0  0  0  0  0  0  0  0
   -2.1370   -1.6527    3.0677 H   0  0  0  0  0  0  0  0  0  0  0  0
   -4.3357   -2.7056    4.5149 H   0  0  0  0  0  0  0  0  0  0  0  0
   -3.3423   -1.3340    5.0513 H   0  0  0  0  0  0  0  0  0  0  0  0
   -4.7931   -1.0428    4.0698 H   0  0  0  0  0  0  0  0  0  0  0  0
  1  2  2  0  0  0  0
  1  3  1  0  0  0  0
  1  7  1  0  0  0  0
  3  4  1  0  0  0  0
  3  5  1  0  0  0  0
  3  6  1  0  0  0  0
  7  8  1  0  0  0  0
  7 12  1  0  0  0  0
  8  9  1  0  0  0  0
  8 11  1  0  0  0  0
  8 13  1  0  0  0  0
  9 10  2  0  0  0  0
  9 17  1  0  0  0  0
 11 14  1  0  0  0  0
 11 15  1  0  0  0  0
 11 16  1  0  0  0  0
 17 18  1  0  0  0  0
 17 25  1  0  0  0  0
 18 19  1  0  0  0  0
 18 21  1  0  0  0  0
 18 26  1  0  0  0  0
 19 20  2  0  0  0  0
 19 36  1  0  0  0  0
 21 22  1  0  0  0  0
 21 27  1  0  0  0  0
 21 28  1  0  0  0  0
 22 23  1  0  0  0  0
 22 24  1  0  0  0  0
 22 29  1  0  0  0  0
 23 30  1  0  0  0  0
 23 31  1  0  0  0  0
 23 32  1  0  0  0  0
 24 33  1  0  0  0  0
 24 34  1  0  0  0  0
 24 35  1  0  0  0  0
 36 37  1  0  0  0  0
 36 41  1  0  0  0  0
 37 38  1  0  0  0  0
 37 40  1  0  0  0  0
 37 42  1  0  0  0  0
 38 39  2  0  0  0  0
 38 46  1  0  0  0  0
 40 43  1  0  0  0  0
 40 44  1  0  0  0  0
 40 45  1  0  0  0  0
 46 47  1  0  0  0  0
 46 48  1  0  0  0  0
 47 49  1  0  0  0  0
 47 50  1  0  0  0  0
 47 51  1  0  0  0  0
M  END
$$$$

  -OEChem-05262216553D

 51 50  0     1  0  0  0  0  0999 V2000
    0.7486   -2.4382   -2.8389 C   0  0  0  0  0  0  0  0  0  0  0  0
   -0.1872   -1.6659   -2.6729 O   0  0  0  0  0  0  0  0  0  0  0  0
    0.4604   -3.8873   -3.1829 C   0  0  0  0  0  0  0  0  0  0  0  0
    0.8178   -4.5401   -2.3825 H   0  0  0  0  0  0  0  0  0  0  0  0
   -0.6155   -4.0407   -3.3068 H   0  0  0  0  0  0  0  0  0  0  0  0
    0.9617   -4.1578   -4.1156 H   0  0  0  0  0  0  0  0  0  0  0  0
    2.0623   -2.0342   -2.6655 N   0  0  0  0  0  0  0  0  0  0  0  0
    2.5561   -0.6804   -2.3243 C   0  0  2  0  0  0  0  0  0  0  0  0
    2.1231   -0.1757   -0.9293 C   0  0  0  0  0  0  0  0  0  0  0  0
    2.9575    0.0554   -0.0674 O   0  0  0  0  0  0  0  0  0  0  0  0
    2.1720    0.3274   -3.4169 C   0  0  0  0  0  0  0  0  0  0  0  0
    2.7615   -2.7654   -2.7691 H   0  0  0  0  0  0  0  0  0  0  0  0
    3.6501   -0.7291   -2.3016 H   0  0  0  0  0  0  0  0  0  0  0  0
    1.0894    0.4779   -3.4587 H   0  0  0  0  0  0  0  0  0  0  0  0
    2.6438    1.2946   -3.2166 H   0  0  0  0  0  0  0  0  0  0  0  0
    2.5113   -0.0259   -4.3954 H   0  0  0  0  0  0  0  0  0  0  0  0
    0.7791   -0.0772   -0.6443 N   0  0  0  0  0  0  0  0  0  0  0  0
    0.1648    0.2222    0.6557 C   0  0  2  0  0  0  0  0  0  0  0  0
   -0.7352   -0.9613    1.0664 C   0  0  0  0  0  0  0  0  0  0  0  0
   -0.8044   -1.2869    2.2441 O   0  0  0  0  0  0  0  0  0  0  0  0
   -0.7080    1.5015    0.6491 C   0  0  0  0  0  0  0  0  0  0  0  0
   -0.0127    2.8680    0.4264 C   0  0  0  0  0  0  0  0  0  0  0  0
   -1.1031    3.9435    0.3176 C   0  0  0  0  0  0  0  0  0  0  0  0
    0.8555    2.9638   -0.8351 C   0  0  0  0  0  0  0  0  0  0  0  0
    0.1713   -0.3596   -1.4149 H   0  0  0  0  0  0  0  0  0  0  0  0
    0.9402    0.3341    1.4219 H   0  0  0  0  0  0  0  0  0  0  0  0
   -1.2320    1.5536    1.6102 H   0  0  0  0  0  0  0  0  0  0  0  0
   -1.4710    1.3780   -0.1271 H   0  0  0  0  0  0  0  0  0  0  0  0
    0.6180    3.0863    1.2951 H   0  0  0  0  0  0  0  0  0  0  0  0
   -1.7274    3.7772   -0.5662 H   0  0  0  0  0  0  0  0  0  0  0  0
   -0.6545    4.9391    0.2433 H   0  0  0  0  0  0  0  0  0  0  0  0
   -1.7448    3.9272    1.2041 H   0  0  0  0  0  0  0  0  0  0  0  0
    0.3414    2.5248   -1.6956 H   0  0  0  0  0  0  0  0  0  0  0  0
    1.0851    4.0086   -1.0673 H   0  0  0  0  0  0  0  0  0  0  0  0
    1.8076    2.4529   -0.6821 H   0  0  0  0  0  0  0  0  0  0  0  0
   -1.5906   -1.5386    0.1369 N   0  0  0  0  0  0  0  0  0  0  0  0
   -2.4984   -2.6848    0.3489 C   0  0  2  0  0  0  0  0  0  0  0  0
   -3.7179   -2.4073    1.2586 C   0  0  0  0  0  0  0  0  0  0  0  0
   -4.8128   -2.8561    0.9438 O   0  0  0  0  0  0  0  0  0  0  0  0
   -1.7242   -3.9162    0.8380 C   0  0  0  0  0  0  0  0  0  0  0  0
   -1.4334   -1.2582   -0.8304 H   0  0  0  0  0  0  0  0  0  0  0  0
   -2.9131   -2.9376   -0.6325 H   0  0  0  0  0  0  0  0  0  0  0  0
   -1.3664   -3.7771    1.8625 H   0  0  0  0  0  0  0  0  0  0  0  0
   -2.3736   -4.7970    0.8217 H   0  0  0  0  0  0  0  0  0  0  0  0
   -0.8638   -4.1076    0.1902 H   0  0  0  0  0  0  0  0  0  0  0  0
   -3.5971   -1.6899    2.4318 N   0  0  0  0  0  0  0  0  0  0  0  0
   -4.6852   -1.4824    3.3768 C   0  0  0  0  0  0  0  0  0  0  0  0
   -2.6436   -1.4299    2.6989 H   0  0  0  0  0  0  0  0  0  0  0  0
   -5.0040   -2.4366    3.8086 H   0  0  0  0  0  0  0  0  0  0  0  0
   -4.3586   -0.8249    4.1883 H   0  0  0  0  0  0  0  0  0  0  0  0
   -5.5415   -1.0159    2.8787 H   0  0  0  0  0  0  0  0  0  0  0  0
  1  2  2  0  0  0  0
  1  3  1  0  0  0  0
  1  7  1  0  0  0  0
  3  4  1  0  0  0  0
  3  5  1  0  0  0  0
  3  6  1  0  0  0  0
  7  8  1  0  0  0  0
  7 12  1  0  0  0  0
  8  9  1  0  0  0  0
  8 11  1  0  0  0  0
  8 13  1  0  0  0  0
  9 10  2  0  0  0  0
  9 17  1  0  0  0  0
 11 14  1  0  0  0  0
 11 15  1  0  0  0  0
 11 16  1  0  0  0  0
 17 18  1  0  0  0  0
 17 25  1  0  0  0  0
 18 19  1  0  0  0  0
 18 21  1  0  0  0  0
 18 26  1  0  0  0  0
 19 20  2  0  0  0  0
 19 36  1  0  0  0  0
 21 22  1  0  0  0  0
 21 27  1  0  0  0  0
 21 28  1  0  0  0  0
 22 23  1  0  0  0  0
 22 24  1  0  0  0  0
 22 29  1  0  0  0  0
 23 30  1  0  0  0  0
 23 31  1  0  0  0  0
 23 32  1  0  0  0  0
 24 33  1  0  0  0  0
 24 34  1  0  0  0  0
 24 35  1  0  0  0  0
 36 37  1  0  0  0  0
 36 41  1  0  0  0  0
 37 38  1  0  0  0  0
 37 40  1  0  0  0  0
 37 42  1  0  0  0  0
 38 39  2  0  0  0  0
 38 46  1  0  0  0  0
 40 43  1  0  0  0  0
 40 44  1  0  0  0  0
 40 45  1  0  0  0  0
 46 47  1  0  0  0  0
 46 48  1  0  0  0  0
 47 49  1  0  0  0  0
 47 50  1  0  0  0  0
 47 51  1  0  0  0  0
M  END
$$$$

  -OEChem-05262216553D

 51 50  0     1  0  0  0  0  0999 V2000
    0.8417   -2.4814   -2.9019 C   0  0  0  0  0  0  0  0  0  0  0  0
   -0.1407   -1.7946   -2.6513 O   0  0  0  0  0  0  0  0  0  0  0  0
    0.6515   -3.9333   -3.2986 C   0  0  0  0  0  0  0  0  0  0  0  0
    1.1124   -4.5876   -2.5544 H   0  0  0  0  0  0  0  0  0  0  0  0
   -0.4140   -4.1722   -3.3643 H   0  0  0  0  0  0  0  0  0  0  0  0
    1.1122   -4.1193   -4.2721 H   0  0  0  0  0  0  0  0  0  0  0  0
    2.1251   -1.9766   -2.7803 N   0  0  0  0  0  0  0  0  0  0  0  0
    2.5192   -0.5983   -2.4133 C   0  0  2  0  0  0  0  0  0  0  0  0
    2.0964   -0.1720   -0.9890 C   0  0  0  0  0  0  0  0  0  0  0  0
    2.9411    0.0227   -0.1279 O   0  0  0  0  0  0  0  0  0  0  0  0
    2.0163    0.4024   -3.4641 C   0  0  0  0  0  0  0  0  0  0  0  0
    2.8757   -2.6409   -2.9513 H   0  0  0  0  0  0  0  0  0  0  0  0
    3.6134   -0.5569   -2.4276 H   0  0  0  0  0  0  0  0  0  0  0  0
    0.9240    0.4635   -3.4673 H   0  0  0  0  0  0  0  0  0  0  0  0
    2.4140    1.4002   -3.2527 H   0  0  0  0  0  0  0  0  0  0  0  0
    2.3489    0.1036   -4.4628 H   0  0  0  0  0  0  0  0  0  0  0  0
    0.7556   -0.1017   -0.6759 N   0  0  0  0  0  0  0  0  0  0  0  0
    0.1667    0.1561    0.6465 C   0  0  2  0  0  0  0  0  0  0  0  0
   -0.7137   -1.0402    1.0709 C   0  0  0  0  0  0  0  0  0  0  0  0
   -0.9597   -1.2113    2.2579 O   0  0  0  0  0  0  0  0  0  0  0  0
   -0.7199    1.4264    0.6756 C   0  0  0  0  0  0  0  0  0  0  0  0
   -0.0454    2.8058    0.4647 C   0  0  0  0  0  0  0  0  0  0  0  0
   -1.1508    3.8688    0.3918 C   0  0  0  0  0  0  0  0  0  0  0  0
    0.8048    2.9378   -0.8054 C   0  0  0  0  0  0  0  0  0  0  0  0
    0.1327   -0.3511   -1.4459 H   0  0  0  0  0  0  0  0  0  0  0  0
    0.9576    0.2661    1.3967 H   0  0  0  0  0  0  0  0  0  0  0  0
   -1.2266    1.4597    1.6466 H   0  0  0  0  0  0  0  0  0  0  0  0
   -1.4959    1.3038   -0.0879 H   0  0  0  0  0  0  0  0  0  0  0  0
    0.5943    3.0170    1.3282 H   0  0  0  0  0  0  0  0  0  0  0  0
   -1.7868    3.7090   -0.4849 H   0  0  0  0  0  0  0  0  0  0  0  0
   -0.7152    4.8709    0.3275 H   0  0  0  0  0  0  0  0  0  0  0  0
   -1.7780    3.8297    1.2882 H   0  0  0  0  0  0  0  0  0  0  0  0
    0.2854    2.5089   -1.6677 H   0  0  0  0  0  0  0  0  0  0  0  0
    1.0178    3.9898   -1.0195 H   0  0  0  0  0  0  0  0  0  0  0  0
    1.7654    2.4374   -0.6730 H   0  0  0  0  0  0  0  0  0  0  0  0
   -1.3598   -1.8154    0.1162 N   0  0  0  0  0  0  0  0  0  0  0  0
   -2.2376   -2.9800    0.3507 C   0  0  2  0  0  0  0  0  0  0  0  0
   -3.6096   -2.6530    0.9836 C   0  0  0  0  0  0  0  0  0  0  0  0
   -4.6156   -3.1979    0.5475 O   0  0  0  0  0  0  0  0  0  0  0  0
   -1.5102   -4.0683    1.1526 C   0  0  0  0  0  0  0  0  0  0  0  0
   -1.0886   -1.6379   -0.8521 H   0  0  0  0  0  0  0  0  0  0  0  0
   -2.4600   -3.4043   -0.6337 H   0  0  0  0  0  0  0  0  0  0  0  0
   -1.3471   -3.7556    2.1882 H   0  0  0  0  0  0  0  0  0  0  0  0
   -2.1068   -4.9858    1.1648 H   0  0  0  0  0  0  0  0  0  0  0  0
   -0.5403   -4.2914    0.6984 H   0  0  0  0  0  0  0  0  0  0  0  0
   -3.7249   -1.7736    2.0412 N   0  0  0  0  0  0  0  0  0  0  0  0
   -4.9747   -1.4848    2.7293 C   0  0  0  0  0  0  0  0  0  0  0  0
   -2.8441   -1.4234    2.4279 H   0  0  0  0  0  0  0  0  0  0  0  0
   -5.3432   -2.3791    3.2422 H   0  0  0  0  0  0  0  0  0  0  0  0
   -4.8225   -0.6947    3.4709 H   0  0  0  0  0  0  0  0  0  0  0  0
   -5.7348   -1.1471    2.0169 H   0  0  0  0  0  0  0  0  0  0  0  0
  1  2  2  0  0  0  0
  1  3  1  0  0  0  0
  1  7  1  0  0  0  0
  3  4  1  0  0  0  0
  3  5  1  0  0  0  0
  3  6  1  0  0  0  0
  7  8  1  0  0  0  0
  7 12  1  0  0  0  0
  8  9  1  0  0  0  0
  8 11  1  0  0  0  0
  8 13  1  0  0  0  0
  9 10  2  0  0  0  0
  9 17  1  0  0  0  0
 11 14  1  0  0  0  0
 11 15  1  0  0  0  0
 11 16  1  0  0  0  0
 17 18  1  0  0  0  0
 17 25  1  0  0  0  0
 18 19  1  0  0  0  0
 18 21  1  0  0  0  0
 18 26  1  0  0  0  0
 19 20  2  0  0  0  0
 19 36  1  0  0  0  0
 21 22  1  0  0  0  0
 21 27  1  0  0  0  0
 21 28  1  0  0  0  0
 22 23  1  0  0  0  0
 22 24  1  0  0  0  0
 22 29  1  0  0  0  0
 23 30  1  0  0  0  0
 23 31  1  0  0  0  0
 23 32  1  0  0  0  0
 24 33  1  0  0  0  0
 24 34  1  0  0  0  0
 24 35  1  0  0  0  0
 36 37  1  0  0  0  0
 36 41  1  0  0  0  0
 37 38  1  0  0  0  0
 37 40  1  0  0  0  0
 37 42  1  0  0  0  0
 38 39  2  0  0  0  0
 38 46  1  0  0  0  0
 40 43  1  0  0  0  0
 40 44  1  0  0  0  0
 40 45  1  0  0  0  0
 46 47  1  0  0  0  0
 46 48  1  0  0  0  0
 47 49  1  0  0  0  0
 47 50  1  0  0  0  0
 47 51  1  0  0  0  0
M  END
$$$$

  -OEChem-05262216553D

 51 50  0     1  0  0  0  0  0999 V2000
    0.8719   -2.5255   -2.9607 C   0  0  0  0  0  0  0  0  0  0  0  0
   -0.1313   -1.8974   -2.6503 O   0  0  0  0  0  0  0  0  0  0  0  0
    0.7427   -3.9799   -3.3708 C   0  0  0  0  0  0  0  0  0  0  0  0
    1.2614   -4.6184   -2.6512 H   0  0  0  0  0  0  0  0  0  0  0  0
   -0.3110   -4.2720   -3.4044 H   0  0  0  0  0  0  0  0  0  0  0  0
    1.1788   -4.1299   -4.3615 H   0  0  0  0  0  0  0  0  0  0  0  0
    2.1268   -1.9479   -2.8882 N   0  0  0  0  0  0  0  0  0  0  0  0
    2.4462   -0.5538   -2.5134 C   0  0  2  0  0  0  0  0  0  0  0  0
    2.0414   -0.1739   -1.0703 C   0  0  0  0  0  0  0  0  0  0  0  0
    2.9032   -0.0182   -0.2178 O   0  0  0  0  0  0  0  0  0  0  0  0
    1.8558    0.4253   -3.5385 C   0  0  0  0  0  0  0  0  0  0  0  0
    2.9082   -2.5595   -3.1102 H   0  0  0  0  0  0  0  0  0  0  0  0
    3.5352   -0.4456   -2.5573 H   0  0  0  0  0  0  0  0  0  0  0  0
    0.7621    0.4109   -3.5226 H   0  0  0  0  0  0  0  0  0  0  0  0
    2.1881    1.4446   -3.3182 H   0  0  0  0  0  0  0  0  0  0  0  0
    2.1902    0.1643   -4.5471 H   0  0  0  0  0  0  0  0  0  0  0  0
    0.7065   -0.1013   -0.7252 N   0  0  0  0  0  0  0  0  0  0  0  0
    0.1651    0.1220    0.6264 C   0  0  2  0  0  0  0  0  0  0  0  0
   -0.7191   -1.0728    1.0581 C   0  0  0  0  0  0  0  0  0  0  0  0
   -1.0968   -1.1562    2.2201 O   0  0  0  0  0  0  0  0  0  0  0  0
   -0.7012    1.4062    0.7079 C   0  0  0  0  0  0  0  0  0  0  0  0
   -0.0151    2.7821    0.5087 C   0  0  0  0  0  0  0  0  0  0  0  0
   -1.1097    3.8585    0.4909 C   0  0  0  0  0  0  0  0  0  0  0  0
    0.7983    2.9354   -0.7828 C   0  0  0  0  0  0  0  0  0  0  0  0
    0.0580   -0.3343   -1.4796 H   0  0  0  0  0  0  0  0  0  0  0  0
    0.9799    0.2043    1.3541 H   0  0  0  0  0  0  0  0  0  0  0  0
   -1.1804    1.4288    1.6929 H   0  0  0  0  0  0  0  0  0  0  0  0
   -1.5004    1.3100   -0.0352 H   0  0  0  0  0  0  0  0  0  0  0  0
    0.6520    2.9660    1.3578 H   0  0  0  0  0  0  0  0  0  0  0  0
   -1.7729    3.7244   -0.3698 H   0  0  0  0  0  0  0  0  0  0  0  0
   -0.6650    4.8570    0.4343 H   0  0  0  0  0  0  0  0  0  0  0  0
   -1.7105    3.8070    1.4043 H   0  0  0  0  0  0  0  0  0  0  0  0
    0.2507    2.5275   -1.6378 H   0  0  0  0  0  0  0  0  0  0  0  0
    1.0114    3.9903   -0.9818 H   0  0  0  0  0  0  0  0  0  0  0  0
    1.7593    2.4271   -0.6891 H   0  0  0  0  0  0  0  0  0  0  0  0
   -1.1648   -2.0002    0.1255 N   0  0  0  0  0  0  0  0  0  0  0  0
   -1.9819   -3.2062    0.3686 C   0  0  2  0  0  0  0  0  0  0  0  0
   -3.4452   -2.9378    0.7879 C   0  0  0  0  0  0  0  0  0  0  0  0
   -4.3476   -3.5752    0.2598 O   0  0  0  0  0  0  0  0  0  0  0  0
   -1.2939   -4.1484    1.3655 C   0  0  0  0  0  0  0  0  0  0  0  0
   -0.8194   -1.8678   -0.8268 H   0  0  0  0  0  0  0  0  0  0  0  0
   -2.0396   -3.7387   -0.5864 H   0  0  0  0  0  0  0  0  0  0  0  0
   -1.2884   -3.7236    2.3735 H   0  0  0  0  0  0  0  0  0  0  0  0
   -1.8243   -5.1050    1.4028 H   0  0  0  0  0  0  0  0  0  0  0  0
   -0.2604   -4.3362    1.0601 H   0  0  0  0  0  0  0  0  0  0  0  0
   -3.7561   -2.0157    1.7667 N   0  0  0  0  0  0  0  0  0  0  0  0
   -5.1043   -1.7675    2.2566 C   0  0  0  0  0  0  0  0  0  0  0  0
   -2.9603   -1.5601    2.2222 H   0  0  0  0  0  0  0  0  0  0  0  0
   -5.0863   -0.9985    3.0347 H   0  0  0  0  0  0  0  0  0  0  0  0
   -5.7496   -1.4215    1.4426 H   0  0  0  0  0  0  0  0  0  0  0  0
   -5.5314   -2.6817    2.6816 H   0  0  0  0  0  0  0  0  0  0  0  0
  1  2  2  0  0  0  0
  1  3  1  0  0  0  0
  1  7  1  0  0  0  0
  3  4  1  0  0  0  0
  3  5  1  0  0  0  0
  3  6  1  0  0  0  0
  7  8  1  0  0  0  0
  7 12  1  0  0  0  0
  8  9  1  0  0  0  0
  8 11  1  0  0  0  0
  8 13  1  0  0  0  0
  9 10  2  0  0  0  0
  9 17  1  0  0  0  0
 11 14  1  0  0  0  0
 11 15  1  0  0  0  0
 11 16  1  0  0  0  0
 17 18  1  0  0  0  0
 17 25  1  0  0  0  0
 18 19  1  0  0  0  0
 18 21  1  0  0  0  0
 18 26  1  0  0  0  0
 19 20  2  0  0  0  0
 19 36  1  0  0  0  0
 21 22  1  0  0  0  0
 21 27  1  0  0  0  0
 21 28  1  0  0  0  0
 22 23  1  0  0  0  0
 22 24  1  0  0  0  0
 22 29  1  0  0  0  0
 23 30  1  0  0  0  0
 23 31  1  0  0  0  0
 23 32  1  0  0  0  0
 24 33  1  0  0  0  0
 24 34  1  0  0  0  0
 24 35  1  0  0  0  0
 36 37  1  0  0  0  0
 36 41  1  0  0  0  0
 37 38  1  0  0  0  0
 37 40  1  0  0  0  0
 37 42  1  0  0  0  0
 38 39  2  0  0  0  0
 38 46  1  0  0  0  0
 40 43  1  0  0  0  0
 40 44  1  0  0  0  0
 40 45  1  0  0  0  0
 46 47  1  0  0  0  0
 46 48  1  0  0  0  0
 47 49  1  0  0  0  0
 47 50  1  0  0  0  0
 47 51  1  0  0  0  0
M  END
$$$$

  -OEChem-05262216553D

 51 50  0     1  0  0  0  0  0999 V2000
    0.9679   -2.6156   -2.9580 C   0  0  0  0  0  0  0  0  0  0  0  0
   -0.0601   -2.0539   -2.6069 O   0  0  0  0  0  0  0  0  0  0  0  0
    0.9178   -4.0709   -3.3824 C   0  0  0  0  0  0  0  0  0  0  0  0
    1.4873   -4.6856   -2.6807 H   0  0  0  0  0  0  0  0  0  0  0  0
   -0.1174   -4.4242   -3.3995 H   0  0  0  0  0  0  0  0  0  0  0  0
    1.3422   -4.1844   -4.3830 H   0  0  0  0  0  0  0  0  0  0  0  0
    2.1818   -1.9551   -2.9180 N   0  0  0  0  0  0  0  0  0  0  0  0
    2.4069   -0.5421   -2.5488 C   0  0  2  0  0  0  0  0  0  0  0  0
    1.9935   -0.1890   -1.1009 C   0  0  0  0  0  0  0  0  0  0  0  0
    2.8566   -0.0479   -0.2470 O   0  0  0  0  0  0  0  0  0  0  0  0
    1.7411    0.3897   -3.5723 C   0  0  0  0  0  0  0  0  0  0  0  0
    2.9979   -2.5086   -3.1660 H   0  0  0  0  0  0  0  0  0  0  0  0
    3.4851   -0.3586   -2.6046 H   0  0  0  0  0  0  0  0  0  0  0  0
    0.6514    0.2966   -3.5499 H   0  0  0  0  0  0  0  0  0  0  0  0
    2.0006    1.4313   -3.3578 H   0  0  0  0  0  0  0  0  0  0  0  0
    2.0873    0.1499   -4.5822 H   0  0  0  0  0  0  0  0  0  0  0  0
    0.6585   -0.1120   -0.7496 N   0  0  0  0  0  0  0  0  0  0  0  0
    0.1367    0.1012    0.6135 C   0  0  2  0  0  0  0  0  0  0  0  0
   -0.7528   -1.0904    1.0507 C   0  0  0  0  0  0  0  0  0  0  0  0
   -1.2815   -1.0866    2.1560 O   0  0  0  0  0  0  0  0  0  0  0  0
   -0.7085    1.4010    0.7092 C   0  0  0  0  0  0  0  0  0  0  0  0
   -0.0050    2.7691    0.5129 C   0  0  0  0  0  0  0  0  0  0  0  0
   -1.0861    3.8599    0.5110 C   0  0  0  0  0  0  0  0  0  0  0  0
    0.7989    2.9230   -0.7846 C   0  0  0  0  0  0  0  0  0  0  0  0
    0.0026   -0.3653   -1.4911 H   0  0  0  0  0  0  0  0  0  0  0  0
    0.9595    0.1686    1.3329 H   0  0  0  0  0  0  0  0  0  0  0  0
   -1.1784    1.4305    1.6985 H   0  0  0  0  0  0  0  0  0  0  0  0
   -1.5153    1.3208   -0.0273 H   0  0  0  0  0  0  0  0  0  0  0  0
    0.6714    2.9386    1.3579 H   0  0  0  0  0  0  0  0  0  0  0  0
   -1.7531    3.7440   -0.3494 H   0  0  0  0  0  0  0  0  0  0  0  0
   -0.6290    4.8533    0.4652 H   0  0  0  0  0  0  0  0  0  0  0  0
   -1.6856    3.8059    1.4252 H   0  0  0  0  0  0  0  0  0  0  0  0
    0.2384    2.5296   -1.6380 H   0  0  0  0  0  0  0  0  0  0  0  0
    1.0237    3.9767   -0.9769 H   0  0  0  0  0  0  0  0  0  0  0  0
    1.7544    2.4027   -0.7040 H   0  0  0  0  0  0  0  0  0  0  0  0
   -0.9676   -2.1651    0.1988 N   0  0  0  0  0  0  0  0  0  0  0  0
   -1.7210   -3.4051    0.4745 C   0  0  2  0  0  0  0  0  0  0  0  0
   -3.2467   -3.2265    0.6485 C   0  0  0  0  0  0  0  0  0  0  0  0
   -4.0113   -3.9821    0.0618 O   0  0  0  0  0  0  0  0  0  0  0  0
   -1.1218   -4.1593    1.6692 C   0  0  0  0  0  0  0  0  0  0  0  0
   -0.5529   -2.0772   -0.7309 H   0  0  0  0  0  0  0  0  0  0  0  0
   -1.5946   -4.0467   -0.4035 H   0  0  0  0  0  0  0  0  0  0  0  0
   -1.2962   -3.6215    2.6057 H   0  0  0  0  0  0  0  0  0  0  0  0
   -1.5805   -5.1493    1.7554 H   0  0  0  0  0  0  0  0  0  0  0  0
   -0.0435   -4.2868    1.5359 H   0  0  0  0  0  0  0  0  0  0  0  0
   -3.7668   -2.2537    1.4780 N   0  0  0  0  0  0  0  0  0  0  0  0
   -5.1879   -2.0711    1.7357 C   0  0  0  0  0  0  0  0  0  0  0  0
   -3.0835   -1.6836    1.9842 H   0  0  0  0  0  0  0  0  0  0  0  0
   -5.3416   -1.2303    2.4189 H   0  0  0  0  0  0  0  0  0  0  0  0
   -5.7218   -1.8612    0.8031 H   0  0  0  0  0  0  0  0  0  0  0  0
   -5.6131   -2.9711    2.1917 H   0  0  0  0  0  0  0  0  0  0  0  0
  1  2  2  0  0  0  0
  1  3  1  0  0  0  0
  1  7  1  0  0  0  0
  3  4  1  0  0  0  0
  3  5  1  0  0  0  0
  3  6  1  0  0  0  0
  7  8  1  0  0  0  0
  7 12  1  0  0  0  0
  8  9  1  0  0  0  0
  8 11  1  0  0  0  0
  8 13  1  0  0  0  0
  9 10  2  0  0  0  0
  9 17  1  0  0  0  0
 11 14  1  0  0  0  0
 11 15  1  0  0  0  0
 11 16  1  0  0  0  0
 17 18  1  0  0  0  0
 17 25  1  0  0  0  0
 18 19  1  0  0  0  0
 18 21  1  0  0  0  0
 18 26  1  0  0  0  0
 19 20  2  0  0  0  0
 19 36  1  0  0  0  0
 21 22  1  0  0  0  0
 21 27  1  0  0  0  0
 21 28  1  0  0  0  0
 22 23  1  0  0  0  0
 22 24  1  0  0  0  0
 22 29  1  0  0  0  0
 23 30  1  0  0  0  0
 23 31  1  0  0  0  0
 23 32  1  0  0  0  0
 24 33  1  0  0  0  0
 24 34  1  0  0  0  0
 24 35  1  0  0  0  0
 36 37  1  0  0  0  0
 36 41  1  0  0  0  0
 37 38  1  0  0  0  0
 37 40  1  0  0  0  0
 37 42  1  0  0  0  0
 38 39  2  0  0  0  0
 38 46  1  0  0  0  0
 40 43  1  0  0  0  0
 40 44  1  0  0  0  0
 40 45  1  0  0  0  0
 46 47  1  0  0  0  0
 46 48  1  0  0  0  0
 47 49  1  0  0  0  0
 47 50  1  0  0  0  0
 47 51  1  0  0  0  0
M  END
$$$$

  -OEChem-05262216553D

 51 50  0     1  0  0  0  0  0999 V2000
    1.1352   -2.7171   -2.9087 C   0  0  0  0  0  0  0  0  0  0  0  0
    0.0733   -2.2825   -2.4872 O   0  0  0  0  0  0  0  0  0  0  0  0
    1.2468   -4.1762   -3.3073 C   0  0  0  0  0  0  0  0  0  0  0  0
    2.0019   -4.6754   -2.6951 H   0  0  0  0  0  0  0  0  0  0  0  0
    0.2875   -4.6817   -3.1630 H   0  0  0  0  0  0  0  0  0  0  0  0
    1.5300   -4.2557   -4.3598 H   0  0  0  0  0  0  0  0  0  0  0  0
    2.2472   -1.8996   -2.9731 N   0  0  0  0  0  0  0  0  0  0  0  0
    2.2967   -0.4668   -2.6211 C   0  0  2  0  0  0  0  0  0  0  0  0
    1.9153   -0.1667   -1.1525 C   0  0  0  0  0  0  0  0  0  0  0  0
    2.8022   -0.0482   -0.3195 O   0  0  0  0  0  0  0  0  0  0  0  0
    1.4583    0.3534   -3.6134 C   0  0  0  0  0  0  0  0  0  0  0  0
    3.1147   -2.3436   -3.2632 H   0  0  0  0  0  0  0  0  0  0  0  0
    3.3352   -0.1374   -2.7321 H   0  0  0  0  0  0  0  0  0  0  0  0
    0.3952    0.1070   -3.5397 H   0  0  0  0  0  0  0  0  0  0  0  0
    1.5781    1.4227   -3.4131 H   0  0  0  0  0  0  0  0  0  0  0  0
    1.7865    0.1560   -4.6385 H   0  0  0  0  0  0  0  0  0  0  0  0
    0.5895   -0.1052   -0.7590 N   0  0  0  0  0  0  0  0  0  0  0  0
    0.1189    0.0705    0.6292 C   0  0  2  0  0  0  0  0  0  0  0  0
   -0.7507   -1.1406    1.0610 C   0  0  0  0  0  0  0  0  0  0  0  0
   -1.4478   -1.0859    2.0673 O   0  0  0  0  0  0  0  0  0  0  0  0
   -0.7042    1.3794    0.7973 C   0  0  0  0  0  0  0  0  0  0  0  0
    0.0090    2.7454    0.6204 C   0  0  0  0  0  0  0  0  0  0  0  0
   -1.0581    3.8479    0.6935 C   0  0  0  0  0  0  0  0  0  0  0  0
    0.7650    2.9345   -0.7012 C   0  0  0  0  0  0  0  0  0  0  0  0
   -0.0861   -0.3926   -1.4691 H   0  0  0  0  0  0  0  0  0  0  0  0
    0.9681    0.1101    1.3192 H   0  0  0  0  0  0  0  0  0  0  0  0
   -1.1352    1.3865    1.8040 H   0  0  0  0  0  0  0  0  0  0  0  0
   -1.5391    1.3323    0.0897 H   0  0  0  0  0  0  0  0  0  0  0  0
    0.7182    2.8797    1.4444 H   0  0  0  0  0  0  0  0  0  0  0  0
   -1.7601    3.7668   -0.1428 H   0  0  0  0  0  0  0  0  0  0  0  0
   -0.5908    4.8372    0.6606 H   0  0  0  0  0  0  0  0  0  0  0  0
   -1.6218    3.7722    1.6287 H   0  0  0  0  0  0  0  0  0  0  0  0
    0.1708    2.5687   -1.5442 H   0  0  0  0  0  0  0  0  0  0  0  0
    0.9880    3.9926   -0.8710 H   0  0  0  0  0  0  0  0  0  0  0  0
    1.7202    2.4085   -0.6720 H   0  0  0  0  0  0  0  0  0  0  0  0
   -0.7357   -2.3109    0.3169 N   0  0  0  0  0  0  0  0  0  0  0  0
   -1.4336   -3.5808    0.6024 C   0  0  2  0  0  0  0  0  0  0  0  0
   -2.9743   -3.5249    0.4942 C   0  0  0  0  0  0  0  0  0  0  0  0
   -3.5701   -4.4310   -0.0750 O   0  0  0  0  0  0  0  0  0  0  0  0
   -1.0017   -4.1563    1.9578 C   0  0  0  0  0  0  0  0  0  0  0  0
   -0.2404   -2.2514   -0.5751 H   0  0  0  0  0  0  0  0  0  0  0  0
   -1.1076   -4.2918   -0.1634 H   0  0  0  0  0  0  0  0  0  0  0  0
   -1.3873   -3.5538    2.7851 H   0  0  0  0  0  0  0  0  0  0  0  0
   -1.3862   -5.1746    2.0712 H   0  0  0  0  0  0  0  0  0  0  0  0
    0.0898   -4.1871    2.0278 H   0  0  0  0  0  0  0  0  0  0  0  0
   -3.6972   -2.4914    1.0552 N   0  0  0  0  0  0  0  0  0  0  0  0
   -5.1514   -2.4251    1.0667 C   0  0  0  0  0  0  0  0  0  0  0  0
   -3.1569   -1.8128    1.5987 H   0  0  0  0  0  0  0  0  0  0  0  0
   -5.4822   -1.4921    1.5328 H   0  0  0  0  0  0  0  0  0  0  0  0
   -5.5440   -2.4593    0.0451 H   0  0  0  0  0  0  0  0  0  0  0  0
   -5.5684   -3.2641    1.6330 H   0  0  0  0  0  0  0  0  0  0  0  0
  1  2  2  0  0  0  0
  1  3  1  0  0  0  0
  1  7  1  0  0  0  0
  3  4  1  0  0  0  0
  3  5  1  0  0  0  0
  3  6  1  0  0  0  0
  7  8  1  0  0  0  0
  7 12  1  0  0  0  0
  8  9  1  0  0  0  0
  8 11  1  0  0  0  0
  8 13  1  0  0  0  0
  9 10  2  0  0  0  0
  9 17  1  0  0  0  0
 11 14  1  0  0  0  0
 11 15  1  0  0  0  0
 11 16  1  0  0  0  0
 17 18  1  0  0  0  0
 17 25  1  0  0  0  0
 18 19  1  0  0  0  0
 18 21  1  0  0  0  0
 18 26  1  0  0  0  0
 19 20  2  0  0  0  0
 19 36  1  0  0  0  0
 21 22  1  0  0  0  0
 21 27  1  0  0  0  0
 21 28  1  0  0  0  0
 22 23  1  0  0  0  0
 22 24  1  0  0  0  0
 22 29  1  0  0  0  0
 23 30  1  0  0  0  0
 23 31  1  0  0  0  0
 23 32  1  0  0  0  0
 24 33  1  0  0  0  0
 24 34  1  0  0  0  0
 24 35  1  0  0  0  0
 36 37  1  0  0  0  0
 36 41  1  0  0  0  0
 37 38  1  0  0  0  0
 37 40  1  0  0  0  0
 37 42  1  0  0  0  0
 38 39  2  0  0  0  0
 38 46  1  0  0  0  0
 40 43  1  0  0  0  0
 40 44  1  0  0  0  0
 40 45  1  0  0  0  0
 46 47  1  0  0  0  0
 46 48  1  0  0  0  0
 47 49  1  0  0  0  0
 47 50  1  0  0  0  0
 47 51  1  0  0  0  0
M  END
$$$$

  -OEChem-05262216553D

 51 50  0     1  0  0  0  0  0999 V2000
    1.6403   -2.9803   -2.7758 C   0  0  0  0  0  0  0  0  0  0  0  0
    0.5949   -2.8978   -2.1475 O   0  0  0  0  0  0  0  0  0  0  0  0
    2.2787   -4.3371   -3.0051 C   0  0  0  0  0  0  0  0  0  0  0  0
    3.2415   -4.3891   -2.4905 H   0  0  0  0  0  0  0  0  0  0  0  0
    1.6307   -5.1296   -2.6195 H   0  0  0  0  0  0  0  0  0  0  0  0
    2.4349   -4.5019   -4.0740 H   0  0  0  0  0  0  0  0  0  0  0  0
    2.2644   -1.8388   -3.2423 N   0  0  0  0  0  0  0  0  0  0  0  0
    1.8100   -0.4633   -2.9698 C   0  0  2  0  0  0  0  0  0  0  0  0
    1.6454   -0.1812   -1.4570 C   0  0  0  0  0  0  0  0  0  0  0  0
    2.6466   -0.1242   -0.7564 O   0  0  0  0  0  0  0  0  0  0  0  0
    0.5445   -0.1607   -3.7888 C   0  0  0  0  0  0  0  0  0  0  0  0
    3.1941   -1.9637   -3.6334 H   0  0  0  0  0  0  0  0  0  0  0  0
    2.5888    0.2242   -3.3152 H   0  0  0  0  0  0  0  0  0  0  0  0
   -0.2851   -0.8124   -3.4988 H   0  0  0  0  0  0  0  0  0  0  0  0
    0.2373    0.8796   -3.6425 H   0  0  0  0  0  0  0  0  0  0  0  0
    0.7423   -0.3135   -4.8541 H   0  0  0  0  0  0  0  0  0  0  0  0
    0.3935   -0.0809   -0.8717 N   0  0  0  0  0  0  0  0  0  0  0  0
    0.1458    0.0483    0.5777 C   0  0  2  0  0  0  0  0  0  0  0  0
   -0.7112   -1.1516    1.0670 C   0  0  0  0  0  0  0  0  0  0  0  0
   -1.4985   -1.0342    1.9993 O   0  0  0  0  0  0  0  0  0  0  0  0
   -0.5612    1.3902    0.9260 C   0  0  0  0  0  0  0  0  0  0  0  0
    0.2013    2.7221    0.7023 C   0  0  0  0  0  0  0  0  0  0  0  0
   -0.7726    3.8756    0.9846 C   0  0  0  0  0  0  0  0  0  0  0  0
    0.7600    2.9388   -0.7103 C   0  0  0  0  0  0  0  0  0  0  0  0
   -0.3976   -0.2894   -1.4761 H   0  0  0  0  0  0  0  0  0  0  0  0
    1.0878    0.0089    1.1345 H   0  0  0  0  0  0  0  0  0  0  0  0
   -0.8310    1.3683    1.9874 H   0  0  0  0  0  0  0  0  0  0  0  0
   -1.4960    1.4254    0.3565 H   0  0  0  0  0  0  0  0  0  0  0  0
    1.0329    2.7737    1.4136 H   0  0  0  0  0  0  0  0  0  0  0  0
   -1.5926    3.8791    0.2593 H   0  0  0  0  0  0  0  0  0  0  0  0
   -0.2543    4.8380    0.9284 H   0  0  0  0  0  0  0  0  0  0  0  0
   -1.1973    3.7796    1.9888 H   0  0  0  0  0  0  0  0  0  0  0  0
    0.0296    2.6400   -1.4682 H   0  0  0  0  0  0  0  0  0  0  0  0
    1.0098    3.9923   -0.8698 H   0  0  0  0  0  0  0  0  0  0  0  0
    1.6806    2.3702   -0.8463 H   0  0  0  0  0  0  0  0  0  0  0  0
   -0.6090   -2.3778    0.4277 N   0  0  0  0  0  0  0  0  0  0  0  0
   -1.3245   -3.6320    0.7407 C   0  0  2  0  0  0  0  0  0  0  0  0
   -2.8495   -3.6033    0.4870 C   0  0  0  0  0  0  0  0  0  0  0  0
   -3.3884   -4.5484   -0.0756 O   0  0  0  0  0  0  0  0  0  0  0  0
   -1.0173   -4.1017    2.1686 C   0  0  0  0  0  0  0  0  0  0  0  0
   -0.0022   -2.3961   -0.3977 H   0  0  0  0  0  0  0  0  0  0  0  0
   -0.9244   -4.3919    0.0615 H   0  0  0  0  0  0  0  0  0  0  0  0
   -1.4743   -3.4409    2.9108 H   0  0  0  0  0  0  0  0  0  0  0  0
   -1.4109   -5.1112    2.3230 H   0  0  0  0  0  0  0  0  0  0  0  0
    0.0635   -4.1217    2.3369 H   0  0  0  0  0  0  0  0  0  0  0  0
   -3.6282   -2.5472    0.9166 N   0  0  0  0  0  0  0  0  0  0  0  0
   -5.0794   -2.5057    0.8092 C   0  0  0  0  0  0  0  0  0  0  0  0
   -3.1428   -1.8322    1.4652 H   0  0  0  0  0  0  0  0  0  0  0  0
   -5.4573   -1.5518    1.1892 H   0  0  0  0  0  0  0  0  0  0  0  0
   -5.3895   -2.6084   -0.2358 H   0  0  0  0  0  0  0  0  0  0  0  0
   -5.5296   -3.3155    1.3925 H   0  0  0  0  0  0  0  0  0  0  0  0
  1  2  2  0  0  0  0
  1  3  1  0  0  0  0
  1  7  1  0  0  0  0
  3  4  1  0  0  0  0
  3  5  1  0  0  0  0
  3  6  1  0  0  0  0
  7  8  1  0  0  0  0
  7 12  1  0  0  0  0
  8  9  1  0  0  0  0
  8 11  1  0  0  0  0
  8 13  1  0  0  0  0
  9 10  2  0  0  0  0
  9 17  1  0  0  0  0
 11 14  1  0  0  0  0
 11 15  1  0  0  0  0
 11 16  1  0  0  0  0
 17 18  1  0  0  0  0
 17 25  1  0  0  0  0
 18 19  1  0  0  0  0
 18 21  1  0  0  0  0
 18 26  1  0  0  0  0
 19 20  2  0  0  0  0
 19 36  1  0  0  0  0
 21 22  1  0  0  0  0
 21 27  1  0  0  0  0
 21 28  1  0  0  0  0
 22 23  1  0  0  0  0
 22 24  1  0  0  0  0
 22 29  1  0  0  0  0
 23 30  1  0  0  0  0
 23 31  1  0  0  0  0
 23 32  1  0  0  0  0
 24 33  1  0  0  0  0
 24 34  1  0  0  0  0
 24 35  1  0  0  0  0
 36 37  1  0  0  0  0
 36 41  1  0  0  0  0
 37 38  1  0  0  0  0
 37 40  1  0  0  0  0
 37 42  1  0  0  0  0
 38 39  2  0  0  0  0
 38 46  1  0  0  0  0
 40 43  1  0  0  0  0
 40 44  1  0  0  0  0
 40 45  1  0  0  0  0
 46 47  1  0  0  0  0
 46 48  1  0  0  0  0
 47 49  1  0  0  0  0
 47 50  1  0  0  0  0
 47 51  1  0  0  0  0
M  END
$$$$

  -OEChem-05262216553D

 51 50  0     1  0  0  0  0  0999 V2000
    2.1043   -3.0881   -2.4999 C   0  0  0  0  0  0  0  0  0  0  0  0
    1.3429   -3.2426   -1.5549 O   0  0  0  0  0  0  0  0  0  0  0  0
    3.1993   -4.1071   -2.7522 C   0  0  0  0  0  0  0  0  0  0  0  0
    4.1793   -3.6333   -2.6530 H   0  0  0  0  0  0  0  0  0  0  0  0
    3.1292   -4.9243   -2.0288 H   0  0  0  0  0  0  0  0  0  0  0  0
    3.1007   -4.5197   -3.7591 H   0  0  0  0  0  0  0  0  0  0  0  0
    2.0044   -1.9822   -3.3248 N   0  0  0  0  0  0  0  0  0  0  0  0
    1.1097   -0.8370   -3.0733 C   0  0  2  0  0  0  0  0  0  0  0  0
    1.2892   -0.2533   -1.6500 C   0  0  0  0  0  0  0  0  0  0  0  0
    2.4220    0.0360   -1.2810 O   0  0  0  0  0  0  0  0  0  0  0  0
   -0.3342   -1.2343   -3.4133 C   0  0  0  0  0  0  0  0  0  0  0  0
    2.7704   -1.8467   -3.9777 H   0  0  0  0  0  0  0  0  0  0  0  0
    1.3892   -0.0297   -3.7569 H   0  0  0  0  0  0  0  0  0  0  0  0
   -0.6658   -2.0745   -2.7982 H   0  0  0  0  0  0  0  0  0  0  0  0
   -1.0148   -0.3925   -3.2516 H   0  0  0  0  0  0  0  0  0  0  0  0
   -0.4038   -1.5344   -4.4630 H   0  0  0  0  0  0  0  0  0  0  0  0
    0.2334   -0.1397   -0.7603 N   0  0  0  0  0  0  0  0  0  0  0  0
    0.4099    0.0858    0.6879 C   0  0  2  0  0  0  0  0  0  0  0  0
   -0.2411   -1.1182    1.4118 C   0  0  0  0  0  0  0  0  0  0  0  0
   -1.0917   -0.9712    2.2838 O   0  0  0  0  0  0  0  0  0  0  0  0
   -0.2384    1.4160    1.1655 C   0  0  0  0  0  0  0  0  0  0  0  0
    0.3403    2.7634    0.6639 C   0  0  0  0  0  0  0  0  0  0  0  0
   -0.5770    3.8855    1.1729 C   0  0  0  0  0  0  0  0  0  0  0  0
    0.4276    2.9131   -0.8611 C   0  0  0  0  0  0  0  0  0  0  0  0
   -0.6428   -0.5841   -1.0514 H   0  0  0  0  0  0  0  0  0  0  0  0
    1.4684    0.1010    0.9652 H   0  0  0  0  0  0  0  0  0  0  0  0
   -0.1891    1.4385    2.2597 H   0  0  0  0  0  0  0  0  0  0  0  0
   -1.2983    1.3772    0.8905 H   0  0  0  0  0  0  0  0  0  0  0  0
    1.3424    2.8970    1.0845 H   0  0  0  0  0  0  0  0  0  0  0  0
   -1.5755    3.8013    0.7314 H   0  0  0  0  0  0  0  0  0  0  0  0
   -0.1643    4.8661    0.9158 H   0  0  0  0  0  0  0  0  0  0  0  0
   -0.6738    3.8348    2.2620 H   0  0  0  0  0  0  0  0  0  0  0  0
   -0.4774    2.5291   -1.3421 H   0  0  0  0  0  0  0  0  0  0  0  0
    0.5458    3.9648   -1.1402 H   0  0  0  0  0  0  0  0  0  0  0  0
    1.2969    2.3810   -1.2484 H   0  0  0  0  0  0  0  0  0  0  0  0
    0.0150   -2.3927    0.9289 N   0  0  0  0  0  0  0  0  0  0  0  0
   -1.0494   -3.4063    0.8586 C   0  0  2  0  0  0  0  0  0  0  0  0
   -2.3367   -2.8438    0.1955 C   0  0  0  0  0  0  0  0  0  0  0  0
   -2.2480   -2.0797   -0.7647 O   0  0  0  0  0  0  0  0  0  0  0  0
   -1.2845   -4.0453    2.2375 C   0  0  0  0  0  0  0  0  0  0  0  0
    0.6634   -2.4085    0.1356 H   0  0  0  0  0  0  0  0  0  0  0  0
   -0.6941   -4.2020    0.1965 H   0  0  0  0  0  0  0  0  0  0  0  0
   -1.7622   -3.3422    2.9261 H   0  0  0  0  0  0  0  0  0  0  0  0
   -1.9241   -4.9278    2.1435 H   0  0  0  0  0  0  0  0  0  0  0  0
   -0.3306   -4.3584    2.6729 H   0  0  0  0  0  0  0  0  0  0  0  0
   -3.5951   -3.1798    0.6622 N   0  0  0  0  0  0  0  0  0  0  0  0
   -4.8123   -2.5442    0.1733 C   0  0  0  0  0  0  0  0  0  0  0  0
   -3.6265   -3.6571    1.5580 H   0  0  0  0  0  0  0  0  0  0  0  0
   -5.6852   -2.9454    0.6970 H   0  0  0  0  0  0  0  0  0  0  0  0
   -4.7731   -1.4627    0.3419 H   0  0  0  0  0  0  0  0  0  0  0  0
   -4.9381   -2.7298   -0.8985 H   0  0  0  0  0  0  0  0  0  0  0  0
  1  2  2  0  0  0  0
  1  3  1  0  0  0  0
  1  7  1  0  0  0  0
  3  4  1  0  0  0  0
  3  5  1  0  0  0  0
  3  6  1  0  0  0  0
  7  8  1  0  0  0  0
  7 12  1  0  0  0  0
  8  9  1  0  0  0  0
  8 11  1  0  0  0  0
  8 13  1  0  0  0  0
  9 10  2  0  0  0  0
  9 17  1  0  0  0  0
 11 14  1  0  0  0  0
 11 15  1  0  0  0  0
 11 16  1  0  0  0  0
 17 18  1  0  0  0  0
 17 25  1  0  0  0  0
 18 19  1  0  0  0  0
 18 21  1  0  0  0  0
 18 26  1  0  0  0  0
 19 20  2  0  0  0  0
 19 36  1  0  0  0  0
 21 22  1  0  0  0  0
 21 27  1  0  0  0  0
 21 28  1  0  0  0  0
 22 23  1  0  0  0  0
 22 24  1  0  0  0  0
 22 29  1  0  0  0  0
 23 30  1  0  0  0  0
 23 31  1  0  0  0  0
 23 32  1  0  0  0  0
 24 33  1  0  0  0  0
 24 34  1  0  0  0  0
 24 35  1  0  0  0  0
 36 37  1  0  0  0  0
 36 41  1  0  0  0  0
 37 38  1  0  0  0  0
 37 40  1  0  0  0  0
 37 42  1  0  0  0  0
 38 39  2  0  0  0  0
 38 46  1  0  0  0  0
 40 43  1  0  0  0  0
 40 44  1  0  0  0  0
 40 45  1  0  0  0  0
 46 47  1  0  0  0  0
 46 48  1  0  0  0  0
 47 49  1  0  0  0  0
 47 50  1  0  0  0  0
 47 51  1  0  0  0  0
M  END
$$$$

  -OEChem-05262216553D

 51 50  0     1  0  0  0  0  0999 V2000
    2.1592   -3.0694   -2.3736 C   0  0  0  0  0  0  0  0  0  0  0  0
    1.4264   -3.1877   -1.4004 O   0  0  0  0  0  0  0  0  0  0  0  0
    3.3017   -4.0476   -2.5705 C   0  0  0  0  0  0  0  0  0  0  0  0
    4.2550   -3.5132   -2.5582 H   0  0  0  0  0  0  0  0  0  0  0  0
    3.3055   -4.7909   -1.7683 H   0  0  0  0  0  0  0  0  0  0  0  0
    3.1915   -4.5631   -3.5276 H   0  0  0  0  0  0  0  0  0  0  0  0
    1.9908   -2.0379   -3.2807 N   0  0  0  0  0  0  0  0  0  0  0  0
    1.0589   -0.9103   -3.0905 C   0  0  2  0  0  0  0  0  0  0  0  0
    1.2375   -0.2281   -1.7112 C   0  0  0  0  0  0  0  0  0  0  0  0
    2.3746    0.0497   -1.3455 O   0  0  0  0  0  0  0  0  0  0  0  0
   -0.3730   -1.3869   -3.3737 C   0  0  0  0  0  0  0  0  0  0  0  0
    2.7380   -1.9211   -3.9584 H   0  0  0  0  0  0  0  0  0  0  0  0
    1.2957   -0.1414   -3.8318 H   0  0  0  0  0  0  0  0  0  0  0  0
   -0.6623   -2.1838   -2.6845 H   0  0  0  0  0  0  0  0  0  0  0  0
   -1.0838   -0.5610   -3.2722 H   0  0  0  0  0  0  0  0  0  0  0  0
   -0.4453   -1.7772   -4.3932 H   0  0  0  0  0  0  0  0  0  0  0  0
    0.1738   -0.0382   -0.8434 N   0  0  0  0  0  0  0  0  0  0  0  0
    0.3598    0.1555    0.6065 C   0  0  2  0  0  0  0  0  0  0  0  0
   -0.3973   -1.0024    1.2972 C   0  0  0  0  0  0  0  0  0  0  0  0
   -1.3583   -0.8062    2.0346 O   0  0  0  0  0  0  0  0  0  0  0  0
   -0.1752    1.5250    1.1132 C   0  0  0  0  0  0  0  0  0  0  0  0
    0.5136    2.8308    0.6408 C   0  0  0  0  0  0  0  0  0  0  0  0
   -0.3065    4.0150    1.1752 C   0  0  0  0  0  0  0  0  0  0  0  0
    0.6046    3.0069   -0.8816 C   0  0  0  0  0  0  0  0  0  0  0  0
   -0.7033   -0.4760   -1.1319 H   0  0  0  0  0  0  0  0  0  0  0  0
    1.4134    0.0752    0.8924 H   0  0  0  0  0  0  0  0  0  0  0  0
   -0.1283    1.5158    2.2076 H   0  0  0  0  0  0  0  0  0  0  0  0
   -1.2335    1.5838    0.8361 H   0  0  0  0  0  0  0  0  0  0  0  0
    1.5249    2.8716    1.0591 H   0  0  0  0  0  0  0  0  0  0  0  0
   -1.3088    4.0255    0.7347 H   0  0  0  0  0  0  0  0  0  0  0  0
    0.1872    4.9628    0.9380 H   0  0  0  0  0  0  0  0  0  0  0  0
   -0.4061    3.9492    2.2632 H   0  0  0  0  0  0  0  0  0  0  0  0
   -0.3319    2.7098   -1.3637 H   0  0  0  0  0  0  0  0  0  0  0  0
    0.8084    4.0510   -1.1389 H   0  0  0  0  0  0  0  0  0  0  0  0
    1.4238    2.4145   -1.2884 H   0  0  0  0  0  0  0  0  0  0  0  0
   -0.0139   -2.3026    1.0082 N   0  0  0  0  0  0  0  0  0  0  0  0
   -0.9612   -3.4269    1.0787 C   0  0  2  0  0  0  0  0  0  0  0  0
   -2.2879   -3.1378    0.3239 C   0  0  0  0  0  0  0  0  0  0  0  0
   -2.2763   -2.4962   -0.7243 O   0  0  0  0  0  0  0  0  0  0  0  0
   -1.1622   -3.8608    2.5403 C   0  0  0  0  0  0  0  0  0  0  0  0
    0.6828   -2.3739    0.2596 H   0  0  0  0  0  0  0  0  0  0  0  0
   -0.4998   -4.2700    0.5555 H   0  0  0  0  0  0  0  0  0  0  0  0
   -1.7263   -3.1104    3.1022 H   0  0  0  0  0  0  0  0  0  0  0  0
   -1.7045   -4.8098    2.5861 H   0  0  0  0  0  0  0  0  0  0  0  0
   -0.1916   -3.9981    3.0271 H   0  0  0  0  0  0  0  0  0  0  0  0
   -3.4981   -3.6242    0.7868 N   0  0  0  0  0  0  0  0  0  0  0  0
   -4.7753   -3.2840    0.1724 C   0  0  0  0  0  0  0  0  0  0  0  0
   -3.4993   -4.0096    1.7260 H   0  0  0  0  0  0  0  0  0  0  0  0
   -5.5920   -3.7985    0.6880 H   0  0  0  0  0  0  0  0  0  0  0  0
   -4.9522   -2.2049    0.2310 H   0  0  0  0  0  0  0  0  0  0  0  0
   -4.7879   -3.5872   -0.8799 H   0  0  0  0  0  0  0  0  0  0  0  0
  1  2  2  0  0  0  0
  1  3  1  0  0  0  0
  1  7  1  0  0  0  0
  3  4  1  0  0  0  0
  3  5  1  0  0  0  0
  3  6  1  0  0  0  0
  7  8  1  0  0  0  0
  7 12  1  0  0  0  0
  8  9  1  0  0  0  0
  8 11  1  0  0  0  0
  8 13  1  0  0  0  0
  9 10  2  0  0  0  0
  9 17  1  0  0  0  0
 11 14  1  0  0  0  0
 11 15  1  0  0  0  0
 11 16  1  0  0  0  0
 17 18  1  0  0  0  0
 17 25  1  0  0  0  0
 18 19  1  0  0  0  0
 18 21  1  0  0  0  0
 18 26  1  0  0  0  0
 19 20  2  0  0  0  0
 19 36  1  0  0  0  0
 21 22  1  0  0  0  0
 21 27  1  0  0  0  0
 21 28  1  0  0  0  0
 22 23  1  0  0  0  0
 22 24  1  0  0  0  0
 22 29  1  0  0  0  0
 23 30  1  0  0  0  0
 23 31  1  0  0  0  0
 23 32  1  0  0  0  0
 24 33  1  0  0  0  0
 24 34  1  0  0  0  0
 24 35  1  0  0  0  0
 36 37  1  0  0  0  0
 36 41  1  0  0  0  0
 37 38  1  0  0  0  0
 37 40  1  0  0  0  0
 37 42  1  0  0  0  0
 38 39  2  0  0  0  0
 38 46  1  0  0  0  0
 40 43  1  0  0  0  0
 40 44  1  0  0  0  0
 40 45  1  0  0  0  0
 46 47  1  0  0  0  0
 46 48  1  0  0  0  0
 47 49  1  0  0  0  0
 47 50  1  0  0  0  0
 47 51  1  0  0  0  0
M  END
$$$$

  -OEChem-05262216553D

 51 50  0     1  0  0  0  0  0999 V2000
    1.9599   -3.0555   -2.3437 C   0  0  0  0  0  0  0  0  0  0  0  0
    1.2340   -3.0889   -1.3595 O   0  0  0  0  0  0  0  0  0  0  0  0
    3.0137   -4.1297   -2.5335 C   0  0  0  0  0  0  0  0  0  0  0  0
    4.0109   -3.6836   -2.5022 H   0  0  0  0  0  0  0  0  0  0  0  0
    2.9379   -4.8777   -1.7390 H   0  0  0  0  0  0  0  0  0  0  0  0
    2.8726   -4.6259   -3.4967 H   0  0  0  0  0  0  0  0  0  0  0  0
    1.8594   -2.0286   -3.2660 N   0  0  0  0  0  0  0  0  0  0  0  0
    0.9930   -0.8457   -3.1037 C   0  0  2  0  0  0  0  0  0  0  0  0
    1.1802   -0.1603   -1.7267 C   0  0  0  0  0  0  0  0  0  0  0  0
    2.3155    0.0853   -1.3372 O   0  0  0  0  0  0  0  0  0  0  0  0
   -0.4625   -1.2495   -3.3954 C   0  0  0  0  0  0  0  0  0  0  0  0
    2.5960   -1.9860   -3.9642 H   0  0  0  0  0  0  0  0  0  0  0  0
    1.2842   -0.1017   -3.8513 H   0  0  0  0  0  0  0  0  0  0  0  0
   -0.8257   -1.9754   -2.6603 H   0  0  0  0  0  0  0  0  0  0  0  0
   -1.1160   -0.3718   -3.3728 H   0  0  0  0  0  0  0  0  0  0  0  0
   -0.5348   -1.7033   -4.3886 H   0  0  0  0  0  0  0  0  0  0  0  0
    0.1076    0.0012   -0.8653 N   0  0  0  0  0  0  0  0  0  0  0  0
    0.2565    0.1228    0.5929 C   0  0  2  0  0  0  0  0  0  0  0  0
   -0.5272   -1.0557    1.2186 C   0  0  0  0  0  0  0  0  0  0  0  0
   -1.6494   -0.8995    1.6883 O   0  0  0  0  0  0  0  0  0  0  0  0
   -0.2752    1.4699    1.1575 C   0  0  0  0  0  0  0  0  0  0  0  0
    0.4425    2.7876    0.7691 C   0  0  0  0  0  0  0  0  0  0  0  0
   -0.3743    3.9550    1.3431 C   0  0  0  0  0  0  0  0  0  0  0  0
    0.5730    3.0393   -0.7399 C   0  0  0  0  0  0  0  0  0  0  0  0
   -0.7803   -0.3579   -1.2060 H   0  0  0  0  0  0  0  0  0  0  0  0
    1.3043    0.0215    0.8950 H   0  0  0  0  0  0  0  0  0  0  0  0
   -0.2588    1.4001    2.2506 H   0  0  0  0  0  0  0  0  0  0  0  0
   -1.3246    1.5619    0.8565 H   0  0  0  0  0  0  0  0  0  0  0  0
    1.4436    2.7923    1.2131 H   0  0  0  0  0  0  0  0  0  0  0  0
   -1.3633    4.0055    0.8763 H   0  0  0  0  0  0  0  0  0  0  0  0
    0.1403    4.9054    1.1705 H   0  0  0  0  0  0  0  0  0  0  0  0
   -0.5059    3.8336    2.4229 H   0  0  0  0  0  0  0  0  0  0  0  0
   -0.3565    2.7845   -1.2582 H   0  0  0  0  0  0  0  0  0  0  0  0
    0.8006    4.0914   -0.9384 H   0  0  0  0  0  0  0  0  0  0  0  0
    1.3916    2.4538   -1.1576 H   0  0  0  0  0  0  0  0  0  0  0  0
    0.0207   -2.3260    1.1537 N   0  0  0  0  0  0  0  0  0  0  0  0
   -0.6124   -3.5951    1.5691 C   0  0  2  0  0  0  0  0  0  0  0  0
   -1.8323   -4.0245    0.7207 C   0  0  0  0  0  0  0  0  0  0  0  0
   -1.9552   -5.1947    0.3809 O   0  0  0  0  0  0  0  0  0  0  0  0
   -0.9621   -3.5841    3.0634 C   0  0  0  0  0  0  0  0  0  0  0  0
    0.7828   -2.4184    0.4740 H   0  0  0  0  0  0  0  0  0  0  0  0
    0.1408   -4.3767    1.4251 H   0  0  0  0  0  0  0  0  0  0  0  0
   -1.7918   -2.9028    3.2726 H   0  0  0  0  0  0  0  0  0  0  0  0
   -1.2568   -4.5879    3.3850 H   0  0  0  0  0  0  0  0  0  0  0  0
   -0.0954   -3.2717    3.6534 H   0  0  0  0  0  0  0  0  0  0  0  0
   -2.8212   -3.1221    0.3797 N   0  0  0  0  0  0  0  0  0  0  0  0
   -4.0615   -3.4951   -0.2854 C   0  0  0  0  0  0  0  0  0  0  0  0
   -2.7449   -2.2009    0.8189 H   0  0  0  0  0  0  0  0  0  0  0  0
   -4.6699   -2.6058   -0.4757 H   0  0  0  0  0  0  0  0  0  0  0  0
   -3.8503   -3.9803   -1.2441 H   0  0  0  0  0  0  0  0  0  0  0  0
   -4.6383   -4.1849    0.3394 H   0  0  0  0  0  0  0  0  0  0  0  0
  1  2  2  0  0  0  0
  1  3  1  0  0  0  0
  1  7  1  0  0  0  0
  3  4  1  0  0  0  0
  3  5  1  0  0  0  0
  3  6  1  0  0  0  0
  7  8  1  0  0  0  0
  7 12  1  0  0  0  0
  8  9  1  0  0  0  0
  8 11  1  0  0  0  0
  8 13  1  0  0  0  0
  9 10  2  0  0  0  0
  9 17  1  0  0  0  0
 11 14  1  0  0  0  0
 11 15  1  0  0  0  0
 11 16  1  0  0  0  0
 17 18  1  0  0  0  0
 17 25  1  0  0  0  0
 18 19  1  0  0  0  0
 18 21  1  0  0  0  0
 18 26  1  0  0  0  0
 19 20  2  0  0  0  0
 19 36  1  0  0  0  0
 21 22  1  0  0  0  0
 21 27  1  0  0  0  0
 21 28  1  0  0  0  0
 22 23  1  0  0  0  0
 22 24  1  0  0  0  0
 22 29  1  0  0  0  0
 23 30  1  0  0  0  0
 23 31  1  0  0  0  0
 23 32  1  0  0  0  0
 24 33  1  0  0  0  0
 24 34  1  0  0  0  0
 24 35  1  0  0  0  0
 36 37  1  0  0  0  0
 36 41  1  0  0  0  0
 37 38  1  0  0  0  0
 37 40  1  0  0  0  0
 37 42  1  0  0  0  0
 38 39  2  0  0  0  0
 38 46  1  0  0  0  0
 40 43  1  0  0  0  0
 40 44  1  0  0  0  0
 40 45  1  0  0  0  0
 46 47  1  0  0  0  0
 46 48  1  0  0  0  0
 47 49  1  0  0  0  0
 47 50  1  0  0  0  0
 47 51  1  0  0  0  0
M  END
$$$$

  -OEChem-05262216553D

 51 50  0     1  0  0  0  0  0999 V2000
    1.8754   -3.0798   -2.1525 C   0  0  0  0  0  0  0  0  0  0  0  0
    1.2164   -3.0115   -1.1245 O   0  0  0  0  0  0  0  0  0  0  0  0
    2.8899   -4.1954   -2.3172 C   0  0  0  0  0  0  0  0  0  0  0  0
    3.8972   -3.7768   -2.3818 H   0  0  0  0  0  0  0  0  0  0  0  0
    2.8451   -4.8756   -1.4617 H   0  0  0  0  0  0  0  0  0  0  0  0
    2.6782   -4.7625   -3.2270 H   0  0  0  0  0  0  0  0  0  0  0  0
    1.7308   -2.1375   -3.1562 N   0  0  0  0  0  0  0  0  0  0  0  0
    0.8648   -0.9458   -3.0718 C   0  0  2  0  0  0  0  0  0  0  0  0
    1.0884   -0.1379   -1.7685 C   0  0  0  0  0  0  0  0  0  0  0  0
    2.2325    0.1660   -1.4514 O   0  0  0  0  0  0  0  0  0  0  0  0
   -0.5946   -1.3841   -3.2794 C   0  0  0  0  0  0  0  0  0  0  0  0
    2.4089   -2.1819   -3.9110 H   0  0  0  0  0  0  0  0  0  0  0  0
    1.1286   -0.2703   -3.8914 H   0  0  0  0  0  0  0  0  0  0  0  0
   -0.9241   -2.0474   -2.4727 H   0  0  0  0  0  0  0  0  0  0  0  0
   -1.2562   -0.5129   -3.3097 H   0  0  0  0  0  0  0  0  0  0  0  0
   -0.6946   -1.9222   -4.2270 H   0  0  0  0  0  0  0  0  0  0  0  0
    0.0513    0.0452   -0.8687 N   0  0  0  0  0  0  0  0  0  0  0  0
    0.2728    0.1931    0.5764 C   0  0  2  0  0  0  0  0  0  0  0  0
   -0.4854   -0.9710    1.2542 C   0  0  0  0  0  0  0  0  0  0  0  0
   -1.6797   -0.8739    1.5172 O   0  0  0  0  0  0  0  0  0  0  0  0
   -0.2419    1.5401    1.1538 C   0  0  0  0  0  0  0  0  0  0  0  0
    0.4391    2.8606    0.7140 C   0  0  0  0  0  0  0  0  0  0  0  0
   -0.3592    4.0253    1.3193 C   0  0  0  0  0  0  0  0  0  0  0  0
    0.4806    3.0956   -0.8022 C   0  0  0  0  0  0  0  0  0  0  0  0
   -0.8377   -0.3629   -1.1462 H   0  0  0  0  0  0  0  0  0  0  0  0
    1.3342    0.1003    0.8292 H   0  0  0  0  0  0  0  0  0  0  0  0
   -0.1711    1.4808    2.2452 H   0  0  0  0  0  0  0  0  0  0  0  0
   -1.3055    1.6203    0.9041 H   0  0  0  0  0  0  0  0  0  0  0  0
    1.4633    2.8817    1.1014 H   0  0  0  0  0  0  0  0  0  0  0  0
   -1.3761    4.0528    0.9146 H   0  0  0  0  0  0  0  0  0  0  0  0
    0.1279    4.9809    1.1000 H   0  0  0  0  0  0  0  0  0  0  0  0
   -0.4214    3.9197    2.4068 H   0  0  0  0  0  0  0  0  0  0  0  0
   -0.4772    2.8331   -1.2621 H   0  0  0  0  0  0  0  0  0  0  0  0
    0.6939    4.1459   -1.0244 H   0  0  0  0  0  0  0  0  0  0  0  0
    1.2736    2.5065   -1.2614 H   0  0  0  0  0  0  0  0  0  0  0  0
    0.1777   -2.1681    1.4630 N   0  0  0  0  0  0  0  0  0  0  0  0
   -0.4088   -3.4313    1.9582 C   0  0  2  0  0  0  0  0  0  0  0  0
   -1.4255   -4.0987    1.0014 C   0  0  0  0  0  0  0  0  0  0  0  0
   -1.3878   -5.3100    0.8229 O   0  0  0  0  0  0  0  0  0  0  0  0
   -1.0065   -3.2605    3.3617 C   0  0  0  0  0  0  0  0  0  0  0  0
    1.0014   -2.2784    0.8657 H   0  0  0  0  0  0  0  0  0  0  0  0
    0.4206   -4.1396    2.0523 H   0  0  0  0  0  0  0  0  0  0  0  0
   -1.9142   -2.6509    3.3370 H   0  0  0  0  0  0  0  0  0  0  0  0
   -1.2658   -4.2387    3.7784 H   0  0  0  0  0  0  0  0  0  0  0  0
   -0.2819   -2.7816    4.0271 H   0  0  0  0  0  0  0  0  0  0  0  0
   -2.4194   -3.3623    0.3866 N   0  0  0  0  0  0  0  0  0  0  0  0
   -3.4762   -3.9427   -0.4288 C   0  0  0  0  0  0  0  0  0  0  0  0
   -2.4908   -2.3859    0.6833 H   0  0  0  0  0  0  0  0  0  0  0  0
   -4.1135   -3.1525   -0.8369 H   0  0  0  0  0  0  0  0  0  0  0  0
   -3.0486   -4.5071   -1.2642 H   0  0  0  0  0  0  0  0  0  0  0  0
   -4.0969   -4.6159    0.1715 H   0  0  0  0  0  0  0  0  0  0  0  0
  1  2  2  0  0  0  0
  1  3  1  0  0  0  0
  1  7  1  0  0  0  0
  3  4  1  0  0  0  0
  3  5  1  0  0  0  0
  3  6  1  0  0  0  0
  7  8  1  0  0  0  0
  7 12  1  0  0  0  0
  8  9  1  0  0  0  0
  8 11  1  0  0  0  0
  8 13  1  0  0  0  0
  9 10  2  0  0  0  0
  9 17  1  0  0  0  0
 11 14  1  0  0  0  0
 11 15  1  0  0  0  0
 11 16  1  0  0  0  0
 17 18  1  0  0  0  0
 17 25  1  0  0  0  0
 18 19  1  0  0  0  0
 18 21  1  0  0  0  0
 18 26  1  0  0  0  0
 19 20  2  0  0  0  0
 19 36  1  0  0  0  0
 21 22  1  0  0  0  0
 21 27  1  0  0  0  0
 21 28  1  0  0  0  0
 22 23  1  0  0  0  0
 22 24  1  0  0  0  0
 22 29  1  0  0  0  0
 23 30  1  0  0  0  0
 23 31  1  0  0  0  0
 23 32  1  0  0  0  0
 24 33  1  0  0  0  0
 24 34  1  0  0  0  0
 24 35  1  0  0  0  0
 36 37  1  0  0  0  0
 36 41  1  0  0  0  0
 37 38  1  0  0  0  0
 37 40  1  0  0  0  0
 37 42  1  0  0  0  0
 38 39  2  0  0  0  0
 38 46  1  0  0  0  0
 40 43  1  0  0  0  0
 40 44  1  0  0  0  0
 40 45  1  0  0  0  0
 46 47  1  0  0  0  0
 46 48  1  0  0  0  0
 47 49  1  0  0  0  0
 47 50  1  0  0  0  0
 47 51  1  0  0  0  0
M  END
$$$$

  -OEChem-05262216553D

 51 50  0     1  0  0  0  0  0999 V2000
    0.4126   -2.7395   -2.7093 C   0  0  0  0  0  0  0  0  0  0  0  0
   -0.5513   -2.0267   -2.4791 O   0  0  0  0  0  0  0  0  0  0  0  0
    0.2194   -4.2331   -2.8891 C   0  0  0  0  0  0  0  0  0  0  0  0
    0.6701   -4.7707   -2.0508 H   0  0  0  0  0  0  0  0  0  0  0  0
   -0.8465   -4.4735   -2.9312 H   0  0  0  0  0  0  0  0  0  0  0  0
    0.6888   -4.5628   -3.8190 H   0  0  0  0  0  0  0  0  0  0  0  0
    1.6874   -2.2082   -2.7793 N   0  0  0  0  0  0  0  0  0  0  0  0
    2.0669   -0.7928   -2.5922 C   0  0  2  0  0  0  0  0  0  0  0  0
    1.8291   -0.2683   -1.1589 C   0  0  0  0  0  0  0  0  0  0  0  0
    2.7915    0.0010   -0.4514 O   0  0  0  0  0  0  0  0  0  0  0  0
    1.3959    0.1107   -3.6374 C   0  0  0  0  0  0  0  0  0  0  0  0
    2.4388   -2.8796   -2.9115 H   0  0  0  0  0  0  0  0  0  0  0  0
    3.1462   -0.7237   -2.7643 H   0  0  0  0  0  0  0  0  0  0  0  0
    0.3146    0.1688   -3.4828 H   0  0  0  0  0  0  0  0  0  0  0  0
    1.8031    1.1245   -3.5724 H   0  0  0  0  0  0  0  0  0  0  0  0
    1.5822   -0.2724   -4.6453 H   0  0  0  0  0  0  0  0  0  0  0  0
    0.5567   -0.1971   -0.6252 N   0  0  0  0  0  0  0  0  0  0  0  0
    0.2428    0.1510    0.7675 C   0  0  2  0  0  0  0  0  0  0  0  0
   -0.5032   -1.0387    1.4041 C   0  0  0  0  0  0  0  0  0  0  0  0
   -1.6680   -1.2791    1.1098 O   0  0  0  0  0  0  0  0  0  0  0  0
   -0.6372    1.4215    0.8927 C   0  0  0  0  0  0  0  0  0  0  0  0
   -0.0400    2.7852    0.4605 C   0  0  0  0  0  0  0  0  0  0  0  0
   -1.1557    3.8370    0.5461 C   0  0  0  0  0  0  0  0  0  0  0  0
    0.5279    2.8342   -0.9644 C   0  0  0  0  0  0  0  0  0  0  0  0
   -0.1871   -0.6094   -1.1998 H   0  0  0  0  0  0  0  0  0  0  0  0
    1.1588    0.3251    1.3401 H   0  0  0  0  0  0  0  0  0  0  0  0
   -0.9471    1.5129    1.9393 H   0  0  0  0  0  0  0  0  0  0  0  0
   -1.5450    1.2513    0.3030 H   0  0  0  0  0  0  0  0  0  0  0  0
    0.7595    3.0558    1.1583 H   0  0  0  0  0  0  0  0  0  0  0  0
   -1.9507    3.6200   -0.1750 H   0  0  0  0  0  0  0  0  0  0  0  0
   -0.7592    4.8354    0.3363 H   0  0  0  0  0  0  0  0  0  0  0  0
   -1.5922    3.8503    1.5498 H   0  0  0  0  0  0  0  0  0  0  0  0
   -0.1504    2.3445   -1.6700 H   0  0  0  0  0  0  0  0  0  0  0  0
    0.6723    3.8699   -1.2876 H   0  0  0  0  0  0  0  0  0  0  0  0
    1.5040    2.3486   -1.0030 H   0  0  0  0  0  0  0  0  0  0  0  0
    0.1713   -1.8581    2.2947 N   0  0  0  0  0  0  0  0  0  0  0  0
   -0.3401   -3.0891    2.9340 C   0  0  2  0  0  0  0  0  0  0  0  0
   -0.6521   -4.2547    1.9642 C   0  0  0  0  0  0  0  0  0  0  0  0
   -0.2474   -5.3794    2.2290 O   0  0  0  0  0  0  0  0  0  0  0  0
   -1.5535   -2.7856    3.8236 C   0  0  0  0  0  0  0  0  0  0  0  0
    1.1623   -1.6561    2.4030 H   0  0  0  0  0  0  0  0  0  0  0  0
    0.4534   -3.4539    3.5944 H   0  0  0  0  0  0  0  0  0  0  0  0
   -2.4280   -2.5160    3.2242 H   0  0  0  0  0  0  0  0  0  0  0  0
   -1.8092   -3.6669    4.4202 H   0  0  0  0  0  0  0  0  0  0  0  0
   -1.3291   -1.9595    4.5048 H   0  0  0  0  0  0  0  0  0  0  0  0
   -1.4003   -4.0657    0.8191 N   0  0  0  0  0  0  0  0  0  0  0  0
   -1.8840   -5.1472   -0.0259 C   0  0  0  0  0  0  0  0  0  0  0  0
   -1.7691   -3.1203    0.6772 H   0  0  0  0  0  0  0  0  0  0  0  0
   -2.4191   -4.7381   -0.8884 H   0  0  0  0  0  0  0  0  0  0  0  0
   -1.0488   -5.7534   -0.3908 H   0  0  0  0  0  0  0  0  0  0  0  0
   -2.5692   -5.7915    0.5343 H   0  0  0  0  0  0  0  0  0  0  0  0
  1  2  2  0  0  0  0
  1  3  1  0  0  0  0
  1  7  1  0  0  0  0
  3  4  1  0  0  0  0
  3  5  1  0  0  0  0
  3  6  1  0  0  0  0
  7  8  1  0  0  0  0
  7 12  1  0  0  0  0
  8  9  1  0  0  0  0
  8 11  1  0  0  0  0
  8 13  1  0  0  0  0
  9 10  2  0  0  0  0
  9 17  1  0  0  0  0
 11 14  1  0  0  0  0
 11 15  1  0  0  0  0
 11 16  1  0  0  0  0
 17 18  1  0  0  0  0
 17 25  1  0  0  0  0
 18 19  1  0  0  0  0
 18 21  1  0  0  0  0
 18 26  1  0  0  0  0
 19 20  2  0  0  0  0
 19 36  1  0  0  0  0
 21 22  1  0  0  0  0
 21 27  1  0  0  0  0
 21 28  1  0  0  0  0
 22 23  1  0  0  0  0
 22 24  1  0  0  0  0
 22 29  1  0  0  0  0
 23 30  1  0  0  0  0
 23 31  1  0  0  0  0
 23 32  1  0  0  0  0
 24 33  1  0  0  0  0
 24 34  1  0  0  0  0
 24 35  1  0  0  0  0
 36 37  1  0  0  0  0
 36 41  1  0  0  0  0
 37 38  1  0  0  0  0
 37 40  1  0  0  0  0
 37 42  1  0  0  0  0
 38 39  2  0  0  0  0
 38 46  1  0  0  0  0
 40 43  1  0  0  0  0
 40 44  1  0  0  0  0
 40 45  1  0  0  0  0
 46 47  1  0  0  0  0
 46 48  1  0  0  0  0
 47 49  1  0  0  0  0
 47 50  1  0  0  0  0
 47 51  1  0  0  0  0
M  END
$$$$

  -OEChem-05262216553D

 51 50  0     1  0  0  0  0  0999 V2000
    0.3105   -2.6633   -2.7725 C   0  0  0  0  0  0  0  0  0  0  0  0
   -0.6079   -1.8808   -2.5901 O   0  0  0  0  0  0  0  0  0  0  0  0
    0.0160   -4.1423   -2.9378 C   0  0  0  0  0  0  0  0  0  0  0  0
    0.4466   -4.7039   -2.1051 H   0  0  0  0  0  0  0  0  0  0  0  0
   -1.0644   -4.3119   -2.9560 H   0  0  0  0  0  0  0  0  0  0  0  0
    0.4440   -4.5071   -3.8746 H   0  0  0  0  0  0  0  0  0  0  0  0
    1.6222   -2.2258   -2.7871 N   0  0  0  0  0  0  0  0  0  0  0  0
    2.0945   -0.8408   -2.5793 C   0  0  2  0  0  0  0  0  0  0  0  0
    1.8543   -0.3045   -1.1504 C   0  0  0  0  0  0  0  0  0  0  0  0
    2.8158   -0.0138   -0.4500 O   0  0  0  0  0  0  0  0  0  0  0  0
    1.5186    0.1166   -3.6335 C   0  0  0  0  0  0  0  0  0  0  0  0
    2.3285   -2.9507   -2.8809 H   0  0  0  0  0  0  0  0  0  0  0  0
    3.1804   -0.8489   -2.7216 H   0  0  0  0  0  0  0  0  0  0  0  0
    0.4434    0.2633   -3.4958 H   0  0  0  0  0  0  0  0  0  0  0  0
    2.0059    1.0938   -3.5580 H   0  0  0  0  0  0  0  0  0  0  0  0
    1.6894   -0.2782   -4.6395 H   0  0  0  0  0  0  0  0  0  0  0  0
    0.5812   -0.2216   -0.6199 N   0  0  0  0  0  0  0  0  0  0  0  0
    0.2620    0.1522    0.7652 C   0  0  2  0  0  0  0  0  0  0  0  0
   -0.4891   -1.0162    1.4346 C   0  0  0  0  0  0  0  0  0  0  0  0
   -1.5469   -1.4205    0.9667 O   0  0  0  0  0  0  0  0  0  0  0  0
   -0.6272    1.4177    0.8621 C   0  0  0  0  0  0  0  0  0  0  0  0
   -0.0375    2.7761    0.4022 C   0  0  0  0  0  0  0  0  0  0  0  0
   -1.1580    3.8244    0.4619 C   0  0  0  0  0  0  0  0  0  0  0  0
    0.5338    2.7957   -1.0218 C   0  0  0  0  0  0  0  0  0  0  0  0
   -0.1689   -0.6185   -1.1975 H   0  0  0  0  0  0  0  0  0  0  0  0
    1.1781    0.3420    1.3324 H   0  0  0  0  0  0  0  0  0  0  0  0
   -0.9384    1.5305    1.9063 H   0  0  0  0  0  0  0  0  0  0  0  0
   -1.5331    1.2272    0.2755 H   0  0  0  0  0  0  0  0  0  0  0  0
    0.7590    3.0664    1.0956 H   0  0  0  0  0  0  0  0  0  0  0  0
   -1.9509    3.5864   -0.2546 H   0  0  0  0  0  0  0  0  0  0  0  0
   -0.7659    4.8192    0.2279 H   0  0  0  0  0  0  0  0  0  0  0  0
   -1.5954    3.8601    1.4645 H   0  0  0  0  0  0  0  0  0  0  0  0
   -0.1388    2.2841   -1.7172 H   0  0  0  0  0  0  0  0  0  0  0  0
    0.6711    3.8244   -1.3691 H   0  0  0  0  0  0  0  0  0  0  0  0
    1.5135    2.3161   -1.0459 H   0  0  0  0  0  0  0  0  0  0  0  0
    0.0475   -1.6217    2.5597 N   0  0  0  0  0  0  0  0  0  0  0  0
   -0.4964   -2.7888    3.2862 C   0  0  2  0  0  0  0  0  0  0  0  0
   -0.5217   -4.1111    2.4814 C   0  0  0  0  0  0  0  0  0  0  0  0
   -0.0532   -5.1265    2.9795 O   0  0  0  0  0  0  0  0  0  0  0  0
   -1.8835   -2.4807    3.8674 C   0  0  0  0  0  0  0  0  0  0  0  0
    0.9731   -1.2986    2.8294 H   0  0  0  0  0  0  0  0  0  0  0  0
    0.1696   -2.9687    4.1366 H   0  0  0  0  0  0  0  0  0  0  0  0
   -2.6354   -2.3917    3.0778 H   0  0  0  0  0  0  0  0  0  0  0  0
   -2.1931   -3.2855    4.5416 H   0  0  0  0  0  0  0  0  0  0  0  0
   -1.8596   -1.5447    4.4333 H   0  0  0  0  0  0  0  0  0  0  0  0
   -1.0861   -4.1821    1.2230 N   0  0  0  0  0  0  0  0  0  0  0  0
   -1.2632   -5.4177    0.4745 C   0  0  0  0  0  0  0  0  0  0  0  0
   -1.4994   -3.3145    0.8673 H   0  0  0  0  0  0  0  0  0  0  0  0
   -1.7817   -5.2151   -0.4675 H   0  0  0  0  0  0  0  0  0  0  0  0
   -0.2927   -5.8704    0.2471 H   0  0  0  0  0  0  0  0  0  0  0  0
   -1.8607   -6.1316    1.0509 H   0  0  0  0  0  0  0  0  0  0  0  0
  1  2  2  0  0  0  0
  1  3  1  0  0  0  0
  1  7  1  0  0  0  0
  3  4  1  0  0  0  0
  3  5  1  0  0  0  0
  3  6  1  0  0  0  0
  7  8  1  0  0  0  0
  7 12  1  0  0  0  0
  8  9  1  0  0  0  0
  8 11  1  0  0  0  0
  8 13  1  0  0  0  0
  9 10  2  0  0  0  0
  9 17  1  0  0  0  0
 11 14  1  0  0  0  0
 11 15  1  0  0  0  0
 11 16  1  0  0  0  0
 17 18  1  0  0  0  0
 17 25  1  0  0  0  0
 18 19  1  0  0  0  0
 18 21  1  0  0  0  0
 18 26  1  0  0  0  0
 19 20  2  0  0  0  0
 19 36  1  0  0  0  0
 21 22  1  0  0  0  0
 21 27  1  0  0  0  0
 21 28  1  0  0  0  0
 22 23  1  0  0  0  0
 22 24  1  0  0  0  0
 22 29  1  0  0  0  0
 23 30  1  0  0  0  0
 23 31  1  0  0  0  0
 23 32  1  0  0  0  0
 24 33  1  0  0  0  0
 24 34  1  0  0  0  0
 24 35  1  0  0  0  0
 36 37  1  0  0  0  0
 36 41  1  0  0  0  0
 37 38  1  0  0  0  0
 37 40  1  0  0  0  0
 37 42  1  0  0  0  0
 38 39  2  0  0  0  0
 38 46  1  0  0  0  0
 40 43  1  0  0  0  0
 40 44  1  0  0  0  0
 40 45  1  0  0  0  0
 46 47  1  0  0  0  0
 46 48  1  0  0  0  0
 47 49  1  0  0  0  0
 47 50  1  0  0  0  0
 47 51  1  0  0  0  0
M  END
$$$$

  -OEChem-05262216553D

 51 50  0     1  0  0  0  0  0999 V2000
    0.1264   -2.4449   -2.9345 C   0  0  0  0  0  0  0  0  0  0  0  0
   -0.6678   -1.5265   -2.8151 O   0  0  0  0  0  0  0  0  0  0  0  0
   -0.3848   -3.8554   -3.1571 C   0  0  0  0  0  0  0  0  0  0  0  0
   -0.0961   -4.4932   -2.3180 H   0  0  0  0  0  0  0  0  0  0  0  0
   -1.4757   -3.8532   -3.2370 H   0  0  0  0  0  0  0  0  0  0  0  0
    0.0340   -4.2643   -4.0799 H   0  0  0  0  0  0  0  0  0  0  0  0
    1.4870   -2.2252   -2.8194 N   0  0  0  0  0  0  0  0  0  0  0  0
    2.1583   -0.9358   -2.5476 C   0  0  2  0  0  0  0  0  0  0  0  0
    1.9031   -0.3706   -1.1315 C   0  0  0  0  0  0  0  0  0  0  0  0
    2.8561   -0.0476   -0.4338 O   0  0  0  0  0  0  0  0  0  0  0  0
    1.8275    0.1092   -3.6230 C   0  0  0  0  0  0  0  0  0  0  0  0
    2.0738   -3.0525   -2.8799 H   0  0  0  0  0  0  0  0  0  0  0  0
    3.2358   -1.1205   -2.6088 H   0  0  0  0  0  0  0  0  0  0  0  0
    0.7848    0.4329   -3.5578 H   0  0  0  0  0  0  0  0  0  0  0  0
    2.4642    0.9904   -3.4964 H   0  0  0  0  0  0  0  0  0  0  0  0
    2.0021   -0.3033   -4.6211 H   0  0  0  0  0  0  0  0  0  0  0  0
    0.6266   -0.2896   -0.6100 N   0  0  0  0  0  0  0  0  0  0  0  0
    0.2823    0.1212    0.7587 C   0  0  2  0  0  0  0  0  0  0  0  0
   -0.4603   -1.0277    1.4720 C   0  0  0  0  0  0  0  0  0  0  0  0
   -1.3467   -1.6446    0.8917 O   0  0  0  0  0  0  0  0  0  0  0  0
   -0.6374    1.3664    0.8011 C   0  0  0  0  0  0  0  0  0  0  0  0
   -0.0733    2.7211    0.3018 C   0  0  0  0  0  0  0  0  0  0  0  0
   -1.2184    3.7437    0.3114 C   0  0  0  0  0  0  0  0  0  0  0  0
    0.5148    2.7069   -1.1154 C   0  0  0  0  0  0  0  0  0  0  0  0
   -0.1276   -0.6342   -1.2141 H   0  0  0  0  0  0  0  0  0  0  0  0
    1.1906    0.3473    1.3252 H   0  0  0  0  0  0  0  0  0  0  0  0
   -0.9655    1.5090    1.8364 H   0  0  0  0  0  0  0  0  0  0  0  0
   -1.5306    1.1321    0.2104 H   0  0  0  0  0  0  0  0  0  0  0  0
    0.7074    3.0535    0.9942 H   0  0  0  0  0  0  0  0  0  0  0  0
   -1.9980    3.4589   -0.4026 H   0  0  0  0  0  0  0  0  0  0  0  0
   -0.8474    4.7378    0.0425 H   0  0  0  0  0  0  0  0  0  0  0  0
   -1.6664    3.8074    1.3080 H   0  0  0  0  0  0  0  0  0  0  0  0
   -0.1399    2.1604   -1.8014 H   0  0  0  0  0  0  0  0  0  0  0  0
    0.6360    3.7267   -1.4940 H   0  0  0  0  0  0  0  0  0  0  0  0
    1.5040    2.2462   -1.1136 H   0  0  0  0  0  0  0  0  0  0  0  0
   -0.1133   -1.3688    2.7699 N   0  0  0  0  0  0  0  0  0  0  0  0
   -0.7093   -2.4353    3.6028 C   0  0  2  0  0  0  0  0  0  0  0  0
   -0.4719   -3.8768    3.0927 C   0  0  0  0  0  0  0  0  0  0  0  0
   -0.0098   -4.7159    3.8547 O   0  0  0  0  0  0  0  0  0  0  0  0
   -2.2047   -2.1803    3.8370 C   0  0  0  0  0  0  0  0  0  0  0  0
    0.6861   -0.8727    3.1549 H   0  0  0  0  0  0  0  0  0  0  0  0
   -0.2219   -2.3807    4.5818 H   0  0  0  0  0  0  0  0  0  0  0  0
   -2.7800   -2.3143    2.9163 H   0  0  0  0  0  0  0  0  0  0  0  0
   -2.5906   -2.8808    4.5841 H   0  0  0  0  0  0  0  0  0  0  0  0
   -2.3644   -1.1619    4.2032 H   0  0  0  0  0  0  0  0  0  0  0  0
   -0.7828   -4.2439    1.7987 N   0  0  0  0  0  0  0  0  0  0  0  0
   -0.6053   -5.5845    1.2603 C   0  0  0  0  0  0  0  0  0  0  0  0
   -1.1624   -3.5036    1.2014 H   0  0  0  0  0  0  0  0  0  0  0  0
   -1.1734   -6.3122    1.8492 H   0  0  0  0  0  0  0  0  0  0  0  0
   -0.9602   -5.6242    0.2262 H   0  0  0  0  0  0  0  0  0  0  0  0
    0.4526   -5.8659    1.2758 H   0  0  0  0  0  0  0  0  0  0  0  0
  1  2  2  0  0  0  0
  1  3  1  0  0  0  0
  1  7  1  0  0  0  0
  3  4  1  0  0  0  0
  3  5  1  0  0  0  0
  3  6  1  0  0  0  0
  7  8  1  0  0  0  0
  7 12  1  0  0  0  0
  8  9  1  0  0  0  0
  8 11  1  0  0  0  0
  8 13  1  0  0  0  0
  9 10  2  0  0  0  0
  9 17  1  0  0  0  0
 11 14  1  0  0  0  0
 11 15  1  0  0  0  0
 11 16  1  0  0  0  0
 17 18  1  0  0  0  0
 17 25  1  0  0  0  0
 18 19  1  0  0  0  0
 18 21  1  0  0  0  0
 18 26  1  0  0  0  0
 19 20  2  0  0  0  0
 19 36  1  0  0  0  0
 21 22  1  0  0  0  0
 21 27  1  0  0  0  0
 21 28  1  0  0  0  0
 22 23  1  0  0  0  0
 22 24  1  0  0  0  0
 22 29  1  0  0  0  0
 23 30  1  0  0  0  0
 23 31  1  0  0  0  0
 23 32  1  0  0  0  0
 24 33  1  0  0  0  0
 24 34  1  0  0  0  0
 24 35  1  0  0  0  0
 36 37  1  0  0  0  0
 36 41  1  0  0  0  0
 37 38  1  0  0  0  0
 37 40  1  0  0  0  0
 37 42  1  0  0  0  0
 38 39  2  0  0  0  0
 38 46  1  0  0  0  0
 40 43  1  0  0  0  0
 40 44  1  0  0  0  0
 40 45  1  0  0  0  0
 46 47  1  0  0  0  0
 46 48  1  0  0  0  0
 47 49  1  0  0  0  0
 47 50  1  0  0  0  0
 47 51  1  0  0  0  0
M  END
$$$$

  -OEChem-05262216553D

 51 50  0     1  0  0  0  0  0999 V2000
    1.2042   -3.2735   -2.1283 C   0  0  0  0  0  0  0  0  0  0  0  0
    0.1493   -3.0311   -1.5645 O   0  0  0  0  0  0  0  0  0  0  0  0
    1.8167   -4.6569   -2.0161 C   0  0  0  0  0  0  0  0  0  0  0  0
    2.7673   -4.6000   -1.4800 H   0  0  0  0  0  0  0  0  0  0  0  0
    1.1449   -5.3247   -1.4702 H   0  0  0  0  0  0  0  0  0  0  0  0
    1.9913   -5.0718   -3.0118 H   0  0  0  0  0  0  0  0  0  0  0  0
    1.8686   -2.2930   -2.8413 N   0  0  0  0  0  0  0  0  0  0  0  0
    1.4881   -0.8692   -2.8649 C   0  0  2  0  0  0  0  0  0  0  0  0
    1.4742   -0.2435   -1.4509 C   0  0  0  0  0  0  0  0  0  0  0  0
    2.5438   -0.0542   -0.8835 O   0  0  0  0  0  0  0  0  0  0  0  0
    0.1701   -0.6711   -3.6327 C   0  0  0  0  0  0  0  0  0  0  0  0
    2.8055   -2.5331   -3.1525 H   0  0  0  0  0  0  0  0  0  0  0  0
    2.2609   -0.3282   -3.4200 H   0  0  0  0  0  0  0  0  0  0  0  0
   -0.6670   -1.1649   -3.1307 H   0  0  0  0  0  0  0  0  0  0  0  0
   -0.0605    0.3955   -3.7169 H   0  0  0  0  0  0  0  0  0  0  0  0
    0.2568   -1.0859   -4.6414 H   0  0  0  0  0  0  0  0  0  0  0  0
    0.2879    0.0305   -0.7930 N   0  0  0  0  0  0  0  0  0  0  0  0
    0.2021    0.3084    0.6495 C   0  0  2  0  0  0  0  0  0  0  0  0
   -0.7064   -0.7534    1.3040 C   0  0  0  0  0  0  0  0  0  0  0  0
   -1.6472   -1.2192    0.6711 O   0  0  0  0  0  0  0  0  0  0  0  0
   -0.4118    1.6949    0.9668 C   0  0  0  0  0  0  0  0  0  0  0  0
    0.3687    2.9676    0.5505 C   0  0  0  0  0  0  0  0  0  0  0  0
   -0.5199    4.1847    0.8455 C   0  0  0  0  0  0  0  0  0  0  0  0
    0.7594    3.0404   -0.9317 C   0  0  0  0  0  0  0  0  0  0  0  0
   -0.5264   -0.4414   -1.1906 H   0  0  0  0  0  0  0  0  0  0  0  0
    1.1900    0.2470    1.1163 H   0  0  0  0  0  0  0  0  0  0  0  0
   -0.5763    1.7525    2.0482 H   0  0  0  0  0  0  0  0  0  0  0  0
   -1.3977    1.7300    0.4897 H   0  0  0  0  0  0  0  0  0  0  0  0
    1.2817    3.0352    1.1518 H   0  0  0  0  0  0  0  0  0  0  0  0
   -1.4217    4.1666    0.2248 H   0  0  0  0  0  0  0  0  0  0  0  0
    0.0220    5.1139    0.6433 H   0  0  0  0  0  0  0  0  0  0  0  0
   -0.8220    4.1914    1.8973 H   0  0  0  0  0  0  0  0  0  0  0  0
   -0.0754    2.7330   -1.5692 H   0  0  0  0  0  0  0  0  0  0  0  0
    1.0455    4.0606   -1.2058 H   0  0  0  0  0  0  0  0  0  0  0  0
    1.6210    2.4024   -1.1318 H   0  0  0  0  0  0  0  0  0  0  0  0
   -0.4967   -1.1363    2.6189 N   0  0  0  0  0  0  0  0  0  0  0  0
   -1.2452   -2.1682    3.3678 C   0  0  2  0  0  0  0  0  0  0  0  0
   -1.0742   -3.6119    2.8366 C   0  0  0  0  0  0  0  0  0  0  0  0
   -0.8584   -4.5162    3.6336 O   0  0  0  0  0  0  0  0  0  0  0  0
   -2.7322   -1.8068    3.4894 C   0  0  0  0  0  0  0  0  0  0  0  0
    0.3385   -0.7597    3.0583 H   0  0  0  0  0  0  0  0  0  0  0  0
   -0.8391   -2.1730    4.3845 H   0  0  0  0  0  0  0  0  0  0  0  0
   -3.2479   -1.9172    2.5311 H   0  0  0  0  0  0  0  0  0  0  0  0
   -3.2183   -2.4685    4.2133 H   0  0  0  0  0  0  0  0  0  0  0  0
   -2.8476   -0.7740    3.8311 H   0  0  0  0  0  0  0  0  0  0  0  0
   -1.1532   -3.9082    1.4900 N   0  0  0  0  0  0  0  0  0  0  0  0
   -0.9935   -5.2428    0.9337 C   0  0  0  0  0  0  0  0  0  0  0  0
   -1.3416   -3.1256    0.8558 H   0  0  0  0  0  0  0  0  0  0  0  0
   -1.7362   -5.9262    1.3577 H   0  0  0  0  0  0  0  0  0  0  0  0
   -1.1297   -5.2143   -0.1516 H   0  0  0  0  0  0  0  0  0  0  0  0
    0.0080   -5.6291    1.1482 H   0  0  0  0  0  0  0  0  0  0  0  0
  1  2  2  0  0  0  0
  1  3  1  0  0  0  0
  1  7  1  0  0  0  0
  3  4  1  0  0  0  0
  3  5  1  0  0  0  0
  3  6  1  0  0  0  0
  7  8  1  0  0  0  0
  7 12  1  0  0  0  0
  8  9  1  0  0  0  0
  8 11  1  0  0  0  0
  8 13  1  0  0  0  0
  9 10  2  0  0  0  0
  9 17  1  0  0  0  0
 11 14  1  0  0  0  0
 11 15  1  0  0  0  0
 11 16  1  0  0  0  0
 17 18  1  0  0  0  0
 17 25  1  0  0  0  0
 18 19  1  0  0  0  0
 18 21  1  0  0  0  0
 18 26  1  0  0  0  0
 19 20  2  0  0  0  0
 19 36  1  0  0  0  0
 21 22  1  0  0  0  0
 21 27  1  0  0  0  0
 21 28  1  0  0  0  0
 22 23  1  0  0  0  0
 22 24  1  0  0  0  0
 22 29  1  0  0  0  0
 23 30  1  0  0  0  0
 23 31  1  0  0  0  0
 23 32  1  0  0  0  0
 24 33  1  0  0  0  0
 24 34  1  0  0  0  0
 24 35  1  0  0  0  0
 36 37  1  0  0  0  0
 36 41  1  0  0  0  0
 37 38  1  0  0  0  0
 37 40  1  0  0  0  0
 37 42  1  0  0  0  0
 38 39  2  0  0  0  0
 38 46  1  0  0  0  0
 40 43  1  0  0  0  0
 40 44  1  0  0  0  0
 40 45  1  0  0  0  0
 46 47  1  0  0  0  0
 46 48  1  0  0  0  0
 47 49  1  0  0  0  0
 47 50  1  0  0  0  0
 47 51  1  0  0  0  0
M  END
$$$$

  -OEChem-05262216553D

 51 50  0     1  0  0  0  0  0999 V2000
    1.3190   -3.3026   -1.9775 C   0  0  0  0  0  0  0  0  0  0  0  0
    0.2858   -3.1071   -1.3587 O   0  0  0  0  0  0  0  0  0  0  0  0
    2.0398   -4.6287   -1.8264 C   0  0  0  0  0  0  0  0  0  0  0  0
    3.0432   -4.4643   -1.4261 H   0  0  0  0  0  0  0  0  0  0  0  0
    1.4909   -5.2799   -1.1404 H   0  0  0  0  0  0  0  0  0  0  0  0
    2.1169   -5.1250   -2.7967 H   0  0  0  0  0  0  0  0  0  0  0  0
    1.8572   -2.3232   -2.7923 N   0  0  0  0  0  0  0  0  0  0  0  0
    1.3668   -0.9344   -2.8644 C   0  0  2  0  0  0  0  0  0  0  0  0
    1.3921   -0.2343   -1.4849 C   0  0  0  0  0  0  0  0  0  0  0  0
    2.4755   -0.0581   -0.9389 O   0  0  0  0  0  0  0  0  0  0  0  0
   -0.0067   -0.8835   -3.5551 C   0  0  0  0  0  0  0  0  0  0  0  0
    2.7931   -2.5078   -3.1414 H   0  0  0  0  0  0  0  0  0  0  0  0
    2.0592   -0.3687   -3.4956 H   0  0  0  0  0  0  0  0  0  0  0  0
   -0.7705   -1.4034   -2.9690 H   0  0  0  0  0  0  0  0  0  0  0  0
   -0.3233    0.1554   -3.6899 H   0  0  0  0  0  0  0  0  0  0  0  0
    0.0496   -1.3568   -4.5400 H   0  0  0  0  0  0  0  0  0  0  0  0
    0.2231    0.1078   -0.8267 N   0  0  0  0  0  0  0  0  0  0  0  0
    0.1678    0.3611    0.6219 C   0  0  2  0  0  0  0  0  0  0  0  0
   -0.8112   -0.6536    1.2554 C   0  0  0  0  0  0  0  0  0  0  0  0
   -1.6432   -1.2165    0.5520 O   0  0  0  0  0  0  0  0  0  0  0  0
   -0.3571    1.7799    0.9646 C   0  0  0  0  0  0  0  0  0  0  0  0
    0.4945    3.0111    0.5620 C   0  0  0  0  0  0  0  0  0  0  0  0
   -0.3189    4.2735    0.8846 C   0  0  0  0  0  0  0  0  0  0  0  0
    0.8700    3.0879   -0.9243 C   0  0  0  0  0  0  0  0  0  0  0  0
   -0.6066   -0.3527   -1.2044 H   0  0  0  0  0  0  0  0  0  0  0  0
    1.1498    0.2220    1.0845 H   0  0  0  0  0  0  0  0  0  0  0  0
   -0.5104    1.8350    2.0474 H   0  0  0  0  0  0  0  0  0  0  0  0
   -1.3423    1.8821    0.4959 H   0  0  0  0  0  0  0  0  0  0  0  0
    1.4162    3.0149    1.1536 H   0  0  0  0  0  0  0  0  0  0  0  0
   -1.2272    4.3174    0.2749 H   0  0  0  0  0  0  0  0  0  0  0  0
    0.2740    5.1728    0.6895 H   0  0  0  0  0  0  0  0  0  0  0  0
   -0.6084    4.2825    1.9402 H   0  0  0  0  0  0  0  0  0  0  0  0
    0.0108    2.8408   -1.5555 H   0  0  0  0  0  0  0  0  0  0  0  0
    1.2118    4.0943   -1.1854 H   0  0  0  0  0  0  0  0  0  0  0  0
    1.6899    2.4052   -1.1483 H   0  0  0  0  0  0  0  0  0  0  0  0
   -0.8235   -0.8557    2.6263 N   0  0  0  0  0  0  0  0  0  0  0  0
   -1.6234   -1.8627    3.3565 C   0  0  2  0  0  0  0  0  0  0  0  0
   -1.2732   -3.3326    3.0179 C   0  0  0  0  0  0  0  0  0  0  0  0
   -1.0458   -4.1142    3.9329 O   0  0  0  0  0  0  0  0  0  0  0  0
   -3.1298   -1.6078    3.2058 C   0  0  0  0  0  0  0  0  0  0  0  0
   -0.0753   -0.4008    3.1416 H   0  0  0  0  0  0  0  0  0  0  0  0
   -1.3908   -1.7363    4.4187 H   0  0  0  0  0  0  0  0  0  0  0  0
   -3.4751   -1.8419    2.1947 H   0  0  0  0  0  0  0  0  0  0  0  0
   -3.6862   -2.2370    3.9074 H   0  0  0  0  0  0  0  0  0  0  0  0
   -3.3620   -0.5605    3.4207 H   0  0  0  0  0  0  0  0  0  0  0  0
   -1.1812   -3.7789    1.7138 N   0  0  0  0  0  0  0  0  0  0  0  0
   -0.7723   -5.1227    1.3335 C   0  0  0  0  0  0  0  0  0  0  0  0
   -1.3350   -3.0826    0.9774 H   0  0  0  0  0  0  0  0  0  0  0  0
   -1.4119   -5.8708    1.8130 H   0  0  0  0  0  0  0  0  0  0  0  0
   -0.8525   -5.2444    0.2490 H   0  0  0  0  0  0  0  0  0  0  0  0
    0.2663   -5.3037    1.6281 H   0  0  0  0  0  0  0  0  0  0  0  0
  1  2  2  0  0  0  0
  1  3  1  0  0  0  0
  1  7  1  0  0  0  0
  3  4  1  0  0  0  0
  3  5  1  0  0  0  0
  3  6  1  0  0  0  0
  7  8  1  0  0  0  0
  7 12  1  0  0  0  0
  8  9  1  0  0  0  0
  8 11  1  0  0  0  0
  8 13  1  0  0  0  0
  9 10  2  0  0  0  0
  9 17  1  0  0  0  0
 11 14  1  0  0  0  0
 11 15  1  0  0  0  0
 11 16  1  0  0  0  0
 17 18  1  0  0  0  0
 17 25  1  0  0  0  0
 18 19  1  0  0  0  0
 18 21  1  0  0  0  0
 18 26  1  0  0  0  0
 19 20  2  0  0  0  0
 19 36  1  0  0  0  0
 21 22  1  0  0  0  0
 21 27  1  0  0  0  0
 21 28  1  0  0  0  0
 22 23  1  0  0  0  0
 22 24  1  0  0  0  0
 22 29  1  0  0  0  0
 23 30  1  0  0  0  0
 23 31  1  0  0  0  0
 23 32  1  0  0  0  0
 24 33  1  0  0  0  0
 24 34  1  0  0  0  0
 24 35  1  0  0  0  0
 36 37  1  0  0  0  0
 36 41  1  0  0  0  0
 37 38  1  0  0  0  0
 37 40  1  0  0  0  0
 37 42  1  0  0  0  0
 38 39  2  0  0  0  0
 38 46  1  0  0  0  0
 40 43  1  0  0  0  0
 40 44  1  0  0  0  0
 40 45  1  0  0  0  0
 46 47  1  0  0  0  0
 46 48  1  0  0  0  0
 47 49  1  0  0  0  0
 47 50  1  0  0  0  0
 47 51  1  0  0  0  0
M  END
$$$$

  -OEChem-05262216553D

 51 50  0     1  0  0  0  0  0999 V2000
    1.9435   -3.2667   -1.8507 C   0  0  0  0  0  0  0  0  0  0  0  0
    1.0247   -3.3399   -1.0511 O   0  0  0  0  0  0  0  0  0  0  0  0
    3.0817   -4.2662   -1.7669 C   0  0  0  0  0  0  0  0  0  0  0  0
    4.0131   -3.7498   -1.5222 H   0  0  0  0  0  0  0  0  0  0  0  0
    2.8763   -5.0069   -0.9889 H   0  0  0  0  0  0  0  0  0  0  0  0
    3.1974   -4.7830   -2.7226 H   0  0  0  0  0  0  0  0  0  0  0  0
    1.9799   -2.2766   -2.8165 N   0  0  0  0  0  0  0  0  0  0  0  0
    1.0713   -1.1150   -2.8488 C   0  0  2  0  0  0  0  0  0  0  0  0
    1.1388   -0.2794   -1.5465 C   0  0  0  0  0  0  0  0  0  0  0  0
    2.2374    0.0139   -1.0864 O   0  0  0  0  0  0  0  0  0  0  0  0
   -0.3535   -1.5626   -3.2188 C   0  0  0  0  0  0  0  0  0  0  0  0
    2.8605   -2.1914   -3.3150 H   0  0  0  0  0  0  0  0  0  0  0  0
    1.4125   -0.4491   -3.6469 H   0  0  0  0  0  0  0  0  0  0  0  0
   -0.8056   -2.1549   -2.4170 H   0  0  0  0  0  0  0  0  0  0  0  0
   -0.9894   -0.6920   -3.4054 H   0  0  0  0  0  0  0  0  0  0  0  0
   -0.3326   -2.1723   -4.1270 H   0  0  0  0  0  0  0  0  0  0  0  0
   -0.0097    0.1347   -0.8923 N   0  0  0  0  0  0  0  0  0  0  0  0
   -0.0141    0.3520    0.5642 C   0  0  2  0  0  0  0  0  0  0  0  0
   -0.7541   -0.8259    1.2438 C   0  0  0  0  0  0  0  0  0  0  0  0
   -1.3433   -1.6489    0.5518 O   0  0  0  0  0  0  0  0  0  0  0  0
   -0.7092    1.6859    0.9383 C   0  0  0  0  0  0  0  0  0  0  0  0
   -0.0312    3.0073    0.4911 C   0  0  0  0  0  0  0  0  0  0  0  0
   -0.9705    4.1696    0.8429 C   0  0  0  0  0  0  0  0  0  0  0  0
    0.2891    3.1118   -1.0067 C   0  0  0  0  0  0  0  0  0  0  0  0
   -0.8437   -0.3411   -1.2343 H   0  0  0  0  0  0  0  0  0  0  0  0
    1.0045    0.3739    0.9647 H   0  0  0  0  0  0  0  0  0  0  0  0
   -0.8149    1.7310    2.0268 H   0  0  0  0  0  0  0  0  0  0  0  0
   -1.7201    1.6580    0.5167 H   0  0  0  0  0  0  0  0  0  0  0  0
    0.9047    3.1243    1.0479 H   0  0  0  0  0  0  0  0  0  0  0  0
   -1.9012    4.1035    0.2703 H   0  0  0  0  0  0  0  0  0  0  0  0
   -0.4930    5.1289    0.6197 H   0  0  0  0  0  0  0  0  0  0  0  0
   -1.2164    4.1539    1.9092 H   0  0  0  0  0  0  0  0  0  0  0  0
   -0.5711    2.8059   -1.6101 H   0  0  0  0  0  0  0  0  0  0  0  0
    0.5499    4.1407   -1.2733 H   0  0  0  0  0  0  0  0  0  0  0  0
    1.1471    2.4858   -1.2603 H   0  0  0  0  0  0  0  0  0  0  0  0
   -0.8994   -0.8761    2.6213 N   0  0  0  0  0  0  0  0  0  0  0  0
   -1.5162   -1.9739    3.3980 C   0  0  2  0  0  0  0  0  0  0  0  0
   -0.7770   -3.3306    3.2980 C   0  0  0  0  0  0  0  0  0  0  0  0
   -0.5057   -3.9330    4.3291 O   0  0  0  0  0  0  0  0  0  0  0  0
   -3.0066   -2.1390    3.0683 C   0  0  0  0  0  0  0  0  0  0  0  0
   -0.3554   -0.1942    3.1420 H   0  0  0  0  0  0  0  0  0  0  0  0
   -1.4610   -1.6796    4.4511 H   0  0  0  0  0  0  0  0  0  0  0  0
   -3.1500   -2.5674    2.0722 H   0  0  0  0  0  0  0  0  0  0  0  0
   -3.4769   -2.8094    3.7945 H   0  0  0  0  0  0  0  0  0  0  0  0
   -3.5151   -1.1714    3.1097 H   0  0  0  0  0  0  0  0  0  0  0  0
   -0.3951   -3.8679    2.0838 N   0  0  0  0  0  0  0  0  0  0  0  0
    0.3606   -5.1027    1.9361 C   0  0  0  0  0  0  0  0  0  0  0  0
   -0.6139   -3.3208    1.2450 H   0  0  0  0  0  0  0  0  0  0  0  0
   -0.1486   -5.9284    2.4438 H   0  0  0  0  0  0  0  0  0  0  0  0
    0.4583   -5.3572    0.8763 H   0  0  0  0  0  0  0  0  0  0  0  0
    1.3634   -4.9896    2.3599 H   0  0  0  0  0  0  0  0  0  0  0  0
  1  2  2  0  0  0  0
  1  3  1  0  0  0  0
  1  7  1  0  0  0  0
  3  4  1  0  0  0  0
  3  5  1  0  0  0  0
  3  6  1  0  0  0  0
  7  8  1  0  0  0  0
  7 12  1  0  0  0  0
  8  9  1  0  0  0  0
  8 11  1  0  0  0  0
  8 13  1  0  0  0  0
  9 10  2  0  0  0  0
  9 17  1  0  0  0  0
 11 14  1  0  0  0  0
 11 15  1  0  0  0  0
 11 16  1  0  0  0  0
 17 18  1  0  0  0  0
 17 25  1  0  0  0  0
 18 19  1  0  0  0  0
 18 21  1  0  0  0  0
 18 26  1  0  0  0  0
 19 20  2  0  0  0  0
 19 36  1  0  0  0  0
 21 22  1  0  0  0  0
 21 27  1  0  0  0  0
 21 28  1  0  0  0  0
 22 23  1  0  0  0  0
 22 24  1  0  0  0  0
 22 29  1  0  0  0  0
 23 30  1  0  0  0  0
 23 31  1  0  0  0  0
 23 32  1  0  0  0  0
 24 33  1  0  0  0  0
 24 34  1  0  0  0  0
 24 35  1  0  0  0  0
 36 37  1  0  0  0  0
 36 41  1  0  0  0  0
 37 38  1  0  0  0  0
 37 40  1  0  0  0  0
 37 42  1  0  0  0  0
 38 39  2  0  0  0  0
 38 46  1  0  0  0  0
 40 43  1  0  0  0  0
 40 44  1  0  0  0  0
 40 45  1  0  0  0  0
 46 47  1  0  0  0  0
 46 48  1  0  0  0  0
 47 49  1  0  0  0  0
 47 50  1  0  0  0  0
 47 51  1  0  0  0  0
M  END
$$$$

  -OEChem-05262216553D

 51 50  0     1  0  0  0  0  0999 V2000
    2.3254   -3.1991   -2.3728 C   0  0  0  0  0  0  0  0  0  0  0  0
    1.4595   -3.6177   -1.6225 O   0  0  0  0  0  0  0  0  0  0  0  0
    3.6294   -3.9629   -2.5033 C   0  0  0  0  0  0  0  0  0  0  0  0
    4.4637   -3.3281   -2.1952 H   0  0  0  0  0  0  0  0  0  0  0  0
    3.6105   -4.8520   -1.8668 H   0  0  0  0  0  0  0  0  0  0  0  0
    3.7781   -4.2748   -3.5397 H   0  0  0  0  0  0  0  0  0  0  0  0
    2.1527   -2.0352   -3.0997 N   0  0  0  0  0  0  0  0  0  0  0  0
    1.0697   -1.0603   -2.8674 C   0  0  2  0  0  0  0  0  0  0  0  0
    1.1433   -0.4086   -1.4646 C   0  0  0  0  0  0  0  0  0  0  0  0
    2.2401   -0.1694   -0.9699 O   0  0  0  0  0  0  0  0  0  0  0  0
   -0.3067   -1.6772   -3.1745 C   0  0  0  0  0  0  0  0  0  0  0  0
    2.9971   -1.6840   -3.5410 H   0  0  0  0  0  0  0  0  0  0  0  0
    1.2123   -0.2440   -3.5815 H   0  0  0  0  0  0  0  0  0  0  0  0
   -0.6126   -2.3771   -2.3903 H   0  0  0  0  0  0  0  0  0  0  0  0
   -1.0674   -0.8944   -3.2497 H   0  0  0  0  0  0  0  0  0  0  0  0
   -0.2751   -2.2165   -4.1261 H   0  0  0  0  0  0  0  0  0  0  0  0
   -0.0020    0.0292   -0.8194 N   0  0  0  0  0  0  0  0  0  0  0  0
   -0.0250    0.2920    0.6309 C   0  0  2  0  0  0  0  0  0  0  0  0
   -0.7767   -0.8553    1.3564 C   0  0  0  0  0  0  0  0  0  0  0  0
   -1.1506   -1.8317    0.7167 O   0  0  0  0  0  0  0  0  0  0  0  0
   -0.7026    1.6564    0.9310 C   0  0  0  0  0  0  0  0  0  0  0  0
    0.0090    2.9461    0.4437 C   0  0  0  0  0  0  0  0  0  0  0  0
   -0.9187    4.1367    0.7255 C   0  0  0  0  0  0  0  0  0  0  0  0
    0.3664    2.9854   -1.0489 C   0  0  0  0  0  0  0  0  0  0  0  0
   -0.8500   -0.3974   -1.1868 H   0  0  0  0  0  0  0  0  0  0  0  0
    0.9893    0.3202    1.0426 H   0  0  0  0  0  0  0  0  0  0  0  0
   -0.8257    1.7592    2.0131 H   0  0  0  0  0  0  0  0  0  0  0  0
   -1.7059    1.6275    0.4920 H   0  0  0  0  0  0  0  0  0  0  0  0
    0.9337    3.0718    1.0175 H   0  0  0  0  0  0  0  0  0  0  0  0
   -1.8392    4.0592    0.1377 H   0  0  0  0  0  0  0  0  0  0  0  0
   -0.4223    5.0783    0.4701 H   0  0  0  0  0  0  0  0  0  0  0  0
   -1.1854    4.1719    1.7863 H   0  0  0  0  0  0  0  0  0  0  0  0
   -0.4826    2.6654   -1.6608 H   0  0  0  0  0  0  0  0  0  0  0  0
    0.6462    3.9994   -1.3511 H   0  0  0  0  0  0  0  0  0  0  0  0
    1.2226    2.3400   -1.2554 H   0  0  0  0  0  0  0  0  0  0  0  0
   -1.2055   -0.7155    2.6686 N   0  0  0  0  0  0  0  0  0  0  0  0
   -2.0223   -1.6697    3.4504 C   0  0  2  0  0  0  0  0  0  0  0  0
   -1.3543   -3.0381    3.7300 C   0  0  0  0  0  0  0  0  0  0  0  0
   -1.3616   -3.4800    4.8717 O   0  0  0  0  0  0  0  0  0  0  0  0
   -3.4097   -1.8590    2.8216 C   0  0  0  0  0  0  0  0  0  0  0  0
   -0.8545    0.1010    3.1605 H   0  0  0  0  0  0  0  0  0  0  0  0
   -2.1823   -1.2122    4.4323 H   0  0  0  0  0  0  0  0  0  0  0  0
   -3.3479   -2.4124    1.8803 H   0  0  0  0  0  0  0  0  0  0  0  0
   -4.0548   -2.4217    3.5036 H   0  0  0  0  0  0  0  0  0  0  0  0
   -3.8748   -0.8884    2.6265 H   0  0  0  0  0  0  0  0  0  0  0  0
   -0.7565   -3.7741    2.7264 N   0  0  0  0  0  0  0  0  0  0  0  0
   -0.1258   -5.0714    2.9226 C   0  0  0  0  0  0  0  0  0  0  0  0
   -0.7949   -3.3746    1.7840 H   0  0  0  0  0  0  0  0  0  0  0  0
    0.3276   -5.4132    1.9870 H   0  0  0  0  0  0  0  0  0  0  0  0
    0.6592   -5.0055    3.6831 H   0  0  0  0  0  0  0  0  0  0  0  0
   -0.8658   -5.8125    3.2412 H   0  0  0  0  0  0  0  0  0  0  0  0
  1  2  2  0  0  0  0
  1  3  1  0  0  0  0
  1  7  1  0  0  0  0
  3  4  1  0  0  0  0
  3  5  1  0  0  0  0
  3  6  1  0  0  0  0
  7  8  1  0  0  0  0
  7 12  1  0  0  0  0
  8  9  1  0  0  0  0
  8 11  1  0  0  0  0
  8 13  1  0  0  0  0
  9 10  2  0  0  0  0
  9 17  1  0  0  0  0
 11 14  1  0  0  0  0
 11 15  1  0  0  0  0
 11 16  1  0  0  0  0
 17 18  1  0  0  0  0
 17 25  1  0  0  0  0
 18 19  1  0  0  0  0
 18 21  1  0  0  0  0
 18 26  1  0  0  0  0
 19 20  2  0  0  0  0
 19 36  1  0  0  0  0
 21 22  1  0  0  0  0
 21 27  1  0  0  0  0
 21 28  1  0  0  0  0
 22 23  1  0  0  0  0
 22 24  1  0  0  0  0
 22 29  1  0  0  0  0
 23 30  1  0  0  0  0
 23 31  1  0  0  0  0
 23 32  1  0  0  0  0
 24 33  1  0  0  0  0
 24 34  1  0  0  0  0
 24 35  1  0  0  0  0
 36 37  1  0  0  0  0
 36 41  1  0  0  0  0
 37 38  1  0  0  0  0
 37 40  1  0  0  0  0
 37 42  1  0  0  0  0
 38 39  2  0  0  0  0
 38 46  1  0  0  0  0
 40 43  1  0  0  0  0
 40 44  1  0  0  0  0
 40 45  1  0  0  0  0
 46 47  1  0  0  0  0
 46 48  1  0  0  0  0
 47 49  1  0  0  0  0
 47 50  1  0  0  0  0
 47 51  1  0  0  0  0
M  END
$$$$

  -OEChem-05262216553D

 51 50  0     1  0  0  0  0  0999 V2000
    2.4271   -3.1621   -2.4936 C   0  0  0  0  0  0  0  0  0  0  0  0
    1.5397   -3.7012   -1.8545 O   0  0  0  0  0  0  0  0  0  0  0  0
    3.7758   -3.8463   -2.6146 C   0  0  0  0  0  0  0  0  0  0  0  0
    4.5487   -3.2276   -2.1519 H   0  0  0  0  0  0  0  0  0  0  0  0
    3.7536   -4.8164   -2.1100 H   0  0  0  0  0  0  0  0  0  0  0  0
    4.0232   -4.0030   -3.6672 H   0  0  0  0  0  0  0  0  0  0  0  0
    2.2403   -1.9367   -3.1074 N   0  0  0  0  0  0  0  0  0  0  0  0
    1.1103   -1.0259   -2.8383 C   0  0  2  0  0  0  0  0  0  0  0  0
    1.1409   -0.4410   -1.4047 C   0  0  0  0  0  0  0  0  0  0  0  0
    2.2213   -0.2440   -0.8579 O   0  0  0  0  0  0  0  0  0  0  0  0
   -0.2406   -1.6743   -3.1909 C   0  0  0  0  0  0  0  0  0  0  0  0
    3.0963   -1.5064   -3.4438 H   0  0  0  0  0  0  0  0  0  0  0  0
    1.2263   -0.1703   -3.5098 H   0  0  0  0  0  0  0  0  0  0  0  0
   -0.5450   -2.3961   -2.4264 H   0  0  0  0  0  0  0  0  0  0  0  0
   -1.0207   -0.9114   -3.2696 H   0  0  0  0  0  0  0  0  0  0  0  0
   -0.1719   -2.1949   -4.1509 H   0  0  0  0  0  0  0  0  0  0  0  0
   -0.0184    0.0238   -0.8031 N   0  0  0  0  0  0  0  0  0  0  0  0
   -0.0966    0.2887    0.6459 C   0  0  2  0  0  0  0  0  0  0  0  0
   -0.9059   -0.8436    1.3361 C   0  0  0  0  0  0  0  0  0  0  0  0
   -1.0255   -1.9249    0.7744 O   0  0  0  0  0  0  0  0  0  0  0  0
   -0.7281    1.6812    0.9214 C   0  0  0  0  0  0  0  0  0  0  0  0
    0.0589    2.9399    0.4704 C   0  0  0  0  0  0  0  0  0  0  0  0
   -0.8279    4.1692    0.7160 C   0  0  0  0  0  0  0  0  0  0  0  0
    0.4769    2.9659   -1.0068 C   0  0  0  0  0  0  0  0  0  0  0  0
   -0.8642   -0.3545   -1.2223 H   0  0  0  0  0  0  0  0  0  0  0  0
    0.8998    0.2814    1.1003 H   0  0  0  0  0  0  0  0  0  0  0  0
   -0.8826    1.7896    1.9987 H   0  0  0  0  0  0  0  0  0  0  0  0
   -1.7146    1.6971    0.4449 H   0  0  0  0  0  0  0  0  0  0  0  0
    0.9636    3.0247    1.0823 H   0  0  0  0  0  0  0  0  0  0  0  0
   -1.7239    4.1341    0.0879 H   0  0  0  0  0  0  0  0  0  0  0  0
   -0.2799    5.0889    0.4877 H   0  0  0  0  0  0  0  0  0  0  0  0
   -1.1392    4.2128    1.7644 H   0  0  0  0  0  0  0  0  0  0  0  0
   -0.3586    2.6777   -1.6522 H   0  0  0  0  0  0  0  0  0  0  0  0
    0.8064    3.9684   -1.2968 H   0  0  0  0  0  0  0  0  0  0  0  0
    1.3159    2.2891   -1.1800 H   0  0  0  0  0  0  0  0  0  0  0  0
   -1.6506   -0.6139    2.4848 N   0  0  0  0  0  0  0  0  0  0  0  0
   -2.5472   -1.5653    3.1764 C   0  0  2  0  0  0  0  0  0  0  0  0
   -1.8420   -2.7997    3.7872 C   0  0  0  0  0  0  0  0  0  0  0  0
   -1.9886   -3.0417    4.9783 O   0  0  0  0  0  0  0  0  0  0  0  0
   -3.7146   -1.9906    2.2740 C   0  0  0  0  0  0  0  0  0  0  0  0
   -1.5065    0.2872    2.9299 H   0  0  0  0  0  0  0  0  0  0  0  0
   -2.9858   -1.0244    4.0213 H   0  0  0  0  0  0  0  0  0  0  0  0
   -3.3746   -2.6367    1.4596 H   0  0  0  0  0  0  0  0  0  0  0  0
   -4.4552   -2.5451    2.8588 H   0  0  0  0  0  0  0  0  0  0  0  0
   -4.2018   -1.1114    1.8419 H   0  0  0  0  0  0  0  0  0  0  0  0
   -1.0462   -3.6278    3.0216 N   0  0  0  0  0  0  0  0  0  0  0  0
   -0.3174   -4.7751    3.5419 C   0  0  0  0  0  0  0  0  0  0  0  0
   -0.9180   -3.3549    2.0424 H   0  0  0  0  0  0  0  0  0  0  0  0
   -1.0129   -5.5202    3.9417 H   0  0  0  0  0  0  0  0  0  0  0  0
    0.2690   -5.2414    2.7441 H   0  0  0  0  0  0  0  0  0  0  0  0
    0.3671   -4.4652    4.3383 H   0  0  0  0  0  0  0  0  0  0  0  0
  1  2  2  0  0  0  0
  1  3  1  0  0  0  0
  1  7  1  0  0  0  0
  3  4  1  0  0  0  0
  3  5  1  0  0  0  0
  3  6  1  0  0  0  0
  7  8  1  0  0  0  0
  7 12  1  0  0  0  0
  8  9  1  0  0  0  0
  8 11  1  0  0  0  0
  8 13  1  0  0  0  0
  9 10  2  0  0  0  0
  9 17  1  0  0  0  0
 11 14  1  0  0  0  0
 11 15  1  0  0  0  0
 11 16  1  0  0  0  0
 17 18  1  0  0  0  0
 17 25  1  0  0  0  0
 18 19  1  0  0  0  0
 18 21  1  0  0  0  0
 18 26  1  0  0  0  0
 19 20  2  0  0  0  0
 19 36  1  0  0  0  0
 21 22  1  0  0  0  0
 21 27  1  0  0  0  0
 21 28  1  0  0  0  0
 22 23  1  0  0  0  0
 22 24  1  0  0  0  0
 22 29  1  0  0  0  0
 23 30  1  0  0  0  0
 23 31  1  0  0  0  0
 23 32  1  0  0  0  0
 24 33  1  0  0  0  0
 24 34  1  0  0  0  0
 24 35  1  0  0  0  0
 36 37  1  0  0  0  0
 36 41  1  0  0  0  0
 37 38  1  0  0  0  0
 37 40  1  0  0  0  0
 37 42  1  0  0  0  0
 38 39  2  0  0  0  0
 38 46  1  0  0  0  0
 40 43  1  0  0  0  0
 40 44  1  0  0  0  0
 40 45  1  0  0  0  0
 46 47  1  0  0  0  0
 46 48  1  0  0  0  0
 47 49  1  0  0  0  0
 47 50  1  0  0  0  0
 47 51  1  0  0  0  0
M  END
$$$$

  -OEChem-05262216553D

 51 50  0     1  0  0  0  0  0999 V2000
    0.5822   -2.6755   -2.1676 C   0  0  0  0  0  0  0  0  0  0  0  0
   -0.3415   -1.9269   -2.4543 O   0  0  0  0  0  0  0  0  0  0  0  0
    0.2864   -4.1151   -1.7928 C   0  0  0  0  0  0  0  0  0  0  0  0
    0.5560   -4.2883   -0.7476 H   0  0  0  0  0  0  0  0  0  0  0  0
   -0.7788   -4.3271   -1.9201 H   0  0  0  0  0  0  0  0  0  0  0  0
    0.8590   -4.7947   -2.4283 H   0  0  0  0  0  0  0  0  0  0  0  0
    1.8879   -2.2180   -2.1200 N   0  0  0  0  0  0  0  0  0  0  0  0
    2.3377   -0.8135   -2.2373 C   0  0  2  0  0  0  0  0  0  0  0  0
    1.8802    0.0636   -1.0517 C   0  0  0  0  0  0  0  0  0  0  0  0
    2.7156    0.5620   -0.3085 O   0  0  0  0  0  0  0  0  0  0  0  0
    1.9358   -0.1906   -3.5825 C   0  0  0  0  0  0  0  0  0  0  0  0
    2.5571   -2.8804   -1.7369 H   0  0  0  0  0  0  0  0  0  0  0  0
    3.4324   -0.8233   -2.2087 H   0  0  0  0  0  0  0  0  0  0  0  0
    0.8559   -0.0287   -3.6435 H   0  0  0  0  0  0  0  0  0  0  0  0
    2.4305    0.7775   -3.7091 H   0  0  0  0  0  0  0  0  0  0  0  0
    2.2361   -0.8439   -4.4071 H   0  0  0  0  0  0  0  0  0  0  0  0
    0.5357    0.1496   -0.7479 N   0  0  0  0  0  0  0  0  0  0  0  0
    0.0298    0.3996    0.6090 C   0  0  2  0  0  0  0  0  0  0  0  0
   -0.5264   -0.9360    1.1722 C   0  0  0  0  0  0  0  0  0  0  0  0
    0.1219   -1.9676    1.0256 O   0  0  0  0  0  0  0  0  0  0  0  0
   -1.0367    1.5269    0.6249 C   0  0  0  0  0  0  0  0  0  0  0  0
   -0.5773    2.9631    0.2626 C   0  0  0  0  0  0  0  0  0  0  0  0
   -1.8208    3.8617    0.2034 C   0  0  0  0  0  0  0  0  0  0  0  0
    0.1555    3.1022   -1.0790 C   0  0  0  0  0  0  0  0  0  0  0  0
   -0.0466   -0.4362   -1.3539 H   0  0  0  0  0  0  0  0  0  0  0  0
    0.8431    0.7084    1.2741 H   0  0  0  0  0  0  0  0  0  0  0  0
   -1.4650    1.5838    1.6304 H   0  0  0  0  0  0  0  0  0  0  0  0
   -1.8384    1.2360   -0.0631 H   0  0  0  0  0  0  0  0  0  0  0  0
    0.0880    3.3271    1.0529 H   0  0  0  0  0  0  0  0  0  0  0  0
   -2.4891    3.5463   -0.6044 H   0  0  0  0  0  0  0  0  0  0  0  0
   -1.5329    4.9034    0.0291 H   0  0  0  0  0  0  0  0  0  0  0  0
   -2.3712    3.8173    1.1485 H   0  0  0  0  0  0  0  0  0  0  0  0
   -0.3758    2.5635   -1.8697 H   0  0  0  0  0  0  0  0  0  0  0  0
    0.2315    4.1547   -1.3693 H   0  0  0  0  0  0  0  0  0  0  0  0
    1.1736    2.7152   -1.0014 H   0  0  0  0  0  0  0  0  0  0  0  0
   -1.7435   -1.0033    1.8357 N   0  0  0  0  0  0  0  0  0  0  0  0
   -2.4577   -2.2208    2.2791 C   0  0  2  0  0  0  0  0  0  0  0  0
   -1.8016   -2.9885    3.4510 C   0  0  0  0  0  0  0  0  0  0  0  0
   -2.5097   -3.4314    4.3458 O   0  0  0  0  0  0  0  0  0  0  0  0
   -2.7279   -3.1631    1.0974 C   0  0  0  0  0  0  0  0  0  0  0  0
   -2.2437   -0.1234    1.9174 H   0  0  0  0  0  0  0  0  0  0  0  0
   -3.4337   -1.8921    2.6512 H   0  0  0  0  0  0  0  0  0  0  0  0
   -1.8052   -3.6339    0.7466 H   0  0  0  0  0  0  0  0  0  0  0  0
   -3.4185   -3.9558    1.4023 H   0  0  0  0  0  0  0  0  0  0  0  0
   -3.1774   -2.6129    0.2653 H   0  0  0  0  0  0  0  0  0  0  0  0
   -0.4390   -3.2031    3.5029 N   0  0  0  0  0  0  0  0  0  0  0  0
    0.2281   -3.9736    4.5426 C   0  0  0  0  0  0  0  0  0  0  0  0
    0.0949   -2.8880    2.6888 H   0  0  0  0  0  0  0  0  0  0  0  0
   -0.0901   -5.0206    4.5064 H   0  0  0  0  0  0  0  0  0  0  0  0
    1.3125   -3.9340    4.4033 H   0  0  0  0  0  0  0  0  0  0  0  0
   -0.0068   -3.5663    5.5314 H   0  0  0  0  0  0  0  0  0  0  0  0
  1  2  2  0  0  0  0
  1  3  1  0  0  0  0
  1  7  1  0  0  0  0
  3  4  1  0  0  0  0
  3  5  1  0  0  0  0
  3  6  1  0  0  0  0
  7  8  1  0  0  0  0
  7 12  1  0  0  0  0
  8  9  1  0  0  0  0
  8 11  1  0  0  0  0
  8 13  1  0  0  0  0
  9 10  2  0  0  0  0
  9 17  1  0  0  0  0
 11 14  1  0  0  0  0
 11 15  1  0  0  0  0
 11 16  1  0  0  0  0
 17 18  1  0  0  0  0
 17 25  1  0  0  0  0
 18 19  1  0  0  0  0
 18 21  1  0  0  0  0
 18 26  1  0  0  0  0
 19 20  2  0  0  0  0
 19 36  1  0  0  0  0
 21 22  1  0  0  0  0
 21 27  1  0  0  0  0
 21 28  1  0  0  0  0
 22 23  1  0  0  0  0
 22 24  1  0  0  0  0
 22 29  1  0  0  0  0
 23 30  1  0  0  0  0
 23 31  1  0  0  0  0
 23 32  1  0  0  0  0
 24 33  1  0  0  0  0
 24 34  1  0  0  0  0
 24 35  1  0  0  0  0
 36 37  1  0  0  0  0
 36 41  1  0  0  0  0
 37 38  1  0  0  0  0
 37 40  1  0  0  0  0
 37 42  1  0  0  0  0
 38 39  2  0  0  0  0
 38 46  1  0  0  0  0
 40 43  1  0  0  0  0
 40 44  1  0  0  0  0
 40 45  1  0  0  0  0
 46 47  1  0  0  0  0
 46 48  1  0  0  0  0
 47 49  1  0  0  0  0
 47 50  1  0  0  0  0
 47 51  1  0  0  0  0
M  END
$$$$

  -OEChem-05262216553D

 51 50  0     1  0  0  0  0  0999 V2000
    0.4375   -2.6840   -2.1878 C   0  0  0  0  0  0  0  0  0  0  0  0
   -0.5120   -1.9385   -2.3848 O   0  0  0  0  0  0  0  0  0  0  0  0
    0.1836   -4.1358   -1.8300 C   0  0  0  0  0  0  0  0  0  0  0  0
    0.5243   -4.3308   -0.8097 H   0  0  0  0  0  0  0  0  0  0  0  0
   -0.8851   -4.3591   -1.8931 H   0  0  0  0  0  0  0  0  0  0  0  0
    0.7206   -4.7922   -2.5189 H   0  0  0  0  0  0  0  0  0  0  0  0
    1.7394   -2.2172   -2.2397 N   0  0  0  0  0  0  0  0  0  0  0  0
    2.1719   -0.8115   -2.3961 C   0  0  2  0  0  0  0  0  0  0  0  0
    1.7955    0.0724   -1.1874 C   0  0  0  0  0  0  0  0  0  0  0  0
    2.6803    0.5578   -0.4948 O   0  0  0  0  0  0  0  0  0  0  0  0
    1.6723   -0.2044   -3.7152 C   0  0  0  0  0  0  0  0  0  0  0  0
    2.4452   -2.8806   -1.9309 H   0  0  0  0  0  0  0  0  0  0  0  0
    3.2658   -0.8147   -2.4453 H   0  0  0  0  0  0  0  0  0  0  0  0
    0.5895   -0.0508   -3.7015 H   0  0  0  0  0  0  0  0  0  0  0  0
    2.1504    0.7654   -3.8850 H   0  0  0  0  0  0  0  0  0  0  0  0
    1.9195   -0.8636   -4.5527 H   0  0  0  0  0  0  0  0  0  0  0  0
    0.4712    0.1846   -0.8109 N   0  0  0  0  0  0  0  0  0  0  0  0
    0.0520    0.4251    0.5765 C   0  0  2  0  0  0  0  0  0  0  0  0
   -0.5015   -0.9071    1.1445 C   0  0  0  0  0  0  0  0  0  0  0  0
    0.2120   -1.9048    1.1359 O   0  0  0  0  0  0  0  0  0  0  0  0
   -0.9829    1.5765    0.6804 C   0  0  0  0  0  0  0  0  0  0  0  0
   -0.5119    3.0088    0.3174 C   0  0  0  0  0  0  0  0  0  0  0  0
   -1.7344    3.9368    0.3534 C   0  0  0  0  0  0  0  0  0  0  0  0
    0.1376    3.1564   -1.0658 C   0  0  0  0  0  0  0  0  0  0  0  0
   -0.1517   -0.3941   -1.3825 H   0  0  0  0  0  0  0  0  0  0  0  0
    0.9105    0.7004    1.1983 H   0  0  0  0  0  0  0  0  0  0  0  0
   -1.3493    1.6147    1.7118 H   0  0  0  0  0  0  0  0  0  0  0  0
   -1.8305    1.3223    0.0345 H   0  0  0  0  0  0  0  0  0  0  0  0
    0.2108    3.3417    1.0704 H   0  0  0  0  0  0  0  0  0  0  0  0
   -2.4590    3.6540   -0.4171 H   0  0  0  0  0  0  0  0  0  0  0  0
   -1.4332    4.9751    0.1817 H   0  0  0  0  0  0  0  0  0  0  0  0
   -2.2256    3.8843    1.3299 H   0  0  0  0  0  0  0  0  0  0  0  0
   -0.4585    2.6500   -1.8312 H   0  0  0  0  0  0  0  0  0  0  0  0
    0.2260    4.2124   -1.3395 H   0  0  0  0  0  0  0  0  0  0  0  0
    1.1468    2.7394   -1.0618 H   0  0  0  0  0  0  0  0  0  0  0  0
   -1.8073   -1.0172    1.6014 N   0  0  0  0  0  0  0  0  0  0  0  0
   -2.5175   -2.2498    2.0045 C   0  0  2  0  0  0  0  0  0  0  0  0
   -2.0089   -2.9034    3.3103 C   0  0  0  0  0  0  0  0  0  0  0  0
   -2.8137   -3.2156    4.1781 O   0  0  0  0  0  0  0  0  0  0  0  0
   -2.5472   -3.2724    0.8594 C   0  0  0  0  0  0  0  0  0  0  0  0
   -2.3594   -0.1665    1.5475 H   0  0  0  0  0  0  0  0  0  0  0  0
   -3.5563   -1.9629    2.1991 H   0  0  0  0  0  0  0  0  0  0  0  0
   -1.5594   -3.7113    0.6952 H   0  0  0  0  0  0  0  0  0  0  0  0
   -3.2427   -4.0825    1.1006 H   0  0  0  0  0  0  0  0  0  0  0  0
   -2.8767   -2.7972   -0.0697 H   0  0  0  0  0  0  0  0  0  0  0  0
   -0.6664   -3.1511    3.5144 N   0  0  0  0  0  0  0  0  0  0  0  0
   -0.1171   -3.7484    4.7229 C   0  0  0  0  0  0  0  0  0  0  0  0
   -0.0361   -2.8664    2.7598 H   0  0  0  0  0  0  0  0  0  0  0  0
    0.9665   -3.8647    4.6254 H   0  0  0  0  0  0  0  0  0  0  0  0
   -0.3211   -3.1125    5.5905 H   0  0  0  0  0  0  0  0  0  0  0  0
   -0.5571   -4.7360    4.8962 H   0  0  0  0  0  0  0  0  0  0  0  0
  1  2  2  0  0  0  0
  1  3  1  0  0  0  0
  1  7  1  0  0  0  0
  3  4  1  0  0  0  0
  3  5  1  0  0  0  0
  3  6  1  0  0  0  0
  7  8  1  0  0  0  0
  7 12  1  0  0  0  0
  8  9  1  0  0  0  0
  8 11  1  0  0  0  0
  8 13  1  0  0  0  0
  9 10  2  0  0  0  0
  9 17  1  0  0  0  0
 11 14  1  0  0  0  0
 11 15  1  0  0  0  0
 11 16  1  0  0  0  0
 17 18  1  0  0  0  0
 17 25  1  0  0  0  0
 18 19  1  0  0  0  0
 18 21  1  0  0  0  0
 18 26  1  0  0  0  0
 19 20  2  0  0  0  0
 19 36  1  0  0  0  0
 21 22  1  0  0  0  0
 21 27  1  0  0  0  0
 21 28  1  0  0  0  0
 22 23  1  0  0  0  0
 22 24  1  0  0  0  0
 22 29  1  0  0  0  0
 23 30  1  0  0  0  0
 23 31  1  0  0  0  0
 23 32  1  0  0  0  0
 24 33  1  0  0  0  0
 24 34  1  0  0  0  0
 24 35  1  0  0  0  0
 36 37  1  0  0  0  0
 36 41  1  0  0  0  0
 37 38  1  0  0  0  0
 37 40  1  0  0  0  0
 37 42  1  0  0  0  0
 38 39  2  0  0  0  0
 38 46  1  0  0  0  0
 40 43  1  0  0  0  0
 40 44  1  0  0  0  0
 40 45  1  0  0  0  0
 46 47  1  0  0  0  0
 46 48  1  0  0  0  0
 47 49  1  0  0  0  0
 47 50  1  0  0  0  0
 47 51  1  0  0  0  0
M  END
$$$$

  -OEChem-05262216553D

 51 50  0     1  0  0  0  0  0999 V2000
    0.5530   -2.6759   -2.2568 C   0  0  0  0  0  0  0  0  0  0  0  0
   -0.4185   -1.9449   -2.3903 O   0  0  0  0  0  0  0  0  0  0  0  0
    0.3449   -4.1580   -2.0109 C   0  0  0  0  0  0  0  0  0  0  0  0
    0.6335   -4.4075   -0.9865 H   0  0  0  0  0  0  0  0  0  0  0  0
   -0.7065   -4.4218   -2.1557 H   0  0  0  0  0  0  0  0  0  0  0  0
    0.9519   -4.7430   -2.7062 H   0  0  0  0  0  0  0  0  0  0  0  0
    1.8410   -2.1713   -2.2825 N   0  0  0  0  0  0  0  0  0  0  0  0
    2.2366   -0.7493   -2.3655 C   0  0  2  0  0  0  0  0  0  0  0  0
    1.8224    0.0698   -1.1243 C   0  0  0  0  0  0  0  0  0  0  0  0
    2.6857    0.5326   -0.3908 O   0  0  0  0  0  0  0  0  0  0  0  0
    1.7358   -0.0963   -3.6617 C   0  0  0  0  0  0  0  0  0  0  0  0
    2.5706   -2.8369   -2.0419 H   0  0  0  0  0  0  0  0  0  0  0  0
    3.3306   -0.7203   -2.4003 H   0  0  0  0  0  0  0  0  0  0  0  0
    0.6472    0.0093   -3.6632 H   0  0  0  0  0  0  0  0  0  0  0  0
    2.1742    0.9007   -3.7707 H   0  0  0  0  0  0  0  0  0  0  0  0
    2.0278   -0.6989   -4.5271 H   0  0  0  0  0  0  0  0  0  0  0  0
    0.4862    0.1807   -0.7911 N   0  0  0  0  0  0  0  0  0  0  0  0
    0.0157    0.4151    0.5803 C   0  0  2  0  0  0  0  0  0  0  0  0
   -0.5599   -0.9125    1.1298 C   0  0  0  0  0  0  0  0  0  0  0  0
    0.2014   -1.8375    1.3859 O   0  0  0  0  0  0  0  0  0  0  0  0
   -1.0221    1.5647    0.6519 C   0  0  0  0  0  0  0  0  0  0  0  0
   -0.5372    2.9979    0.3142 C   0  0  0  0  0  0  0  0  0  0  0  0
   -1.7598    3.9261    0.3094 C   0  0  0  0  0  0  0  0  0  0  0  0
    0.1657    3.1527   -1.0420 C   0  0  0  0  0  0  0  0  0  0  0  0
   -0.1215   -0.3790   -1.3967 H   0  0  0  0  0  0  0  0  0  0  0  0
    0.8520    0.6901    1.2328 H   0  0  0  0  0  0  0  0  0  0  0  0
   -1.4321    1.5894    1.6675 H   0  0  0  0  0  0  0  0  0  0  0  0
   -1.8419    1.3186   -0.0314 H   0  0  0  0  0  0  0  0  0  0  0  0
    0.1557    3.3258    1.0965 H   0  0  0  0  0  0  0  0  0  0  0  0
   -2.4521    3.6515   -0.4929 H   0  0  0  0  0  0  0  0  0  0  0  0
   -1.4511    4.9657    0.1602 H   0  0  0  0  0  0  0  0  0  0  0  0
   -2.2913    3.8642    1.2642 H   0  0  0  0  0  0  0  0  0  0  0  0
   -0.3995    2.6494   -1.8326 H   0  0  0  0  0  0  0  0  0  0  0  0
    0.2631    4.2101   -1.3068 H   0  0  0  0  0  0  0  0  0  0  0  0
    1.1745    2.7368   -1.0006 H   0  0  0  0  0  0  0  0  0  0  0  0
   -1.9285   -1.1077    1.2477 N   0  0  0  0  0  0  0  0  0  0  0  0
   -2.6334   -2.3637    1.5803 C   0  0  2  0  0  0  0  0  0  0  0  0
   -2.4255   -2.8787    3.0237 C   0  0  0  0  0  0  0  0  0  0  0  0
   -3.3969   -3.2403    3.6749 O   0  0  0  0  0  0  0  0  0  0  0  0
   -2.3125   -3.4623    0.5583 C   0  0  0  0  0  0  0  0  0  0  0  0
   -2.5035   -0.3209    0.9619 H   0  0  0  0  0  0  0  0  0  0  0  0
   -3.7043   -2.1535    1.4927 H   0  0  0  0  0  0  0  0  0  0  0  0
   -1.2816   -3.8113    0.6634 H   0  0  0  0  0  0  0  0  0  0  0  0
   -2.9781   -4.3182    0.7083 H   0  0  0  0  0  0  0  0  0  0  0  0
   -2.4535   -3.0878   -0.4603 H   0  0  0  0  0  0  0  0  0  0  0  0
   -1.1692   -2.9580    3.5900 N   0  0  0  0  0  0  0  0  0  0  0  0
   -0.9062   -3.4658    4.9291 C   0  0  0  0  0  0  0  0  0  0  0  0
   -0.3862   -2.6790    2.9922 H   0  0  0  0  0  0  0  0  0  0  0  0
    0.1652   -3.4188    5.1463 H   0  0  0  0  0  0  0  0  0  0  0  0
   -1.4373   -2.8673    5.6766 H   0  0  0  0  0  0  0  0  0  0  0  0
   -1.2322   -4.5076    5.0142 H   0  0  0  0  0  0  0  0  0  0  0  0
  1  2  2  0  0  0  0
  1  3  1  0  0  0  0
  1  7  1  0  0  0  0
  3  4  1  0  0  0  0
  3  5  1  0  0  0  0
  3  6  1  0  0  0  0
  7  8  1  0  0  0  0
  7 12  1  0  0  0  0
  8  9  1  0  0  0  0
  8 11  1  0  0  0  0
  8 13  1  0  0  0  0
  9 10  2  0  0  0  0
  9 17  1  0  0  0  0
 11 14  1  0  0  0  0
 11 15  1  0  0  0  0
 11 16  1  0  0  0  0
 17 18  1  0  0  0  0
 17 25  1  0  0  0  0
 18 19  1  0  0  0  0
 18 21  1  0  0  0  0
 18 26  1  0  0  0  0
 19 20  2  0  0  0  0
 19 36  1  0  0  0  0
 21 22  1  0  0  0  0
 21 27  1  0  0  0  0
 21 28  1  0  0  0  0
 22 23  1  0  0  0  0
 22 24  1  0  0  0  0
 22 29  1  0  0  0  0
 23 30  1  0  0  0  0
 23 31  1  0  0  0  0
 23 32  1  0  0  0  0
 24 33  1  0  0  0  0
 24 34  1  0  0  0  0
 24 35  1  0  0  0  0
 36 37  1  0  0  0  0
 36 41  1  0  0  0  0
 37 38  1  0  0  0  0
 37 40  1  0  0  0  0
 37 42  1  0  0  0  0
 38 39  2  0  0  0  0
 38 46  1  0  0  0  0
 40 43  1  0  0  0  0
 40 44  1  0  0  0  0
 40 45  1  0  0  0  0
 46 47  1  0  0  0  0
 46 48  1  0  0  0  0
 47 49  1  0  0  0  0
 47 50  1  0  0  0  0
 47 51  1  0  0  0  0
M  END
$$$$

  -OEChem-05262216553D

 51 50  0     1  0  0  0  0  0999 V2000
    0.6529   -2.6693   -2.4123 C   0  0  0  0  0  0  0  0  0  0  0  0
   -0.3498   -1.9709   -2.4650 O   0  0  0  0  0  0  0  0  0  0  0  0
    0.5118   -4.1733   -2.2766 C   0  0  0  0  0  0  0  0  0  0  0  0
    0.7627   -4.4786   -1.2573 H   0  0  0  0  0  0  0  0  0  0  0  0
   -0.5153   -4.4785   -2.4948 H   0  0  0  0  0  0  0  0  0  0  0  0
    1.1821   -4.6787   -2.9762 H   0  0  0  0  0  0  0  0  0  0  0  0
    1.9174   -2.1093   -2.4225 N   0  0  0  0  0  0  0  0  0  0  0  0
    2.2500   -0.6699   -2.4276 C   0  0  2  0  0  0  0  0  0  0  0  0
    1.8118    0.0632   -1.1413 C   0  0  0  0  0  0  0  0  0  0  0  0
    2.6641    0.4979   -0.3792 O   0  0  0  0  0  0  0  0  0  0  0  0
    1.7123    0.0283   -3.6854 C   0  0  0  0  0  0  0  0  0  0  0  0
    2.6833   -2.7581   -2.2612 H   0  0  0  0  0  0  0  0  0  0  0  0
    3.3416   -0.5919   -2.4658 H   0  0  0  0  0  0  0  0  0  0  0  0
    0.6195    0.0718   -3.6850 H   0  0  0  0  0  0  0  0  0  0  0  0
    2.0933    1.0533   -3.7356 H   0  0  0  0  0  0  0  0  0  0  0  0
    2.0378   -0.5060   -4.5829 H   0  0  0  0  0  0  0  0  0  0  0  0
    0.4708    0.1560   -0.8190 N   0  0  0  0  0  0  0  0  0  0  0  0
   -0.0184    0.3641    0.5517 C   0  0  2  0  0  0  0  0  0  0  0  0
   -0.5906   -0.9673    1.0872 C   0  0  0  0  0  0  0  0  0  0  0  0
    0.1554   -1.7763    1.6234 O   0  0  0  0  0  0  0  0  0  0  0  0
   -1.0674    1.5018    0.6429 C   0  0  0  0  0  0  0  0  0  0  0  0
   -0.5916    2.9461    0.3410 C   0  0  0  0  0  0  0  0  0  0  0  0
   -1.8199    3.8677    0.3481 C   0  0  0  0  0  0  0  0  0  0  0  0
    0.1242    3.1345   -1.0043 C   0  0  0  0  0  0  0  0  0  0  0  0
   -0.1267   -0.3903   -1.4465 H   0  0  0  0  0  0  0  0  0  0  0  0
    0.8108    0.6364    1.2142 H   0  0  0  0  0  0  0  0  0  0  0  0
   -1.4870    1.4953    1.6551 H   0  0  0  0  0  0  0  0  0  0  0  0
   -1.8805    1.2670   -0.0518 H   0  0  0  0  0  0  0  0  0  0  0  0
    0.0919    3.2608    1.1369 H   0  0  0  0  0  0  0  0  0  0  0  0
   -2.5064    3.6078   -0.4642 H   0  0  0  0  0  0  0  0  0  0  0  0
   -1.5159    4.9121    0.2248 H   0  0  0  0  0  0  0  0  0  0  0  0
   -2.3570    3.7819    1.2981 H   0  0  0  0  0  0  0  0  0  0  0  0
   -0.4298    2.6467   -1.8122 H   0  0  0  0  0  0  0  0  0  0  0  0
    0.2196    4.1981   -1.2442 H   0  0  0  0  0  0  0  0  0  0  0  0
    1.1345    2.7220   -0.9615 H   0  0  0  0  0  0  0  0  0  0  0  0
   -1.9287   -1.2836    0.9026 N   0  0  0  0  0  0  0  0  0  0  0  0
   -2.6108   -2.5500    1.2411 C   0  0  2  0  0  0  0  0  0  0  0  0
   -2.7033   -2.8625    2.7528 C   0  0  0  0  0  0  0  0  0  0  0  0
   -3.7959   -3.1036    3.2497 O   0  0  0  0  0  0  0  0  0  0  0  0
   -1.9973   -3.7271    0.4726 C   0  0  0  0  0  0  0  0  0  0  0  0
   -2.4712   -0.5906    0.3957 H   0  0  0  0  0  0  0  0  0  0  0  0
   -3.6449   -2.4523    0.8949 H   0  0  0  0  0  0  0  0  0  0  0  0
   -0.9779   -3.9343    0.8099 H   0  0  0  0  0  0  0  0  0  0  0  0
   -2.5974   -4.6295    0.6261 H   0  0  0  0  0  0  0  0  0  0  0  0
   -1.9746   -3.5053   -0.5981 H   0  0  0  0  0  0  0  0  0  0  0  0
   -1.5794   -2.8817    3.5536 N   0  0  0  0  0  0  0  0  0  0  0  0
   -1.6018   -3.1143    4.9905 C   0  0  0  0  0  0  0  0  0  0  0  0
   -0.7001   -2.6183    3.0997 H   0  0  0  0  0  0  0  0  0  0  0  0
   -2.0867   -4.0694    5.2178 H   0  0  0  0  0  0  0  0  0  0  0  0
   -0.5804   -3.1447    5.3819 H   0  0  0  0  0  0  0  0  0  0  0  0
   -2.1460   -2.3118    5.4989 H   0  0  0  0  0  0  0  0  0  0  0  0
  1  2  2  0  0  0  0
  1  3  1  0  0  0  0
  1  7  1  0  0  0  0
  3  4  1  0  0  0  0
  3  5  1  0  0  0  0
  3  6  1  0  0  0  0
  7  8  1  0  0  0  0
  7 12  1  0  0  0  0
  8  9  1  0  0  0  0
  8 11  1  0  0  0  0
  8 13  1  0  0  0  0
  9 10  2  0  0  0  0
  9 17  1  0  0  0  0
 11 14  1  0  0  0  0
 11 15  1  0  0  0  0
 11 16  1  0  0  0  0
 17 18  1  0  0  0  0
 17 25  1  0  0  0  0
 18 19  1  0  0  0  0
 18 21  1  0  0  0  0
 18 26  1  0  0  0  0
 19 20  2  0  0  0  0
 19 36  1  0  0  0  0
 21 22  1  0  0  0  0
 21 27  1  0  0  0  0
 21 28  1  0  0  0  0
 22 23  1  0  0  0  0
 22 24  1  0  0  0  0
 22 29  1  0  0  0  0
 23 30  1  0  0  0  0
 23 31  1  0  0  0  0
 23 32  1  0  0  0  0
 24 33  1  0  0  0  0
 24 34  1  0  0  0  0
 24 35  1  0  0  0  0
 36 37  1  0  0  0  0
 36 41  1  0  0  0  0
 37 38  1  0  0  0  0
 37 40  1  0  0  0  0
 37 42  1  0  0  0  0
 38 39  2  0  0  0  0
 38 46  1  0  0  0  0
 40 43  1  0  0  0  0
 40 44  1  0  0  0  0
 40 45  1  0  0  0  0
 46 47  1  0  0  0  0
 46 48  1  0  0  0  0
 47 49  1  0  0  0  0
 47 50  1  0  0  0  0
 47 51  1  0  0  0  0
M  END
$$$$

  -OEChem-05262216553D

 51 50  0     1  0  0  0  0  0999 V2000
    0.7301   -2.5756   -2.6810 C   0  0  0  0  0  0  0  0  0  0  0  0
   -0.2693   -1.8746   -2.6019 O   0  0  0  0  0  0  0  0  0  0  0  0
    0.5797   -4.0770   -2.8375 C   0  0  0  0  0  0  0  0  0  0  0  0
    1.0010   -4.5876   -1.9676 H   0  0  0  0  0  0  0  0  0  0  0  0
   -0.4772   -4.3446   -2.9251 H   0  0  0  0  0  0  0  0  0  0  0  0
    1.1017   -4.4136   -3.7367 H   0  0  0  0  0  0  0  0  0  0  0  0
    1.9987   -2.0310   -2.5909 N   0  0  0  0  0  0  0  0  0  0  0  0
    2.3497   -0.6054   -2.4150 C   0  0  2  0  0  0  0  0  0  0  0  0
    1.8946   -0.0078   -1.0654 C   0  0  0  0  0  0  0  0  0  0  0  0
    2.7307    0.3688   -0.2573 O   0  0  0  0  0  0  0  0  0  0  0  0
    1.8413    0.2364   -3.5945 C   0  0  0  0  0  0  0  0  0  0  0  0
    2.7647   -2.6996   -2.5870 H   0  0  0  0  0  0  0  0  0  0  0  0
    3.4428   -0.5373   -2.4233 H   0  0  0  0  0  0  0  0  0  0  0  0
    0.7488    0.2869   -3.6089 H   0  0  0  0  0  0  0  0  0  0  0  0
    2.2282    1.2577   -3.5197 H   0  0  0  0  0  0  0  0  0  0  0  0
    2.1814   -0.1934   -4.5415 H   0  0  0  0  0  0  0  0  0  0  0  0
    0.5491    0.0575   -0.7620 N   0  0  0  0  0  0  0  0  0  0  0  0
    0.0026    0.2662    0.5861 C   0  0  2  0  0  0  0  0  0  0  0  0
   -0.5557   -1.0693    1.1195 C   0  0  0  0  0  0  0  0  0  0  0  0
    0.0386   -1.6750    2.0009 O   0  0  0  0  0  0  0  0  0  0  0  0
   -1.0903    1.3623    0.6276 C   0  0  0  0  0  0  0  0  0  0  0  0
   -0.6551    2.8183    0.3232 C   0  0  0  0  0  0  0  0  0  0  0  0
   -1.9137    3.6956    0.2759 C   0  0  0  0  0  0  0  0  0  0  0  0
    0.1026    3.0161   -0.9973 C   0  0  0  0  0  0  0  0  0  0  0  0
   -0.0444   -0.4189   -1.4462 H   0  0  0  0  0  0  0  0  0  0  0  0
    0.8001    0.5765    1.2709 H   0  0  0  0  0  0  0  0  0  0  0  0
   -1.5409    1.3515    1.6264 H   0  0  0  0  0  0  0  0  0  0  0  0
   -1.8738    1.0882   -0.0863 H   0  0  0  0  0  0  0  0  0  0  0  0
   -0.0118    3.1653    1.1389 H   0  0  0  0  0  0  0  0  0  0  0  0
   -2.5628    3.3989   -0.5542 H   0  0  0  0  0  0  0  0  0  0  0  0
   -1.6426    4.7480    0.1450 H   0  0  0  0  0  0  0  0  0  0  0  0
   -2.4789    3.6046    1.2089 H   0  0  0  0  0  0  0  0  0  0  0  0
   -0.4114    2.5093   -1.8199 H   0  0  0  0  0  0  0  0  0  0  0  0
    0.1789    4.0804   -1.2409 H   0  0  0  0  0  0  0  0  0  0  0  0
    1.1211    2.6296   -0.9163 H   0  0  0  0  0  0  0  0  0  0  0  0
   -1.7584   -1.5587    0.6325 N   0  0  0  0  0  0  0  0  0  0  0  0
   -2.4203   -2.8311    0.9864 C   0  0  2  0  0  0  0  0  0  0  0  0
   -2.9537   -2.9144    2.4356 C   0  0  0  0  0  0  0  0  0  0  0  0
   -4.1096   -3.2685    2.6294 O   0  0  0  0  0  0  0  0  0  0  0  0
   -1.5174   -4.0293    0.6656 C   0  0  0  0  0  0  0  0  0  0  0  0
   -2.1607   -1.0289   -0.1358 H   0  0  0  0  0  0  0  0  0  0  0  0
   -3.3005   -2.9163    0.3407 H   0  0  0  0  0  0  0  0  0  0  0  0
   -0.6547   -4.0681    1.3371 H   0  0  0  0  0  0  0  0  0  0  0  0
   -2.0789   -4.9621    0.7782 H   0  0  0  0  0  0  0  0  0  0  0  0
   -1.1567   -3.9643   -0.3644 H   0  0  0  0  0  0  0  0  0  0  0  0
   -2.1528   -2.6096    3.5176 N   0  0  0  0  0  0  0  0  0  0  0  0
   -2.5914   -2.6704    4.9043 C   0  0  0  0  0  0  0  0  0  0  0  0
   -1.1959   -2.3150    3.3027 H   0  0  0  0  0  0  0  0  0  0  0  0
   -2.9284   -3.6814    5.1555 H   0  0  0  0  0  0  0  0  0  0  0  0
   -1.7664   -2.4055    5.5726 H   0  0  0  0  0  0  0  0  0  0  0  0
   -3.4153   -1.9699    5.0754 H   0  0  0  0  0  0  0  0  0  0  0  0
  1  2  2  0  0  0  0
  1  3  1  0  0  0  0
  1  7  1  0  0  0  0
  3  4  1  0  0  0  0
  3  5  1  0  0  0  0
  3  6  1  0  0  0  0
  7  8  1  0  0  0  0
  7 12  1  0  0  0  0
  8  9  1  0  0  0  0
  8 11  1  0  0  0  0
  8 13  1  0  0  0  0
  9 10  2  0  0  0  0
  9 17  1  0  0  0  0
 11 14  1  0  0  0  0
 11 15  1  0  0  0  0
 11 16  1  0  0  0  0
 17 18  1  0  0  0  0
 17 25  1  0  0  0  0
 18 19  1  0  0  0  0
 18 21  1  0  0  0  0
 18 26  1  0  0  0  0
 19 20  2  0  0  0  0
 19 36  1  0  0  0  0
 21 22  1  0  0  0  0
 21 27  1  0  0  0  0
 21 28  1  0  0  0  0
 22 23  1  0  0  0  0
 22 24  1  0  0  0  0
 22 29  1  0  0  0  0
 23 30  1  0  0  0  0
 23 31  1  0  0  0  0
 23 32  1  0  0  0  0
 24 33  1  0  0  0  0
 24 34  1  0  0  0  0
 24 35  1  0  0  0  0
 36 37  1  0  0  0  0
 36 41  1  0  0  0  0
 37 38  1  0  0  0  0
 37 40  1  0  0  0  0
 37 42  1  0  0  0  0
 38 39  2  0  0  0  0
 38 46  1  0  0  0  0
 40 43  1  0  0  0  0
 40 44  1  0  0  0  0
 40 45  1  0  0  0  0
 46 47  1  0  0  0  0
 46 48  1  0  0  0  0
 47 49  1  0  0  0  0
 47 50  1  0  0  0  0
 47 51  1  0  0  0  0
M  END
$$$$

  -OEChem-05262216553D

 51 50  0     1  0  0  0  0  0999 V2000
    0.7229   -2.5279   -2.7762 C   0  0  0  0  0  0  0  0  0  0  0  0
   -0.2674   -1.8267   -2.6149 O   0  0  0  0  0  0  0  0  0  0  0  0
    0.5487   -4.0148   -3.0210 C   0  0  0  0  0  0  0  0  0  0  0  0
    1.0559   -4.5848   -2.2386 H   0  0  0  0  0  0  0  0  0  0  0  0
   -0.5129   -4.2782   -3.0150 H   0  0  0  0  0  0  0  0  0  0  0  0
    0.9715   -4.2859   -3.9916 H   0  0  0  0  0  0  0  0  0  0  0  0
    2.0020   -2.0041   -2.6923 N   0  0  0  0  0  0  0  0  0  0  0  0
    2.3855   -0.5960   -2.4471 C   0  0  2  0  0  0  0  0  0  0  0  0
    1.9663   -0.0575   -1.0611 C   0  0  0  0  0  0  0  0  0  0  0  0
    2.8156    0.2521   -0.2393 O   0  0  0  0  0  0  0  0  0  0  0  0
    1.8697    0.3119   -3.5726 C   0  0  0  0  0  0  0  0  0  0  0  0
    2.7580   -2.6791   -2.7761 H   0  0  0  0  0  0  0  0  0  0  0  0
    3.4794   -0.5471   -2.4716 H   0  0  0  0  0  0  0  0  0  0  0  0
    0.7769    0.3601   -3.5783 H   0  0  0  0  0  0  0  0  0  0  0  0
    2.2552    1.3279   -3.4406 H   0  0  0  0  0  0  0  0  0  0  0  0
    2.2057   -0.0611   -4.5448 H   0  0  0  0  0  0  0  0  0  0  0  0
    0.6275   -0.0020   -0.7378 N   0  0  0  0  0  0  0  0  0  0  0  0
    0.0731    0.1899    0.6083 C   0  0  2  0  0  0  0  0  0  0  0  0
   -0.4749   -1.1545    1.1251 C   0  0  0  0  0  0  0  0  0  0  0  0
   -0.1339   -1.5729    2.2232 O   0  0  0  0  0  0  0  0  0  0  0  0
   -1.0440    1.2584    0.6531 C   0  0  0  0  0  0  0  0  0  0  0  0
   -0.6416    2.7251    0.3554 C   0  0  0  0  0  0  0  0  0  0  0  0
   -1.9200    3.5734    0.3099 C   0  0  0  0  0  0  0  0  0  0  0  0
    0.1159    2.9449   -0.9615 C   0  0  0  0  0  0  0  0  0  0  0  0
    0.0175   -0.4024   -1.4538 H   0  0  0  0  0  0  0  0  0  0  0  0
    0.8648    0.5071    1.2967 H   0  0  0  0  0  0  0  0  0  0  0  0
   -1.4945    1.2335    1.6517 H   0  0  0  0  0  0  0  0  0  0  0  0
   -1.8213    0.9648   -0.0602 H   0  0  0  0  0  0  0  0  0  0  0  0
   -0.0086    3.0833    1.1745 H   0  0  0  0  0  0  0  0  0  0  0  0
   -2.5606    3.2668   -0.5233 H   0  0  0  0  0  0  0  0  0  0  0  0
   -1.6732    4.6325    0.1862 H   0  0  0  0  0  0  0  0  0  0  0  0
   -2.4842    3.4634    1.2414 H   0  0  0  0  0  0  0  0  0  0  0  0
   -0.3872    2.4353   -1.7890 H   0  0  0  0  0  0  0  0  0  0  0  0
    0.1740    4.0122   -1.1968 H   0  0  0  0  0  0  0  0  0  0  0  0
    1.1408    2.5752   -0.8804 H   0  0  0  0  0  0  0  0  0  0  0  0
   -1.4816   -1.7970    0.4193 N   0  0  0  0  0  0  0  0  0  0  0  0
   -2.1340   -3.0786    0.7568 C   0  0  2  0  0  0  0  0  0  0  0  0
   -3.0539   -3.0402    1.9994 C   0  0  0  0  0  0  0  0  0  0  0  0
   -4.1568   -3.5690    1.9447 O   0  0  0  0  0  0  0  0  0  0  0  0
   -1.1034   -4.2096    0.8757 C   0  0  0  0  0  0  0  0  0  0  0  0
   -1.6647   -1.4205   -0.5086 H   0  0  0  0  0  0  0  0  0  0  0  0
   -2.7848   -3.3289   -0.0874 H   0  0  0  0  0  0  0  0  0  0  0  0
   -0.4834   -4.0884    1.7688 H   0  0  0  0  0  0  0  0  0  0  0  0
   -1.6144   -5.1750    0.9451 H   0  0  0  0  0  0  0  0  0  0  0  0
   -0.4518   -4.2243   -0.0024 H   0  0  0  0  0  0  0  0  0  0  0  0
   -2.6530   -2.4382    3.1751 N   0  0  0  0  0  0  0  0  0  0  0  0
   -3.4446   -2.4200    4.3968 C   0  0  0  0  0  0  0  0  0  0  0  0
   -1.6974   -2.0707    3.1881 H   0  0  0  0  0  0  0  0  0  0  0  0
   -2.9085   -1.8816    5.1844 H   0  0  0  0  0  0  0  0  0  0  0  0
   -4.4027   -1.9187    4.2248 H   0  0  0  0  0  0  0  0  0  0  0  0
   -3.6371   -3.4405    4.7433 H   0  0  0  0  0  0  0  0  0  0  0  0
  1  2  2  0  0  0  0
  1  3  1  0  0  0  0
  1  7  1  0  0  0  0
  3  4  1  0  0  0  0
  3  5  1  0  0  0  0
  3  6  1  0  0  0  0
  7  8  1  0  0  0  0
  7 12  1  0  0  0  0
  8  9  1  0  0  0  0
  8 11  1  0  0  0  0
  8 13  1  0  0  0  0
  9 10  2  0  0  0  0
  9 17  1  0  0  0  0
 11 14  1  0  0  0  0
 11 15  1  0  0  0  0
 11 16  1  0  0  0  0
 17 18  1  0  0  0  0
 17 25  1  0  0  0  0
 18 19  1  0  0  0  0
 18 21  1  0  0  0  0
 18 26  1  0  0  0  0
 19 20  2  0  0  0  0
 19 36  1  0  0  0  0
 21 22  1  0  0  0  0
 21 27  1  0  0  0  0
 21 28  1  0  0  0  0
 22 23  1  0  0  0  0
 22 24  1  0  0  0  0
 22 29  1  0  0  0  0
 23 30  1  0  0  0  0
 23 31  1  0  0  0  0
 23 32  1  0  0  0  0
 24 33  1  0  0  0  0
 24 34  1  0  0  0  0
 24 35  1  0  0  0  0
 36 37  1  0  0  0  0
 36 41  1  0  0  0  0
 37 38  1  0  0  0  0
 37 40  1  0  0  0  0
 37 42  1  0  0  0  0
 38 39  2  0  0  0  0
 38 46  1  0  0  0  0
 40 43  1  0  0  0  0
 40 44  1  0  0  0  0
 40 45  1  0  0  0  0
 46 47  1  0  0  0  0
 46 48  1  0  0  0  0
 47 49  1  0  0  0  0
 47 50  1  0  0  0  0
 47 51  1  0  0  0  0
M  END
$$$$

  -OEChem-05262216553D

 51 50  0     1  0  0  0  0  0999 V2000
    0.8680   -2.5576   -2.7148 C   0  0  0  0  0  0  0  0  0  0  0  0
   -0.1480   -1.8926   -2.5563 O   0  0  0  0  0  0  0  0  0  0  0  0
    0.7490   -4.0527   -2.9406 C   0  0  0  0  0  0  0  0  0  0  0  0
    1.2557   -4.5938   -2.1374 H   0  0  0  0  0  0  0  0  0  0  0  0
   -0.3032   -4.3516   -2.9557 H   0  0  0  0  0  0  0  0  0  0  0  0
    1.2045   -4.3238   -3.8963 H   0  0  0  0  0  0  0  0  0  0  0  0
    2.1264   -1.9863   -2.6321 N   0  0  0  0  0  0  0  0  0  0  0  0
    2.4547   -0.5660   -2.3789 C   0  0  2  0  0  0  0  0  0  0  0  0
    1.9950   -0.0512   -0.9965 C   0  0  0  0  0  0  0  0  0  0  0  0
    2.8185    0.2149   -0.1344 O   0  0  0  0  0  0  0  0  0  0  0  0
    1.9216    0.3225   -3.5122 C   0  0  0  0  0  0  0  0  0  0  0  0
    2.9073   -2.6324   -2.7130 H   0  0  0  0  0  0  0  0  0  0  0  0
    3.5462   -0.4757   -2.3864 H   0  0  0  0  0  0  0  0  0  0  0  0
    0.8282    0.3202   -3.5423 H   0  0  0  0  0  0  0  0  0  0  0  0
    2.2571    1.3545   -3.3692 H   0  0  0  0  0  0  0  0  0  0  0  0
    2.2951   -0.0310   -4.4780 H   0  0  0  0  0  0  0  0  0  0  0  0
    0.6470   -0.0003   -0.7125 N   0  0  0  0  0  0  0  0  0  0  0  0
    0.0508    0.1708    0.6196 C   0  0  2  0  0  0  0  0  0  0  0  0
   -0.5171   -1.1758    1.1121 C   0  0  0  0  0  0  0  0  0  0  0  0
   -0.4501   -1.4624    2.3000 O   0  0  0  0  0  0  0  0  0  0  0  0
   -1.0768    1.2289    0.6348 C   0  0  0  0  0  0  0  0  0  0  0  0
   -0.6791    2.7017    0.3609 C   0  0  0  0  0  0  0  0  0  0  0  0
   -1.9632    3.5382    0.2791 C   0  0  0  0  0  0  0  0  0  0  0  0
    0.1173    2.9377   -0.9301 C   0  0  0  0  0  0  0  0  0  0  0  0
    0.0534   -0.3593   -1.4625 H   0  0  0  0  0  0  0  0  0  0  0  0
    0.8176    0.4847    1.3369 H   0  0  0  0  0  0  0  0  0  0  0  0
   -1.5595    1.1937    1.6181 H   0  0  0  0  0  0  0  0  0  0  0  0
   -1.8281    0.9295   -0.1039 H   0  0  0  0  0  0  0  0  0  0  0  0
   -0.0761    3.0598    1.2023 H   0  0  0  0  0  0  0  0  0  0  0  0
   -2.5744    3.2285   -0.5747 H   0  0  0  0  0  0  0  0  0  0  0  0
   -1.7227    4.6001    0.1672 H   0  0  0  0  0  0  0  0  0  0  0  0
   -2.5552    3.4192    1.1921 H   0  0  0  0  0  0  0  0  0  0  0  0
   -0.3534    2.4259   -1.7752 H   0  0  0  0  0  0  0  0  0  0  0  0
    0.1694    4.0067   -1.1590 H   0  0  0  0  0  0  0  0  0  0  0  0
    1.1437    2.5802   -0.8177 H   0  0  0  0  0  0  0  0  0  0  0  0
   -1.2633   -1.9674    0.2499 N   0  0  0  0  0  0  0  0  0  0  0  0
   -1.8716   -3.2812    0.5421 C   0  0  2  0  0  0  0  0  0  0  0  0
   -3.0699   -3.2583    1.5197 C   0  0  0  0  0  0  0  0  0  0  0  0
   -4.0439   -3.9629    1.2870 O   0  0  0  0  0  0  0  0  0  0  0  0
   -0.8093   -4.2860    1.0067 C   0  0  0  0  0  0  0  0  0  0  0  0
   -1.2109   -1.7014   -0.7339 H   0  0  0  0  0  0  0  0  0  0  0  0
   -2.2717   -3.6548   -0.4061 H   0  0  0  0  0  0  0  0  0  0  0  0
   -0.4355   -4.0333    2.0033 H   0  0  0  0  0  0  0  0  0  0  0  0
   -1.2388   -5.2918    1.0495 H   0  0  0  0  0  0  0  0  0  0  0  0
    0.0338   -4.2980    0.3102 H   0  0  0  0  0  0  0  0  0  0  0  0
   -3.0559   -2.4868    2.6643 N   0  0  0  0  0  0  0  0  0  0  0  0
   -4.1067   -2.5032    3.6718 C   0  0  0  0  0  0  0  0  0  0  0  0
   -2.1755   -2.0048    2.8656 H   0  0  0  0  0  0  0  0  0  0  0  0
   -4.1846   -3.4960    4.1266 H   0  0  0  0  0  0  0  0  0  0  0  0
   -3.8847   -1.7765    4.4592 H   0  0  0  0  0  0  0  0  0  0  0  0
   -5.0713   -2.2424    3.2241 H   0  0  0  0  0  0  0  0  0  0  0  0
  1  2  2  0  0  0  0
  1  3  1  0  0  0  0
  1  7  1  0  0  0  0
  3  4  1  0  0  0  0
  3  5  1  0  0  0  0
  3  6  1  0  0  0  0
  7  8  1  0  0  0  0
  7 12  1  0  0  0  0
  8  9  1  0  0  0  0
  8 11  1  0  0  0  0
  8 13  1  0  0  0  0
  9 10  2  0  0  0  0
  9 17  1  0  0  0  0
 11 14  1  0  0  0  0
 11 15  1  0  0  0  0
 11 16  1  0  0  0  0
 17 18  1  0  0  0  0
 17 25  1  0  0  0  0
 18 19  1  0  0  0  0
 18 21  1  0  0  0  0
 18 26  1  0  0  0  0
 19 20  2  0  0  0  0
 19 36  1  0  0  0  0
 21 22  1  0  0  0  0
 21 27  1  0  0  0  0
 21 28  1  0  0  0  0
 22 23  1  0  0  0  0
 22 24  1  0  0  0  0
 22 29  1  0  0  0  0
 23 30  1  0  0  0  0
 23 31  1  0  0  0  0
 23 32  1  0  0  0  0
 24 33  1  0  0  0  0
 24 34  1  0  0  0  0
 24 35  1  0  0  0  0
 36 37  1  0  0  0  0
 36 41  1  0  0  0  0
 37 38  1  0  0  0  0
 37 40  1  0  0  0  0
 37 42  1  0  0  0  0
 38 39  2  0  0  0  0
 38 46  1  0  0  0  0
 40 43  1  0  0  0  0
 40 44  1  0  0  0  0
 40 45  1  0  0  0  0
 46 47  1  0  0  0  0
 46 48  1  0  0  0  0
 47 49  1  0  0  0  0
 47 50  1  0  0  0  0
 47 51  1  0  0  0  0
M  END
$$$$

  -OEChem-05262216553D

 51 50  0     1  0  0  0  0  0999 V2000
    0.9454   -2.5662   -2.8390 C   0  0  0  0  0  0  0  0  0  0  0  0
   -0.0938   -1.9758   -2.5743 O   0  0  0  0  0  0  0  0  0  0  0  0
    0.8962   -4.0440   -3.1763 C   0  0  0  0  0  0  0  0  0  0  0  0
    1.4229   -4.6202   -2.4114 H   0  0  0  0  0  0  0  0  0  0  0  0
   -0.1411   -4.3879   -3.2235 H   0  0  0  0  0  0  0  0  0  0  0  0
    1.3679   -4.2221   -4.1457 H   0  0  0  0  0  0  0  0  0  0  0  0
    2.1695   -1.9238   -2.7800 N   0  0  0  0  0  0  0  0  0  0  0  0
    2.4163   -0.5015   -2.4604 C   0  0  2  0  0  0  0  0  0  0  0  0
    1.9728   -0.0887   -1.0387 C   0  0  0  0  0  0  0  0  0  0  0  0
    2.8109    0.1253   -0.1759 O   0  0  0  0  0  0  0  0  0  0  0  0
    1.7913    0.4066   -3.5300 C   0  0  0  0  0  0  0  0  0  0  0  0
    2.9838   -2.5084   -2.9512 H   0  0  0  0  0  0  0  0  0  0  0  0
    3.4991   -0.3406   -2.4959 H   0  0  0  0  0  0  0  0  0  0  0  0
    0.7000    0.3314   -3.5317 H   0  0  0  0  0  0  0  0  0  0  0  0
    2.0619    1.4506   -3.3418 H   0  0  0  0  0  0  0  0  0  0  0  0
    2.1581    0.1293   -4.5229 H   0  0  0  0  0  0  0  0  0  0  0  0
    0.6297   -0.0521   -0.7248 N   0  0  0  0  0  0  0  0  0  0  0  0
    0.0653    0.1011    0.6249 C   0  0  2  0  0  0  0  0  0  0  0  0
   -0.4873   -1.2444    1.1415 C   0  0  0  0  0  0  0  0  0  0  0  0
   -0.6209   -1.4164    2.3463 O   0  0  0  0  0  0  0  0  0  0  0  0
   -1.0670    1.1538    0.6621 C   0  0  0  0  0  0  0  0  0  0  0  0
   -0.6846    2.6306    0.3863 C   0  0  0  0  0  0  0  0  0  0  0  0
   -1.9780    3.4552    0.3298 C   0  0  0  0  0  0  0  0  0  0  0  0
    0.0895    2.8816   -0.9157 C   0  0  0  0  0  0  0  0  0  0  0  0
    0.0132   -0.3697   -1.4751 H   0  0  0  0  0  0  0  0  0  0  0  0
    0.8459    0.4188    1.3250 H   0  0  0  0  0  0  0  0  0  0  0  0
   -1.5333    1.1146    1.6528 H   0  0  0  0  0  0  0  0  0  0  0  0
   -1.8289    0.8503   -0.0640 H   0  0  0  0  0  0  0  0  0  0  0  0
   -0.0714    2.9901    1.2200 H   0  0  0  0  0  0  0  0  0  0  0  0
   -2.6014    3.1411   -0.5136 H   0  0  0  0  0  0  0  0  0  0  0  0
   -1.7503    4.5196    0.2158 H   0  0  0  0  0  0  0  0  0  0  0  0
   -2.5526    3.3283    1.2528 H   0  0  0  0  0  0  0  0  0  0  0  0
   -0.3895    2.3718   -1.7574 H   0  0  0  0  0  0  0  0  0  0  0  0
    0.1286    3.9525   -1.1378 H   0  0  0  0  0  0  0  0  0  0  0  0
    1.1207    2.5328   -0.8219 H   0  0  0  0  0  0  0  0  0  0  0  0
   -0.9856   -2.1858    0.2513 N   0  0  0  0  0  0  0  0  0  0  0  0
   -1.5513   -3.5124    0.5693 C   0  0  2  0  0  0  0  0  0  0  0  0
   -2.9248   -3.4882    1.2792 C   0  0  0  0  0  0  0  0  0  0  0  0
   -3.8018   -4.2606    0.9134 O   0  0  0  0  0  0  0  0  0  0  0  0
   -0.5461   -4.3681    1.3524 C   0  0  0  0  0  0  0  0  0  0  0  0
   -0.8357   -1.9762   -0.7374 H   0  0  0  0  0  0  0  0  0  0  0  0
   -1.7203   -4.0157   -0.3882 H   0  0  0  0  0  0  0  0  0  0  0  0
   -0.4028   -3.9825    2.3662 H   0  0  0  0  0  0  0  0  0  0  0  0
   -0.9101   -5.3976    1.4288 H   0  0  0  0  0  0  0  0  0  0  0  0
    0.4224   -4.3794    0.8437 H   0  0  0  0  0  0  0  0  0  0  0  0
   -3.1796   -2.6274    2.3279 N   0  0  0  0  0  0  0  0  0  0  0  0
   -4.4271   -2.5991    3.0777 C   0  0  0  0  0  0  0  0  0  0  0  0
   -2.3861   -2.0652    2.6480 H   0  0  0  0  0  0  0  0  0  0  0  0
   -4.5827   -3.5500    3.5974 H   0  0  0  0  0  0  0  0  0  0  0  0
   -4.4008   -1.7967    3.8212 H   0  0  0  0  0  0  0  0  0  0  0  0
   -5.2735   -2.4205    2.4062 H   0  0  0  0  0  0  0  0  0  0  0  0
  1  2  2  0  0  0  0
  1  3  1  0  0  0  0
  1  7  1  0  0  0  0
  3  4  1  0  0  0  0
  3  5  1  0  0  0  0
  3  6  1  0  0  0  0
  7  8  1  0  0  0  0
  7 12  1  0  0  0  0
  8  9  1  0  0  0  0
  8 11  1  0  0  0  0
  8 13  1  0  0  0  0
  9 10  2  0  0  0  0
  9 17  1  0  0  0  0
 11 14  1  0  0  0  0
 11 15  1  0  0  0  0
 11 16  1  0  0  0  0
 17 18  1  0  0  0  0
 17 25  1  0  0  0  0
 18 19  1  0  0  0  0
 18 21  1  0  0  0  0
 18 26  1  0  0  0  0
 19 20  2  0  0  0  0
 19 36  1  0  0  0  0
 21 22  1  0  0  0  0
 21 27  1  0  0  0  0
 21 28  1  0  0  0  0
 22 23  1  0  0  0  0
 22 24  1  0  0  0  0
 22 29  1  0  0  0  0
 23 30  1  0  0  0  0
 23 31  1  0  0  0  0
 23 32  1  0  0  0  0
 24 33  1  0  0  0  0
 24 34  1  0  0  0  0
 24 35  1  0  0  0  0
 36 37  1  0  0  0  0
 36 41  1  0  0  0  0
 37 38  1  0  0  0  0
 37 40  1  0  0  0  0
 37 42  1  0  0  0  0
 38 39  2  0  0  0  0
 38 46  1  0  0  0  0
 40 43  1  0  0  0  0
 40 44  1  0  0  0  0
 40 45  1  0  0  0  0
 46 47  1  0  0  0  0
 46 48  1  0  0  0  0
 47 49  1  0  0  0  0
 47 50  1  0  0  0  0
 47 51  1  0  0  0  0
M  END
$$$$

  -OEChem-05262216553D

 51 50  0     1  0  0  0  0  0999 V2000
    1.0553   -2.5934   -2.9019 C   0  0  0  0  0  0  0  0  0  0  0  0
   -0.0064   -2.0790   -2.5778 O   0  0  0  0  0  0  0  0  0  0  0  0
    1.0895   -4.0597   -3.2885 C   0  0  0  0  0  0  0  0  0  0  0  0
    1.7082   -4.6195   -2.5825 H   0  0  0  0  0  0  0  0  0  0  0  0
    0.0787   -4.4781   -3.2777 H   0  0  0  0  0  0  0  0  0  0  0  0
    1.5038   -4.1717   -4.2936 H   0  0  0  0  0  0  0  0  0  0  0  0
    2.2331   -1.8705   -2.8614 N   0  0  0  0  0  0  0  0  0  0  0  0
    2.3833   -0.4453   -2.5011 C   0  0  2  0  0  0  0  0  0  0  0  0
    1.9326   -0.1052   -1.0618 C   0  0  0  0  0  0  0  0  0  0  0  0
    2.7733    0.0727   -0.1930 O   0  0  0  0  0  0  0  0  0  0  0  0
    1.6847    0.4455   -3.5396 C   0  0  0  0  0  0  0  0  0  0  0  0
    3.0801   -2.3877   -3.0830 H   0  0  0  0  0  0  0  0  0  0  0  0
    3.4518   -0.2083   -2.5428 H   0  0  0  0  0  0  0  0  0  0  0  0
    0.6018    0.2907   -3.5372 H   0  0  0  0  0  0  0  0  0  0  0  0
    1.8809    1.5003   -3.3226 H   0  0  0  0  0  0  0  0  0  0  0  0
    2.0625    0.2246   -4.5426 H   0  0  0  0  0  0  0  0  0  0  0  0
    0.5893   -0.0717   -0.7392 N   0  0  0  0  0  0  0  0  0  0  0  0
    0.0464    0.0556    0.6242 C   0  0  2  0  0  0  0  0  0  0  0  0
   -0.5090   -1.2927    1.1377 C   0  0  0  0  0  0  0  0  0  0  0  0
   -0.8232   -1.4064    2.3159 O   0  0  0  0  0  0  0  0  0  0  0  0
   -1.0754    1.1211    0.6891 C   0  0  0  0  0  0  0  0  0  0  0  0
   -0.6817    2.5993    0.4344 C   0  0  0  0  0  0  0  0  0  0  0  0
   -1.9665    3.4386    0.4036 C   0  0  0  0  0  0  0  0  0  0  0  0
    0.0825    2.8662   -0.8700 C   0  0  0  0  0  0  0  0  0  0  0  0
   -0.0375   -0.3764   -1.4863 H   0  0  0  0  0  0  0  0  0  0  0  0
    0.8381    0.3581    1.3184 H   0  0  0  0  0  0  0  0  0  0  0  0
   -1.5331    1.0745    1.6834 H   0  0  0  0  0  0  0  0  0  0  0  0
   -1.8474    0.8359   -0.0339 H   0  0  0  0  0  0  0  0  0  0  0  0
   -0.0581    2.9391    1.2683 H   0  0  0  0  0  0  0  0  0  0  0  0
   -2.5997    3.1487   -0.4413 H   0  0  0  0  0  0  0  0  0  0  0  0
   -1.7273    4.5027    0.3104 H   0  0  0  0  0  0  0  0  0  0  0  0
   -2.5355    3.3001    1.3284 H   0  0  0  0  0  0  0  0  0  0  0  0
   -0.4063    2.3703   -1.7144 H   0  0  0  0  0  0  0  0  0  0  0  0
    0.1251    3.9399   -1.0778 H   0  0  0  0  0  0  0  0  0  0  0  0
    1.1126    2.5115   -0.7888 H   0  0  0  0  0  0  0  0  0  0  0  0
   -0.7466   -2.3413    0.2604 N   0  0  0  0  0  0  0  0  0  0  0  0
   -1.2547   -3.6905    0.5802 C   0  0  2  0  0  0  0  0  0  0  0  0
   -2.7299   -3.7460    1.0389 C   0  0  0  0  0  0  0  0  0  0  0  0
   -3.4715   -4.6025    0.5739 O   0  0  0  0  0  0  0  0  0  0  0  0
   -0.3436   -4.3990    1.5914 C   0  0  0  0  0  0  0  0  0  0  0  0
   -0.5131   -2.1571   -0.7172 H   0  0  0  0  0  0  0  0  0  0  0  0
   -1.2101   -4.2683   -0.3487 H   0  0  0  0  0  0  0  0  0  0  0  0
   -0.4107   -3.9341    2.5793 H   0  0  0  0  0  0  0  0  0  0  0  0
   -0.6385   -5.4485    1.6893 H   0  0  0  0  0  0  0  0  0  0  0  0
    0.6975   -4.3606    1.2577 H   0  0  0  0  0  0  0  0  0  0  0  0
   -3.2239   -2.8670    1.9815 N   0  0  0  0  0  0  0  0  0  0  0  0
   -4.5811   -2.9082    2.5058 C   0  0  0  0  0  0  0  0  0  0  0  0
   -2.5439   -2.2194    2.3899 H   0  0  0  0  0  0  0  0  0  0  0  0
   -4.7340   -2.0927    3.2192 H   0  0  0  0  0  0  0  0  0  0  0  0
   -5.3080   -2.7987    1.6943 H   0  0  0  0  0  0  0  0  0  0  0  0
   -4.7643   -3.8581    3.0186 H   0  0  0  0  0  0  0  0  0  0  0  0
  1  2  2  0  0  0  0
  1  3  1  0  0  0  0
  1  7  1  0  0  0  0
  3  4  1  0  0  0  0
  3  5  1  0  0  0  0
  3  6  1  0  0  0  0
  7  8  1  0  0  0  0
  7 12  1  0  0  0  0
  8  9  1  0  0  0  0
  8 11  1  0  0  0  0
  8 13  1  0  0  0  0
  9 10  2  0  0  0  0
  9 17  1  0  0  0  0
 11 14  1  0  0  0  0
 11 15  1  0  0  0  0
 11 16  1  0  0  0  0
 17 18  1  0  0  0  0
 17 25  1  0  0  0  0
 18 19  1  0  0  0  0
 18 21  1  0  0  0  0
 18 26  1  0  0  0  0
 19 20  2  0  0  0  0
 19 36  1  0  0  0  0
 21 22  1  0  0  0  0
 21 27  1  0  0  0  0
 21 28  1  0  0  0  0
 22 23  1  0  0  0  0
 22 24  1  0  0  0  0
 22 29  1  0  0  0  0
 23 30  1  0  0  0  0
 23 31  1  0  0  0  0
 23 32  1  0  0  0  0
 24 33  1  0  0  0  0
 24 34  1  0  0  0  0
 24 35  1  0  0  0  0
 36 37  1  0  0  0  0
 36 41  1  0  0  0  0
 37 38  1  0  0  0  0
 37 40  1  0  0  0  0
 37 42  1  0  0  0  0
 38 39  2  0  0  0  0
 38 46  1  0  0  0  0
 40 43  1  0  0  0  0
 40 44  1  0  0  0  0
 40 45  1  0  0  0  0
 46 47  1  0  0  0  0
 46 48  1  0  0  0  0
 47 49  1  0  0  0  0
 47 50  1  0  0  0  0
 47 51  1  0  0  0  0
M  END
$$$$

  -OEChem-05262216553D

 51 50  0     1  0  0  0  0  0999 V2000
    1.1110   -2.6941   -2.9103 C   0  0  0  0  0  0  0  0  0  0  0  0
    0.0401   -2.2465   -2.5258 O   0  0  0  0  0  0  0  0  0  0  0  0
    1.2207   -4.1570   -3.2963 C   0  0  0  0  0  0  0  0  0  0  0  0
    1.9382   -4.6637   -2.6460 H   0  0  0  0  0  0  0  0  0  0  0  0
    0.2484   -4.6485   -3.1962 H   0  0  0  0  0  0  0  0  0  0  0  0
    1.5532   -4.2466   -4.3334 H   0  0  0  0  0  0  0  0  0  0  0  0
    2.2347   -1.8903   -2.9367 N   0  0  0  0  0  0  0  0  0  0  0  0
    2.2924   -0.4552   -2.5926 C   0  0  2  0  0  0  0  0  0  0  0  0
    1.8666   -0.1355   -1.1405 C   0  0  0  0  0  0  0  0  0  0  0  0
    2.7266    0.0244   -0.2871 O   0  0  0  0  0  0  0  0  0  0  0  0
    1.4974    0.3697   -3.6161 C   0  0  0  0  0  0  0  0  0  0  0  0
    3.1050   -2.3464   -3.1984 H   0  0  0  0  0  0  0  0  0  0  0  0
    3.3388   -0.1412   -2.6715 H   0  0  0  0  0  0  0  0  0  0  0  0
    0.4307    0.1294   -3.5831 H   0  0  0  0  0  0  0  0  0  0  0  0
    1.6153    1.4381   -3.4101 H   0  0  0  0  0  0  0  0  0  0  0  0
    1.8639    0.1714   -4.6279 H   0  0  0  0  0  0  0  0  0  0  0  0
    0.5300   -0.0893   -0.7863 N   0  0  0  0  0  0  0  0  0  0  0  0
    0.0281    0.0542    0.5934 C   0  0  2  0  0  0  0  0  0  0  0  0
   -0.5236   -1.2862    1.1369 C   0  0  0  0  0  0  0  0  0  0  0  0
   -0.9927   -1.3416    2.2672 O   0  0  0  0  0  0  0  0  0  0  0  0
   -1.0737    1.1421    0.6756 C   0  0  0  0  0  0  0  0  0  0  0  0
   -0.6623    2.6116    0.3980 C   0  0  0  0  0  0  0  0  0  0  0  0
   -1.9341    3.4711    0.3911 C   0  0  0  0  0  0  0  0  0  0  0  0
    0.0749    2.8573   -0.9255 C   0  0  0  0  0  0  0  0  0  0  0  0
   -0.1176   -0.4111   -1.5075 H   0  0  0  0  0  0  0  0  0  0  0  0
    0.8414    0.3520    1.2636 H   0  0  0  0  0  0  0  0  0  0  0  0
   -1.5092    1.1164    1.6805 H   0  0  0  0  0  0  0  0  0  0  0  0
   -1.8676    0.8637   -0.0256 H   0  0  0  0  0  0  0  0  0  0  0  0
   -0.0135    2.9478    1.2139 H   0  0  0  0  0  0  0  0  0  0  0  0
   -2.5916    3.1846   -0.4359 H   0  0  0  0  0  0  0  0  0  0  0  0
   -1.6806    4.5303    0.2830 H   0  0  0  0  0  0  0  0  0  0  0  0
   -2.4830    3.3486    1.3301 H   0  0  0  0  0  0  0  0  0  0  0  0
   -0.4434    2.3665   -1.7550 H   0  0  0  0  0  0  0  0  0  0  0  0
    0.1324    3.9290   -1.1400 H   0  0  0  0  0  0  0  0  0  0  0  0
    1.0999    2.4840   -0.8670 H   0  0  0  0  0  0  0  0  0  0  0  0
   -0.5066   -2.4271    0.3487 N   0  0  0  0  0  0  0  0  0  0  0  0
   -0.9070   -3.7972    0.7255 C   0  0  2  0  0  0  0  0  0  0  0  0
   -2.4188   -3.9980    0.9780 C   0  0  0  0  0  0  0  0  0  0  0  0
   -2.9764   -4.9892    0.5233 O   0  0  0  0  0  0  0  0  0  0  0  0
   -0.0826   -4.3007    1.9177 C   0  0  0  0  0  0  0  0  0  0  0  0
   -0.2029   -2.2835   -0.6162 H   0  0  0  0  0  0  0  0  0  0  0  0
   -0.6601   -4.4381   -0.1269 H   0  0  0  0  0  0  0  0  0  0  0  0
   -0.3506   -3.7707    2.8363 H   0  0  0  0  0  0  0  0  0  0  0  0
   -0.2650   -5.3683    2.0751 H   0  0  0  0  0  0  0  0  0  0  0  0
    0.9854   -4.1552    1.7304 H   0  0  0  0  0  0  0  0  0  0  0  0
   -3.1475   -3.1015    1.7335 N   0  0  0  0  0  0  0  0  0  0  0  0
   -4.5468   -3.2829    2.0915 C   0  0  0  0  0  0  0  0  0  0  0  0
   -2.6109   -2.3455    2.1678 H   0  0  0  0  0  0  0  0  0  0  0  0
   -4.6670   -4.1667    2.7261 H   0  0  0  0  0  0  0  0  0  0  0  0
   -4.9109   -2.4086    2.6393 H   0  0  0  0  0  0  0  0  0  0  0  0
   -5.1601   -3.4066    1.1929 H   0  0  0  0  0  0  0  0  0  0  0  0
  1  2  2  0  0  0  0
  1  3  1  0  0  0  0
  1  7  1  0  0  0  0
  3  4  1  0  0  0  0
  3  5  1  0  0  0  0
  3  6  1  0  0  0  0
  7  8  1  0  0  0  0
  7 12  1  0  0  0  0
  8  9  1  0  0  0  0
  8 11  1  0  0  0  0
  8 13  1  0  0  0  0
  9 10  2  0  0  0  0
  9 17  1  0  0  0  0
 11 14  1  0  0  0  0
 11 15  1  0  0  0  0
 11 16  1  0  0  0  0
 17 18  1  0  0  0  0
 17 25  1  0  0  0  0
 18 19  1  0  0  0  0
 18 21  1  0  0  0  0
 18 26  1  0  0  0  0
 19 20  2  0  0  0  0
 19 36  1  0  0  0  0
 21 22  1  0  0  0  0
 21 27  1  0  0  0  0
 21 28  1  0  0  0  0
 22 23  1  0  0  0  0
 22 24  1  0  0  0  0
 22 29  1  0  0  0  0
 23 30  1  0  0  0  0
 23 31  1  0  0  0  0
 23 32  1  0  0  0  0
 24 33  1  0  0  0  0
 24 34  1  0  0  0  0
 24 35  1  0  0  0  0
 36 37  1  0  0  0  0
 36 41  1  0  0  0  0
 37 38  1  0  0  0  0
 37 40  1  0  0  0  0
 37 42  1  0  0  0  0
 38 39  2  0  0  0  0
 38 46  1  0  0  0  0
 40 43  1  0  0  0  0
 40 44  1  0  0  0  0
 40 45  1  0  0  0  0
 46 47  1  0  0  0  0
 46 48  1  0  0  0  0
 47 49  1  0  0  0  0
 47 50  1  0  0  0  0
 47 51  1  0  0  0  0
M  END
$$$$

  -OEChem-05262216553D

 51 50  0     1  0  0  0  0  0999 V2000
    1.1607   -2.7617   -2.8706 C   0  0  0  0  0  0  0  0  0  0  0  0
    0.0899   -2.3589   -2.4415 O   0  0  0  0  0  0  0  0  0  0  0  0
    1.3318   -4.2288   -3.2145 C   0  0  0  0  0  0  0  0  0  0  0  0
    2.0763   -4.6834   -2.5562 H   0  0  0  0  0  0  0  0  0  0  0  0
    0.3829   -4.7591   -3.0904 H   0  0  0  0  0  0  0  0  0  0  0  0
    1.6589   -4.3348   -4.2517 H   0  0  0  0  0  0  0  0  0  0  0  0
    2.2350   -1.8990   -2.9711 N   0  0  0  0  0  0  0  0  0  0  0  0
    2.2225   -0.4558   -2.6597 C   0  0  2  0  0  0  0  0  0  0  0  0
    1.8296   -0.1302   -1.1987 C   0  0  0  0  0  0  0  0  0  0  0  0
    2.7130    0.0437   -0.3721 O   0  0  0  0  0  0  0  0  0  0  0  0
    1.3496    0.2991   -3.6740 C   0  0  0  0  0  0  0  0  0  0  0  0
    3.1168   -2.3110   -3.2654 H   0  0  0  0  0  0  0  0  0  0  0  0
    3.2458   -0.0851   -2.7820 H   0  0  0  0  0  0  0  0  0  0  0  0
    0.3004   -0.0021   -3.6032 H   0  0  0  0  0  0  0  0  0  0  0  0
    1.4109    1.3772   -3.4948 H   0  0  0  0  0  0  0  0  0  0  0  0
    1.6968    0.0995   -4.6924 H   0  0  0  0  0  0  0  0  0  0  0  0
    0.5026   -0.0956   -0.8031 N   0  0  0  0  0  0  0  0  0  0  0  0
    0.0509    0.0363    0.5962 C   0  0  2  0  0  0  0  0  0  0  0  0
   -0.4726   -1.3154    1.1470 C   0  0  0  0  0  0  0  0  0  0  0  0
   -1.1029   -1.3585    2.1970 O   0  0  0  0  0  0  0  0  0  0  0  0
   -1.0463    1.1268    0.7214 C   0  0  0  0  0  0  0  0  0  0  0  0
   -0.6456    2.5984    0.4390 C   0  0  0  0  0  0  0  0  0  0  0  0
   -1.9194    3.4543    0.4817 C   0  0  0  0  0  0  0  0  0  0  0  0
    0.0420    2.8543   -0.9094 C   0  0  0  0  0  0  0  0  0  0  0  0
   -0.1589   -0.4620   -1.4900 H   0  0  0  0  0  0  0  0  0  0  0  0
    0.8862    0.3313    1.2396 H   0  0  0  0  0  0  0  0  0  0  0  0
   -1.4462    1.1009    1.7407 H   0  0  0  0  0  0  0  0  0  0  0  0
   -1.8650    0.8513    0.0482 H   0  0  0  0  0  0  0  0  0  0  0  0
    0.0313    2.9305    1.2336 H   0  0  0  0  0  0  0  0  0  0  0  0
   -2.6030    3.1741   -0.3261 H   0  0  0  0  0  0  0  0  0  0  0  0
   -1.6728    4.5155    0.3767 H   0  0  0  0  0  0  0  0  0  0  0  0
   -2.4373    3.3204    1.4368 H   0  0  0  0  0  0  0  0  0  0  0  0
   -0.5039    2.3655   -1.7222 H   0  0  0  0  0  0  0  0  0  0  0  0
    0.0861    3.9274   -1.1202 H   0  0  0  0  0  0  0  0  0  0  0  0
    1.0703    2.4859   -0.8910 H   0  0  0  0  0  0  0  0  0  0  0  0
   -0.1956   -2.4947    0.4733 N   0  0  0  0  0  0  0  0  0  0  0  0
   -0.5538   -3.8720    0.8679 C   0  0  2  0  0  0  0  0  0  0  0  0
   -2.0673   -4.1852    0.8541 C   0  0  0  0  0  0  0  0  0  0  0  0
   -2.4679   -5.1948    0.2882 O   0  0  0  0  0  0  0  0  0  0  0  0
    0.0672   -4.2382    2.2227 C   0  0  0  0  0  0  0  0  0  0  0  0
    0.1626   -2.3661   -0.4742 H   0  0  0  0  0  0  0  0  0  0  0  0
   -0.1040   -4.5362    0.1231 H   0  0  0  0  0  0  0  0  0  0  0  0
   -0.4025   -3.6815    3.0386 H   0  0  0  0  0  0  0  0  0  0  0  0
   -0.0667   -5.3065    2.4192 H   0  0  0  0  0  0  0  0  0  0  0  0
    1.1387   -4.0168    2.2217 H   0  0  0  0  0  0  0  0  0  0  0  0
   -2.9745   -3.3645    1.4932 N   0  0  0  0  0  0  0  0  0  0  0  0
   -4.4078   -3.6123    1.5500 C   0  0  0  0  0  0  0  0  0  0  0  0
   -2.5825   -2.5469    1.9688 H   0  0  0  0  0  0  0  0  0  0  0  0
   -4.6111   -4.5890    2.0012 H   0  0  0  0  0  0  0  0  0  0  0  0
   -4.8988   -2.8439    2.1547 H   0  0  0  0  0  0  0  0  0  0  0  0
   -4.8391   -3.5909    0.5440 H   0  0  0  0  0  0  0  0  0  0  0  0
  1  2  2  0  0  0  0
  1  3  1  0  0  0  0
  1  7  1  0  0  0  0
  3  4  1  0  0  0  0
  3  5  1  0  0  0  0
  3  6  1  0  0  0  0
  7  8  1  0  0  0  0
  7 12  1  0  0  0  0
  8  9  1  0  0  0  0
  8 11  1  0  0  0  0
  8 13  1  0  0  0  0
  9 10  2  0  0  0  0
  9 17  1  0  0  0  0
 11 14  1  0  0  0  0
 11 15  1  0  0  0  0
 11 16  1  0  0  0  0
 17 18  1  0  0  0  0
 17 25  1  0  0  0  0
 18 19  1  0  0  0  0
 18 21  1  0  0  0  0
 18 26  1  0  0  0  0
 19 20  2  0  0  0  0
 19 36  1  0  0  0  0
 21 22  1  0  0  0  0
 21 27  1  0  0  0  0
 21 28  1  0  0  0  0
 22 23  1  0  0  0  0
 22 24  1  0  0  0  0
 22 29  1  0  0  0  0
 23 30  1  0  0  0  0
 23 31  1  0  0  0  0
 23 32  1  0  0  0  0
 24 33  1  0  0  0  0
 24 34  1  0  0  0  0
 24 35  1  0  0  0  0
 36 37  1  0  0  0  0
 36 41  1  0  0  0  0
 37 38  1  0  0  0  0
 37 40  1  0  0  0  0
 37 42  1  0  0  0  0
 38 39  2  0  0  0  0
 38 46  1  0  0  0  0
 40 43  1  0  0  0  0
 40 44  1  0  0  0  0
 40 45  1  0  0  0  0
 46 47  1  0  0  0  0
 46 48  1  0  0  0  0
 47 49  1  0  0  0  0
 47 50  1  0  0  0  0
 47 51  1  0  0  0  0
M  END
$$$$

  -OEChem-05262216553D

 51 50  0     1  0  0  0  0  0999 V2000
    1.9069   -2.9070   -2.8125 C   0  0  0  0  0  0  0  0  0  0  0  0
    0.8442   -2.9536   -2.2103 O   0  0  0  0  0  0  0  0  0  0  0  0
    2.6988   -4.1781   -3.0524 C   0  0  0  0  0  0  0  0  0  0  0  0
    3.6532   -4.1285   -2.5223 H   0  0  0  0  0  0  0  0  0  0  0  0
    2.1394   -5.0457   -2.6905 H   0  0  0  0  0  0  0  0  0  0  0  0
    2.8891   -4.3046   -4.1209 H   0  0  0  0  0  0  0  0  0  0  0  0
    2.4123   -1.6917   -3.2328 N   0  0  0  0  0  0  0  0  0  0  0  0
    1.8028   -0.3851   -2.9261 C   0  0  2  0  0  0  0  0  0  0  0  0
    1.5689   -0.1798   -1.4095 C   0  0  0  0  0  0  0  0  0  0  0  0
    2.5378   -0.1499   -0.6637 O   0  0  0  0  0  0  0  0  0  0  0  0
    0.5334   -0.1931   -3.7719 C   0  0  0  0  0  0  0  0  0  0  0  0
    3.3643   -1.7015   -3.5883 H   0  0  0  0  0  0  0  0  0  0  0  0
    2.5102    0.3951   -3.2248 H   0  0  0  0  0  0  0  0  0  0  0  0
   -0.2327   -0.9306   -3.5132 H   0  0  0  0  0  0  0  0  0  0  0  0
    0.1206    0.8086   -3.6158 H   0  0  0  0  0  0  0  0  0  0  0  0
    0.7698   -0.3040   -4.8347 H   0  0  0  0  0  0  0  0  0  0  0  0
    0.2945   -0.0790   -0.8738 N   0  0  0  0  0  0  0  0  0  0  0  0
   -0.0019   -0.0217    0.5710 C   0  0  2  0  0  0  0  0  0  0  0  0
   -0.5746   -1.3732    1.0754 C   0  0  0  0  0  0  0  0  0  0  0  0
   -1.3414   -1.4123    2.0309 O   0  0  0  0  0  0  0  0  0  0  0  0
   -0.9636    1.1557    0.8918 C   0  0  0  0  0  0  0  0  0  0  0  0
   -0.4408    2.6006    0.6768 C   0  0  0  0  0  0  0  0  0  0  0  0
   -1.6065    3.5708    0.9157 C   0  0  0  0  0  0  0  0  0  0  0  0
    0.1370    2.9024   -0.7128 C   0  0  0  0  0  0  0  0  0  0  0  0
   -0.4751   -0.2577   -1.5137 H   0  0  0  0  0  0  0  0  0  0  0  0
    0.9177    0.1489    1.1398 H   0  0  0  0  0  0  0  0  0  0  0  0
   -1.2580    1.0854    1.9444 H   0  0  0  0  0  0  0  0  0  0  0  0
   -1.8705    1.0168    0.2938 H   0  0  0  0  0  0  0  0  0  0  0  0
    0.3404    2.7979    1.4189 H   0  0  0  0  0  0  0  0  0  0  0  0
   -2.3904    3.4285    0.1650 H   0  0  0  0  0  0  0  0  0  0  0  0
   -1.2597    4.6076    0.8637 H   0  0  0  0  0  0  0  0  0  0  0  0
   -2.0413    3.4092    1.9072 H   0  0  0  0  0  0  0  0  0  0  0  0
   -0.5307    2.5369   -1.4989 H   0  0  0  0  0  0  0  0  0  0  0  0
    0.2698    3.9805   -0.8470 H   0  0  0  0  0  0  0  0  0  0  0  0
    1.1197    2.4395   -0.8273 H   0  0  0  0  0  0  0  0  0  0  0  0
   -0.2027   -2.5603    0.4642 N   0  0  0  0  0  0  0  0  0  0  0  0
   -0.5511   -3.9395    0.8641 C   0  0  2  0  0  0  0  0  0  0  0  0
   -2.0425   -4.3239    0.7233 C   0  0  0  0  0  0  0  0  0  0  0  0
   -2.3439   -5.4186    0.2634 O   0  0  0  0  0  0  0  0  0  0  0  0
   -0.0453   -4.2408    2.2811 C   0  0  0  0  0  0  0  0  0  0  0  0
    0.3497   -2.4625   -0.3925 H   0  0  0  0  0  0  0  0  0  0  0  0
   -0.0089   -4.6032    0.1827 H   0  0  0  0  0  0  0  0  0  0  0  0
   -0.6116   -3.6810    3.0311 H   0  0  0  0  0  0  0  0  0  0  0  0
   -0.1541   -5.3080    2.4982 H   0  0  0  0  0  0  0  0  0  0  0  0
    1.0121   -3.9746    2.3713 H   0  0  0  0  0  0  0  0  0  0  0  0
   -3.0463   -3.4851    1.1648 N   0  0  0  0  0  0  0  0  0  0  0  0
   -4.4560   -3.8467    1.1988 C   0  0  0  0  0  0  0  0  0  0  0  0
   -2.7338   -2.6357    1.6428 H   0  0  0  0  0  0  0  0  0  0  0  0
   -5.0534   -2.9984    1.5464 H   0  0  0  0  0  0  0  0  0  0  0  0
   -4.8042   -4.1277    0.1994 H   0  0  0  0  0  0  0  0  0  0  0  0
   -4.6183   -4.6889    1.8793 H   0  0  0  0  0  0  0  0  0  0  0  0
  1  2  2  0  0  0  0
  1  3  1  0  0  0  0
  1  7  1  0  0  0  0
  3  4  1  0  0  0  0
  3  5  1  0  0  0  0
  3  6  1  0  0  0  0
  7  8  1  0  0  0  0
  7 12  1  0  0  0  0
  8  9  1  0  0  0  0
  8 11  1  0  0  0  0
  8 13  1  0  0  0  0
  9 10  2  0  0  0  0
  9 17  1  0  0  0  0
 11 14  1  0  0  0  0
 11 15  1  0  0  0  0
 11 16  1  0  0  0  0
 17 18  1  0  0  0  0
 17 25  1  0  0  0  0
 18 19  1  0  0  0  0
 18 21  1  0  0  0  0
 18 26  1  0  0  0  0
 19 20  2  0  0  0  0
 19 36  1  0  0  0  0
 21 22  1  0  0  0  0
 21 27  1  0  0  0  0
 21 28  1  0  0  0  0
 22 23  1  0  0  0  0
 22 24  1  0  0  0  0
 22 29  1  0  0  0  0
 23 30  1  0  0  0  0
 23 31  1  0  0  0  0
 23 32  1  0  0  0  0
 24 33  1  0  0  0  0
 24 34  1  0  0  0  0
 24 35  1  0  0  0  0
 36 37  1  0  0  0  0
 36 41  1  0  0  0  0
 37 38  1  0  0  0  0
 37 40  1  0  0  0  0
 37 42  1  0  0  0  0
 38 39  2  0  0  0  0
 38 46  1  0  0  0  0
 40 43  1  0  0  0  0
 40 44  1  0  0  0  0
 40 45  1  0  0  0  0
 46 47  1  0  0  0  0
 46 48  1  0  0  0  0
 47 49  1  0  0  0  0
 47 50  1  0  0  0  0
 47 51  1  0  0  0  0
M  END
$$$$

  -OEChem-05262216553D

 51 50  0     1  0  0  0  0  0999 V2000
    2.5407   -2.9467   -2.5292 C   0  0  0  0  0  0  0  0  0  0  0  0
    1.8586   -3.2330   -1.5550 O   0  0  0  0  0  0  0  0  0  0  0  0
    3.7981   -3.7415   -2.8255 C   0  0  0  0  0  0  0  0  0  0  0  0
    4.6740   -3.0916   -2.7562 H   0  0  0  0  0  0  0  0  0  0  0  0
    3.9078   -4.5578   -2.1060 H   0  0  0  0  0  0  0  0  0  0  0  0
    3.7443   -4.1646   -3.8315 H   0  0  0  0  0  0  0  0  0  0  0  0
    2.1988   -1.8890   -3.3525 N   0  0  0  0  0  0  0  0  0  0  0  0
    1.1091   -0.9376   -3.0669 C   0  0  2  0  0  0  0  0  0  0  0  0
    1.2252   -0.3072   -1.6561 C   0  0  0  0  0  0  0  0  0  0  0  0
    2.3260    0.0617   -1.2633 O   0  0  0  0  0  0  0  0  0  0  0  0
   -0.2403   -1.6211   -3.3336 C   0  0  0  0  0  0  0  0  0  0  0  0
    2.9001   -1.6138   -4.0334 H   0  0  0  0  0  0  0  0  0  0  0  0
    1.1931   -0.1040   -3.7704 H   0  0  0  0  0  0  0  0  0  0  0  0
   -0.3935   -2.4632   -2.6537 H   0  0  0  0  0  0  0  0  0  0  0  0
   -1.0654   -0.9141   -3.2044 H   0  0  0  0  0  0  0  0  0  0  0  0
   -0.2736   -2.0008   -4.3591 H   0  0  0  0  0  0  0  0  0  0  0  0
    0.1278   -0.1575   -0.8238 N   0  0  0  0  0  0  0  0  0  0  0  0
    0.2495    0.0705    0.6297 C   0  0  2  0  0  0  0  0  0  0  0  0
   -0.1133   -1.2453    1.3597 C   0  0  0  0  0  0  0  0  0  0  0  0
   -0.9579   -1.2681    2.2495 O   0  0  0  0  0  0  0  0  0  0  0  0
   -0.6398    1.2533    1.0978 C   0  0  0  0  0  0  0  0  0  0  0  0
   -0.2844    2.6762    0.5940 C   0  0  0  0  0  0  0  0  0  0  0  0
   -1.3840    3.6366    1.0684 C   0  0  0  0  0  0  0  0  0  0  0  0
   -0.1605    2.8270   -0.9284 C   0  0  0  0  0  0  0  0  0  0  0  0
   -0.7169   -0.6401   -1.1338 H   0  0  0  0  0  0  0  0  0  0  0  0
    1.2807    0.3104    0.9067 H   0  0  0  0  0  0  0  0  0  0  0  0
   -0.6139    1.2849    2.1924 H   0  0  0  0  0  0  0  0  0  0  0  0
   -1.6712    1.0274    0.8053 H   0  0  0  0  0  0  0  0  0  0  0  0
    0.6679    2.9763    1.0443 H   0  0  0  0  0  0  0  0  0  0  0  0
   -2.3444    3.3839    0.6075 H   0  0  0  0  0  0  0  0  0  0  0  0
   -1.1326    4.6688    0.8052 H   0  0  0  0  0  0  0  0  0  0  0  0
   -1.4960    3.5820    2.1559 H   0  0  0  0  0  0  0  0  0  0  0  0
   -1.0098    2.3579   -1.4346 H   0  0  0  0  0  0  0  0  0  0  0  0
   -0.1317    3.8844   -1.2092 H   0  0  0  0  0  0  0  0  0  0  0  0
    0.7668    2.3734   -1.2846 H   0  0  0  0  0  0  0  0  0  0  0  0
    0.4048   -2.4444    0.8940 N   0  0  0  0  0  0  0  0  0  0  0  0
   -0.3658   -3.6965    0.9519 C   0  0  2  0  0  0  0  0  0  0  0  0
   -1.8085   -3.5096    0.4104 C   0  0  0  0  0  0  0  0  0  0  0  0
   -1.9878   -2.9252   -0.6559 O   0  0  0  0  0  0  0  0  0  0  0  0
   -0.2987   -4.3044    2.3628 C   0  0  0  0  0  0  0  0  0  0  0  0
    1.0265   -2.3579    0.0848 H   0  0  0  0  0  0  0  0  0  0  0  0
    0.1167   -4.4092    0.2757 H   0  0  0  0  0  0  0  0  0  0  0  0
   -0.8322   -3.6846    3.0892 H   0  0  0  0  0  0  0  0  0  0  0  0
   -0.7415   -5.3050    2.3676 H   0  0  0  0  0  0  0  0  0  0  0  0
    0.7438   -4.3898    2.6842 H   0  0  0  0  0  0  0  0  0  0  0  0
   -2.9102   -3.9473    1.1238 N   0  0  0  0  0  0  0  0  0  0  0  0
   -4.2756   -3.6057    0.7460 C   0  0  0  0  0  0  0  0  0  0  0  0
   -2.7320   -4.2110    2.0884 H   0  0  0  0  0  0  0  0  0  0  0  0
   -4.9865   -4.0784    1.4304 H   0  0  0  0  0  0  0  0  0  0  0  0
   -4.4223   -2.5212    0.7854 H   0  0  0  0  0  0  0  0  0  0  0  0
   -4.4923   -3.9547   -0.2690 H   0  0  0  0  0  0  0  0  0  0  0  0
  1  2  2  0  0  0  0
  1  3  1  0  0  0  0
  1  7  1  0  0  0  0
  3  4  1  0  0  0  0
  3  5  1  0  0  0  0
  3  6  1  0  0  0  0
  7  8  1  0  0  0  0
  7 12  1  0  0  0  0
  8  9  1  0  0  0  0
  8 11  1  0  0  0  0
  8 13  1  0  0  0  0
  9 10  2  0  0  0  0
  9 17  1  0  0  0  0
 11 14  1  0  0  0  0
 11 15  1  0  0  0  0
 11 16  1  0  0  0  0
 17 18  1  0  0  0  0
 17 25  1  0  0  0  0
 18 19  1  0  0  0  0
 18 21  1  0  0  0  0
 18 26  1  0  0  0  0
 19 20  2  0  0  0  0
 19 36  1  0  0  0  0
 21 22  1  0  0  0  0
 21 27  1  0  0  0  0
 21 28  1  0  0  0  0
 22 23  1  0  0  0  0
 22 24  1  0  0  0  0
 22 29  1  0  0  0  0
 23 30  1  0  0  0  0
 23 31  1  0  0  0  0
 23 32  1  0  0  0  0
 24 33  1  0  0  0  0
 24 34  1  0  0  0  0
 24 35  1  0  0  0  0
 36 37  1  0  0  0  0
 36 41  1  0  0  0  0
 37 38  1  0  0  0  0
 37 40  1  0  0  0  0
 37 42  1  0  0  0  0
 38 39  2  0  0  0  0
 38 46  1  0  0  0  0
 40 43  1  0  0  0  0
 40 44  1  0  0  0  0
 40 45  1  0  0  0  0
 46 47  1  0  0  0  0
 46 48  1  0  0  0  0
 47 49  1  0  0  0  0
 47 50  1  0  0  0  0
 47 51  1  0  0  0  0
M  END
$$$$

  -OEChem-05262216553D

 51 50  0     1  0  0  0  0  0999 V2000
    2.5290   -2.9420   -2.4174 C   0  0  0  0  0  0  0  0  0  0  0  0
    1.8686   -3.1600   -1.4115 O   0  0  0  0  0  0  0  0  0  0  0  0
    3.7822   -3.7560   -2.6775 C   0  0  0  0  0  0  0  0  0  0  0  0
    4.6545   -3.0984   -2.7078 H   0  0  0  0  0  0  0  0  0  0  0  0
    3.9253   -4.4927   -1.8820 H   0  0  0  0  0  0  0  0  0  0  0  0
    3.6951   -4.2811   -3.6317 H   0  0  0  0  0  0  0  0  0  0  0  0
    2.1696   -1.9454   -3.3075 N   0  0  0  0  0  0  0  0  0  0  0  0
    1.0778   -0.9802   -3.0780 C   0  0  2  0  0  0  0  0  0  0  0  0
    1.1899   -0.2651   -1.7076 C   0  0  0  0  0  0  0  0  0  0  0  0
    2.2947    0.0907   -1.3129 O   0  0  0  0  0  0  0  0  0  0  0  0
   -0.2687   -1.6865   -3.2957 C   0  0  0  0  0  0  0  0  0  0  0  0
    2.8531   -1.7253   -4.0252 H   0  0  0  0  0  0  0  0  0  0  0  0
    1.1563   -0.1908   -3.8313 H   0  0  0  0  0  0  0  0  0  0  0  0
   -0.4247   -2.4668   -2.5462 H   0  0  0  0  0  0  0  0  0  0  0  0
   -1.0959   -0.9729   -3.2338 H   0  0  0  0  0  0  0  0  0  0  0  0
   -0.2945   -2.1533   -4.2849 H   0  0  0  0  0  0  0  0  0  0  0  0
    0.0831   -0.0427   -0.9042 N   0  0  0  0  0  0  0  0  0  0  0  0
    0.1980    0.1559    0.5524 C   0  0  2  0  0  0  0  0  0  0  0  0
   -0.2787   -1.1408    1.2463 C   0  0  0  0  0  0  0  0  0  0  0  0
   -1.2436   -1.1437    2.0040 O   0  0  0  0  0  0  0  0  0  0  0  0
   -0.6031    1.3944    1.0330 C   0  0  0  0  0  0  0  0  0  0  0  0
   -0.1304    2.7934    0.5591 C   0  0  0  0  0  0  0  0  0  0  0  0
   -1.1559    3.8309    1.0372 C   0  0  0  0  0  0  0  0  0  0  0  0
    0.0240    2.9596   -0.9591 C   0  0  0  0  0  0  0  0  0  0  0  0
   -0.7737   -0.4905   -1.2266 H   0  0  0  0  0  0  0  0  0  0  0  0
    1.2394    0.3095    0.8519 H   0  0  0  0  0  0  0  0  0  0  0  0
   -0.5907    1.4004    2.1284 H   0  0  0  0  0  0  0  0  0  0  0  0
   -1.6448    1.2567    0.7229 H   0  0  0  0  0  0  0  0  0  0  0  0
    0.8369    3.0092    1.0254 H   0  0  0  0  0  0  0  0  0  0  0  0
   -2.1269    3.6654    0.5592 H   0  0  0  0  0  0  0  0  0  0  0  0
   -0.8184    4.8440    0.7968 H   0  0  0  0  0  0  0  0  0  0  0  0
   -1.2871    3.7655    2.1220 H   0  0  0  0  0  0  0  0  0  0  0  0
   -0.8509    2.5636   -1.4837 H   0  0  0  0  0  0  0  0  0  0  0  0
    0.1354    4.0164   -1.2213 H   0  0  0  0  0  0  0  0  0  0  0  0
    0.9195    2.4441   -1.3117 H   0  0  0  0  0  0  0  0  0  0  0  0
    0.3809   -2.3291    0.9781 N   0  0  0  0  0  0  0  0  0  0  0  0
   -0.2276   -3.6498    1.2027 C   0  0  2  0  0  0  0  0  0  0  0  0
   -1.6403   -3.7794    0.5713 C   0  0  0  0  0  0  0  0  0  0  0  0
   -1.8576   -3.3366   -0.5532 O   0  0  0  0  0  0  0  0  0  0  0  0
   -0.1822   -3.9980    2.6996 C   0  0  0  0  0  0  0  0  0  0  0  0
    1.0563   -2.2834    0.2089 H   0  0  0  0  0  0  0  0  0  0  0  0
    0.3955   -4.3852    0.6843 H   0  0  0  0  0  0  0  0  0  0  0  0
   -0.8630   -3.3626    3.2739 H   0  0  0  0  0  0  0  0  0  0  0  0
   -0.4640   -5.0434    2.8573 H   0  0  0  0  0  0  0  0  0  0  0  0
    0.8314   -3.8552    3.0866 H   0  0  0  0  0  0  0  0  0  0  0  0
   -2.6690   -4.4224    1.2381 N   0  0  0  0  0  0  0  0  0  0  0  0
   -4.0347   -4.4673    0.7313 C   0  0  0  0  0  0  0  0  0  0  0  0
   -2.5097   -4.6234    2.2204 H   0  0  0  0  0  0  0  0  0  0  0  0
   -4.6726   -5.0367    1.4138 H   0  0  0  0  0  0  0  0  0  0  0  0
   -4.4414   -3.4547    0.6379 H   0  0  0  0  0  0  0  0  0  0  0  0
   -4.0632   -4.9513   -0.2506 H   0  0  0  0  0  0  0  0  0  0  0  0
  1  2  2  0  0  0  0
  1  3  1  0  0  0  0
  1  7  1  0  0  0  0
  3  4  1  0  0  0  0
  3  5  1  0  0  0  0
  3  6  1  0  0  0  0
  7  8  1  0  0  0  0
  7 12  1  0  0  0  0
  8  9  1  0  0  0  0
  8 11  1  0  0  0  0
  8 13  1  0  0  0  0
  9 10  2  0  0  0  0
  9 17  1  0  0  0  0
 11 14  1  0  0  0  0
 11 15  1  0  0  0  0
 11 16  1  0  0  0  0
 17 18  1  0  0  0  0
 17 25  1  0  0  0  0
 18 19  1  0  0  0  0
 18 21  1  0  0  0  0
 18 26  1  0  0  0  0
 19 20  2  0  0  0  0
 19 36  1  0  0  0  0
 21 22  1  0  0  0  0
 21 27  1  0  0  0  0
 21 28  1  0  0  0  0
 22 23  1  0  0  0  0
 22 24  1  0  0  0  0
 22 29  1  0  0  0  0
 23 30  1  0  0  0  0
 23 31  1  0  0  0  0
 23 32  1  0  0  0  0
 24 33  1  0  0  0  0
 24 34  1  0  0  0  0
 24 35  1  0  0  0  0
 36 37  1  0  0  0  0
 36 41  1  0  0  0  0
 37 38  1  0  0  0  0
 37 40  1  0  0  0  0
 37 42  1  0  0  0  0
 38 39  2  0  0  0  0
 38 46  1  0  0  0  0
 40 43  1  0  0  0  0
 40 44  1  0  0  0  0
 40 45  1  0  0  0  0
 46 47  1  0  0  0  0
 46 48  1  0  0  0  0
 47 49  1  0  0  0  0
 47 50  1  0  0  0  0
 47 51  1  0  0  0  0
M  END
$$$$

  -OEChem-05262216553D

 51 50  0     1  0  0  0  0  0999 V2000
    2.3821   -2.9710   -2.3461 C   0  0  0  0  0  0  0  0  0  0  0  0
    1.7757   -3.1054   -1.2929 O   0  0  0  0  0  0  0  0  0  0  0  0
    3.6054   -3.8246   -2.6211 C   0  0  0  0  0  0  0  0  0  0  0  0
    4.4947   -3.1924   -2.6835 H   0  0  0  0  0  0  0  0  0  0  0  0
    3.7458   -4.5522   -1.8163 H   0  0  0  0  0  0  0  0  0  0  0  0
    3.4813   -4.3640   -3.5632 H   0  0  0  0  0  0  0  0  0  0  0  0
    1.9816   -2.0292   -3.2777 N   0  0  0  0  0  0  0  0  0  0  0  0
    0.8957   -1.0538   -3.0617 C   0  0  2  0  0  0  0  0  0  0  0  0
    1.0588   -0.2549   -1.7431 C   0  0  0  0  0  0  0  0  0  0  0  0
    2.1738    0.1201   -1.4007 O   0  0  0  0  0  0  0  0  0  0  0  0
   -0.4541   -1.7846   -3.1639 C   0  0  0  0  0  0  0  0  0  0  0  0
    2.6194   -1.8701   -4.0519 H   0  0  0  0  0  0  0  0  0  0  0  0
    0.9345   -0.3162   -3.8689 H   0  0  0  0  0  0  0  0  0  0  0  0
   -0.5889   -2.4807   -2.3292 H   0  0  0  0  0  0  0  0  0  0  0  0
   -1.2812   -1.0684   -3.1583 H   0  0  0  0  0  0  0  0  0  0  0  0
   -0.5039   -2.3546   -4.0968 H   0  0  0  0  0  0  0  0  0  0  0  0
   -0.0153   -0.0414   -0.8945 N   0  0  0  0  0  0  0  0  0  0  0  0
    0.1541    0.1161    0.5592 C   0  0  2  0  0  0  0  0  0  0  0  0
   -0.3125   -1.1944    1.2353 C   0  0  0  0  0  0  0  0  0  0  0  0
   -1.4144   -1.2664    1.7684 O   0  0  0  0  0  0  0  0  0  0  0  0
   -0.6180    1.3424    1.1121 C   0  0  0  0  0  0  0  0  0  0  0  0
   -0.1564    2.7538    0.6663 C   0  0  0  0  0  0  0  0  0  0  0  0
   -1.1552    3.7794    1.2207 C   0  0  0  0  0  0  0  0  0  0  0  0
   -0.0694    2.9678   -0.8512 C   0  0  0  0  0  0  0  0  0  0  0  0
   -0.8947   -0.4476   -1.2020 H   0  0  0  0  0  0  0  0  0  0  0  0
    1.2078    0.2555    0.8222 H   0  0  0  0  0  0  0  0  0  0  0  0
   -0.5656    1.3077    2.2059 H   0  0  0  0  0  0  0  0  0  0  0  0
   -1.6714    1.2252    0.8357 H   0  0  0  0  0  0  0  0  0  0  0  0
    0.8315    2.9501    1.0964 H   0  0  0  0  0  0  0  0  0  0  0  0
   -2.1460    3.6350    0.7779 H   0  0  0  0  0  0  0  0  0  0  0  0
   -0.8214    4.7983    1.0007 H   0  0  0  0  0  0  0  0  0  0  0  0
   -1.2421    3.6784    2.3071 H   0  0  0  0  0  0  0  0  0  0  0  0
   -0.9709    2.5956   -1.3475 H   0  0  0  0  0  0  0  0  0  0  0  0
    0.0390    4.0319   -1.0838 H   0  0  0  0  0  0  0  0  0  0  0  0
    0.8041    2.4574   -1.2616 H   0  0  0  0  0  0  0  0  0  0  0  0
    0.4958   -2.3167    1.1689 N   0  0  0  0  0  0  0  0  0  0  0  0
    0.1837   -3.6757    1.6586 C   0  0  2  0  0  0  0  0  0  0  0  0
   -0.9701   -4.3964    0.9214 C   0  0  0  0  0  0  0  0  0  0  0  0
   -0.8696   -5.5867    0.6503 O   0  0  0  0  0  0  0  0  0  0  0  0
   -0.0518   -3.6791    3.1749 C   0  0  0  0  0  0  0  0  0  0  0  0
    1.2419   -2.2648    0.4677 H   0  0  0  0  0  0  0  0  0  0  0  0
    1.0770   -4.2811    1.4733 H   0  0  0  0  0  0  0  0  0  0  0  0
   -0.9896   -3.1788    3.4322 H   0  0  0  0  0  0  0  0  0  0  0  0
   -0.1030   -4.7088    3.5426 H   0  0  0  0  0  0  0  0  0  0  0  0
    0.7687   -3.1686    3.6876 H   0  0  0  0  0  0  0  0  0  0  0  0
   -2.1517   -3.7433    0.6275 N   0  0  0  0  0  0  0  0  0  0  0  0
   -3.3401   -4.4142    0.1197 C   0  0  0  0  0  0  0  0  0  0  0  0
   -2.2421   -2.8068    1.0296 H   0  0  0  0  0  0  0  0  0  0  0  0
   -4.1308   -3.6835   -0.0754 H   0  0  0  0  0  0  0  0  0  0  0  0
   -3.1149   -4.9371   -0.8155 H   0  0  0  0  0  0  0  0  0  0  0  0
   -3.7101   -5.1409    0.8505 H   0  0  0  0  0  0  0  0  0  0  0  0
  1  2  2  0  0  0  0
  1  3  1  0  0  0  0
  1  7  1  0  0  0  0
  3  4  1  0  0  0  0
  3  5  1  0  0  0  0
  3  6  1  0  0  0  0
  7  8  1  0  0  0  0
  7 12  1  0  0  0  0
  8  9  1  0  0  0  0
  8 11  1  0  0  0  0
  8 13  1  0  0  0  0
  9 10  2  0  0  0  0
  9 17  1  0  0  0  0
 11 14  1  0  0  0  0
 11 15  1  0  0  0  0
 11 16  1  0  0  0  0
 17 18  1  0  0  0  0
 17 25  1  0  0  0  0
 18 19  1  0  0  0  0
 18 21  1  0  0  0  0
 18 26  1  0  0  0  0
 19 20  2  0  0  0  0
 19 36  1  0  0  0  0
 21 22  1  0  0  0  0
 21 27  1  0  0  0  0
 21 28  1  0  0  0  0
 22 23  1  0  0  0  0
 22 24  1  0  0  0  0
 22 29  1  0  0  0  0
 23 30  1  0  0  0  0
 23 31  1  0  0  0  0
 23 32  1  0  0  0  0
 24 33  1  0  0  0  0
 24 34  1  0  0  0  0
 24 35  1  0  0  0  0
 36 37  1  0  0  0  0
 36 41  1  0  0  0  0
 37 38  1  0  0  0  0
 37 40  1  0  0  0  0
 37 42  1  0  0  0  0
 38 39  2  0  0  0  0
 38 46  1  0  0  0  0
 40 43  1  0  0  0  0
 40 44  1  0  0  0  0
 40 45  1  0  0  0  0
 46 47  1  0  0  0  0
 46 48  1  0  0  0  0
 47 49  1  0  0  0  0
 47 50  1  0  0  0  0
 47 51  1  0  0  0  0
M  END
$$$$

  -OEChem-05262216553D

 51 50  0     1  0  0  0  0  0999 V2000
    2.3459   -2.9739   -2.1515 C   0  0  0  0  0  0  0  0  0  0  0  0
    1.8051   -3.0009   -1.0554 O   0  0  0  0  0  0  0  0  0  0  0  0
    3.5855   -3.8134   -2.3949 C   0  0  0  0  0  0  0  0  0  0  0  0
    4.4384   -3.1647   -2.6089 H   0  0  0  0  0  0  0  0  0  0  0  0
    3.8137   -4.4142   -1.5099 H   0  0  0  0  0  0  0  0  0  0  0  0
    3.4234   -4.4847   -3.2417 H   0  0  0  0  0  0  0  0  0  0  0  0
    1.8614   -2.1625   -3.1628 N   0  0  0  0  0  0  0  0  0  0  0  0
    0.7544   -1.1992   -3.0044 C   0  0  2  0  0  0  0  0  0  0  0  0
    0.9465   -0.2539   -1.7901 C   0  0  0  0  0  0  0  0  0  0  0  0
    2.0621    0.1901   -1.5448 O   0  0  0  0  0  0  0  0  0  0  0  0
   -0.5725   -1.9762   -2.9628 C   0  0  0  0  0  0  0  0  0  0  0  0
    2.4451   -2.0878   -3.9905 H   0  0  0  0  0  0  0  0  0  0  0  0
    0.7343   -0.5547   -3.8883 H   0  0  0  0  0  0  0  0  0  0  0  0
   -0.6444   -2.5828   -2.0538 H   0  0  0  0  0  0  0  0  0  0  0  0
   -1.4222   -1.2877   -2.9918 H   0  0  0  0  0  0  0  0  0  0  0  0
   -0.6456   -2.6437   -3.8267 H   0  0  0  0  0  0  0  0  0  0  0  0
   -0.0899   -0.0062   -0.9046 N   0  0  0  0  0  0  0  0  0  0  0  0
    0.1620    0.1739    0.5334 C   0  0  2  0  0  0  0  0  0  0  0  0
   -0.2912   -1.1182    1.2480 C   0  0  0  0  0  0  0  0  0  0  0  0
   -1.4614   -1.2577    1.5875 O   0  0  0  0  0  0  0  0  0  0  0  0
   -0.5686    1.4073    1.1235 C   0  0  0  0  0  0  0  0  0  0  0  0
   -0.1298    2.8123    0.6384 C   0  0  0  0  0  0  0  0  0  0  0  0
   -1.0870    3.8480    1.2456 C   0  0  0  0  0  0  0  0  0  0  0  0
   -0.1403    3.0108   -0.8837 C   0  0  0  0  0  0  0  0  0  0  0  0
   -0.9690   -0.4584   -1.1412 H   0  0  0  0  0  0  0  0  0  0  0  0
    1.2303    0.3042    0.7360 H   0  0  0  0  0  0  0  0  0  0  0  0
   -0.4518    1.3779    2.2123 H   0  0  0  0  0  0  0  0  0  0  0  0
   -1.6376    1.2952    0.9116 H   0  0  0  0  0  0  0  0  0  0  0  0
    0.8845    3.0071    1.0026 H   0  0  0  0  0  0  0  0  0  0  0  0
   -2.1048    3.7051    0.8686 H   0  0  0  0  0  0  0  0  0  0  0  0
   -0.7632    4.8631    0.9948 H   0  0  0  0  0  0  0  0  0  0  0  0
   -1.1048    3.7578    2.3363 H   0  0  0  0  0  0  0  0  0  0  0  0
   -1.0734    2.6376   -1.3168 H   0  0  0  0  0  0  0  0  0  0  0  0
   -0.0432    4.0719   -1.1337 H   0  0  0  0  0  0  0  0  0  0  0  0
    0.7026    2.4923   -1.3447 H   0  0  0  0  0  0  0  0  0  0  0  0
    0.6136   -2.1503    1.4240 N   0  0  0  0  0  0  0  0  0  0  0  0
    0.3366   -3.4900    1.9835 C   0  0  2  0  0  0  0  0  0  0  0  0
   -0.5965   -4.3830    1.1307 C   0  0  0  0  0  0  0  0  0  0  0  0
   -0.3509   -5.5772    1.0108 O   0  0  0  0  0  0  0  0  0  0  0  0
   -0.1689   -3.3957    3.4293 C   0  0  0  0  0  0  0  0  0  0  0  0
    1.4130   -2.1059    0.7852 H   0  0  0  0  0  0  0  0  0  0  0  0
    1.2978   -4.0131    2.0166 H   0  0  0  0  0  0  0  0  0  0  0  0
   -1.1779   -2.9758    3.4710 H   0  0  0  0  0  0  0  0  0  0  0  0
   -0.1961   -4.3921    3.8814 H   0  0  0  0  0  0  0  0  0  0  0  0
    0.4977   -2.7639    4.0237 H   0  0  0  0  0  0  0  0  0  0  0  0
   -1.7527   -3.8795    0.5660 N   0  0  0  0  0  0  0  0  0  0  0  0
   -2.7574   -4.7045   -0.0893 C   0  0  0  0  0  0  0  0  0  0  0  0
   -1.9943   -2.9257    0.8457 H   0  0  0  0  0  0  0  0  0  0  0  0
   -3.5515   -4.0749   -0.5015 H   0  0  0  0  0  0  0  0  0  0  0  0
   -2.3096   -5.2754   -0.9093 H   0  0  0  0  0  0  0  0  0  0  0  0
   -3.2026   -5.4039    0.6258 H   0  0  0  0  0  0  0  0  0  0  0  0
  1  2  2  0  0  0  0
  1  3  1  0  0  0  0
  1  7  1  0  0  0  0
  3  4  1  0  0  0  0
  3  5  1  0  0  0  0
  3  6  1  0  0  0  0
  7  8  1  0  0  0  0
  7 12  1  0  0  0  0
  8  9  1  0  0  0  0
  8 11  1  0  0  0  0
  8 13  1  0  0  0  0
  9 10  2  0  0  0  0
  9 17  1  0  0  0  0
 11 14  1  0  0  0  0
 11 15  1  0  0  0  0
 11 16  1  0  0  0  0
 17 18  1  0  0  0  0
 17 25  1  0  0  0  0
 18 19  1  0  0  0  0
 18 21  1  0  0  0  0
 18 26  1  0  0  0  0
 19 20  2  0  0  0  0
 19 36  1  0  0  0  0
 21 22  1  0  0  0  0
 21 27  1  0  0  0  0
 21 28  1  0  0  0  0
 22 23  1  0  0  0  0
 22 24  1  0  0  0  0
 22 29  1  0  0  0  0
 23 30  1  0  0  0  0
 23 31  1  0  0  0  0
 23 32  1  0  0  0  0
 24 33  1  0  0  0  0
 24 34  1  0  0  0  0
 24 35  1  0  0  0  0
 36 37  1  0  0  0  0
 36 41  1  0  0  0  0
 37 38  1  0  0  0  0
 37 40  1  0  0  0  0
 37 42  1  0  0  0  0
 38 39  2  0  0  0  0
 38 46  1  0  0  0  0
 40 43  1  0  0  0  0
 40 44  1  0  0  0  0
 40 45  1  0  0  0  0
 46 47  1  0  0  0  0
 46 48  1  0  0  0  0
 47 49  1  0  0  0  0
 47 50  1  0  0  0  0
 47 51  1  0  0  0  0
M  END
$$$$

  -OEChem-05262216553D

 51 50  0     1  0  0  0  0  0999 V2000
    0.3551   -2.6950   -2.8145 C   0  0  0  0  0  0  0  0  0  0  0  0
   -0.5980   -1.9595   -2.6123 O   0  0  0  0  0  0  0  0  0  0  0  0
    0.1284   -4.1793   -3.0294 C   0  0  0  0  0  0  0  0  0  0  0  0
    0.7025   -4.7544   -2.2990 H   0  0  0  0  0  0  0  0  0  0  0  0
   -0.9321   -4.4198   -2.9119 H   0  0  0  0  0  0  0  0  0  0  0  0
    0.4443   -4.4638   -4.0360 H   0  0  0  0  0  0  0  0  0  0  0  0
    1.6455   -2.1979   -2.8194 N   0  0  0  0  0  0  0  0  0  0  0  0
    2.0547   -0.7965   -2.5906 C   0  0  2  0  0  0  0  0  0  0  0  0
    1.7804   -0.2888   -1.1577 C   0  0  0  0  0  0  0  0  0  0  0  0
    2.7218    0.0163   -0.4361 O   0  0  0  0  0  0  0  0  0  0  0  0
    1.4436    0.1453   -3.6385 C   0  0  0  0  0  0  0  0  0  0  0  0
    2.3837   -2.8879   -2.9293 H   0  0  0  0  0  0  0  0  0  0  0  0
    3.1407   -0.7540   -2.7245 H   0  0  0  0  0  0  0  0  0  0  0  0
    0.3605    0.2337   -3.5146 H   0  0  0  0  0  0  0  0  0  0  0  0
    1.8783    1.1450   -3.5420 H   0  0  0  0  0  0  0  0  0  0  0  0
    1.6488   -0.2250   -4.6474 H   0  0  0  0  0  0  0  0  0  0  0  0
    0.4999   -0.2555   -0.6404 N   0  0  0  0  0  0  0  0  0  0  0  0
    0.1743    0.0734    0.7531 C   0  0  2  0  0  0  0  0  0  0  0  0
   -0.1945   -1.2260    1.4941 C   0  0  0  0  0  0  0  0  0  0  0  0
   -1.2719   -1.7760    1.2975 O   0  0  0  0  0  0  0  0  0  0  0  0
   -0.9839    1.0952    0.8575 C   0  0  0  0  0  0  0  0  0  0  0  0
   -0.7257    2.5278    0.3232 C   0  0  0  0  0  0  0  0  0  0  0  0
   -2.0437    3.3112    0.3935 C   0  0  0  0  0  0  0  0  0  0  0  0
   -0.2114    2.6076   -1.1211 C   0  0  0  0  0  0  0  0  0  0  0  0
   -0.2276   -0.6830   -1.2240 H   0  0  0  0  0  0  0  0  0  0  0  0
    1.0377    0.5186    1.2568 H   0  0  0  0  0  0  0  0  0  0  0  0
   -1.2711    1.1767    1.9113 H   0  0  0  0  0  0  0  0  0  0  0  0
   -1.8443    0.6794    0.3210 H   0  0  0  0  0  0  0  0  0  0  0  0
    0.0095    3.0140    0.9732 H   0  0  0  0  0  0  0  0  0  0  0  0
   -2.7928    2.8708   -0.2728 H   0  0  0  0  0  0  0  0  0  0  0  0
   -1.8867    4.3538    0.0991 H   0  0  0  0  0  0  0  0  0  0  0  0
   -2.4391    3.3032    1.4142 H   0  0  0  0  0  0  0  0  0  0  0  0
   -0.8085    1.9694   -1.7803 H   0  0  0  0  0  0  0  0  0  0  0  0
   -0.2660    3.6353   -1.4934 H   0  0  0  0  0  0  0  0  0  0  0  0
    0.8356    2.2999   -1.1726 H   0  0  0  0  0  0  0  0  0  0  0  0
    0.7203   -1.7782    2.3756 N   0  0  0  0  0  0  0  0  0  0  0  0
    0.5820   -3.0446    3.1248 C   0  0  2  0  0  0  0  0  0  0  0  0
    0.5263   -4.3225    2.2526 C   0  0  0  0  0  0  0  0  0  0  0  0
    1.2238   -5.2839    2.5491 O   0  0  0  0  0  0  0  0  0  0  0  0
   -0.6153   -2.9885    4.0837 C   0  0  0  0  0  0  0  0  0  0  0  0
    1.6376   -1.3369    2.3757 H   0  0  0  0  0  0  0  0  0  0  0  0
    1.4793   -3.1434    3.7444 H   0  0  0  0  0  0  0  0  0  0  0  0
   -1.5630   -2.9911    3.5374 H   0  0  0  0  0  0  0  0  0  0  0  0
   -0.6036   -3.8582    4.7481 H   0  0  0  0  0  0  0  0  0  0  0  0
   -0.5692   -2.0836    4.6969 H   0  0  0  0  0  0  0  0  0  0  0  0
   -0.3148   -4.4191    1.1614 N   0  0  0  0  0  0  0  0  0  0  0  0
   -0.5365   -5.6463    0.4106 C   0  0  0  0  0  0  0  0  0  0  0  0
   -0.9326   -3.6170    1.0041 H   0  0  0  0  0  0  0  0  0  0  0  0
   -1.2247   -5.4592   -0.4192 H   0  0  0  0  0  0  0  0  0  0  0  0
    0.4068   -6.0219    0.0012 H   0  0  0  0  0  0  0  0  0  0  0  0
   -0.9721   -6.4159    1.0561 H   0  0  0  0  0  0  0  0  0  0  0  0
  1  2  2  0  0  0  0
  1  3  1  0  0  0  0
  1  7  1  0  0  0  0
  3  4  1  0  0  0  0
  3  5  1  0  0  0  0
  3  6  1  0  0  0  0
  7  8  1  0  0  0  0
  7 12  1  0  0  0  0
  8  9  1  0  0  0  0
  8 11  1  0  0  0  0
  8 13  1  0  0  0  0
  9 10  2  0  0  0  0
  9 17  1  0  0  0  0
 11 14  1  0  0  0  0
 11 15  1  0  0  0  0
 11 16  1  0  0  0  0
 17 18  1  0  0  0  0
 17 25  1  0  0  0  0
 18 19  1  0  0  0  0
 18 21  1  0  0  0  0
 18 26  1  0  0  0  0
 19 20  2  0  0  0  0
 19 36  1  0  0  0  0
 21 22  1  0  0  0  0
 21 27  1  0  0  0  0
 21 28  1  0  0  0  0
 22 23  1  0  0  0  0
 22 24  1  0  0  0  0
 22 29  1  0  0  0  0
 23 30  1  0  0  0  0
 23 31  1  0  0  0  0
 23 32  1  0  0  0  0
 24 33  1  0  0  0  0
 24 34  1  0  0  0  0
 24 35  1  0  0  0  0
 36 37  1  0  0  0  0
 36 41  1  0  0  0  0
 37 38  1  0  0  0  0
 37 40  1  0  0  0  0
 37 42  1  0  0  0  0
 38 39  2  0  0  0  0
 38 46  1  0  0  0  0
 40 43  1  0  0  0  0
 40 44  1  0  0  0  0
 40 45  1  0  0  0  0
 46 47  1  0  0  0  0
 46 48  1  0  0  0  0
 47 49  1  0  0  0  0
 47 50  1  0  0  0  0
 47 51  1  0  0  0  0
M  END
$$$$

  -OEChem-05262216553D

 51 50  0     1  0  0  0  0  0999 V2000
    0.2831   -2.6372   -2.8364 C   0  0  0  0  0  0  0  0  0  0  0  0
   -0.6163   -1.8201   -2.7234 O   0  0  0  0  0  0  0  0  0  0  0  0
   -0.0522   -4.1086   -2.9885 C   0  0  0  0  0  0  0  0  0  0  0  0
    0.2624   -4.4629   -3.9730 H   0  0  0  0  0  0  0  0  0  0  0  0
    0.4599   -4.6903   -2.2183 H   0  0  0  0  0  0  0  0  0  0  0  0
   -1.1301   -4.2629   -2.8853 H   0  0  0  0  0  0  0  0  0  0  0  0
    1.6084   -2.2461   -2.7826 N   0  0  0  0  0  0  0  0  0  0  0  0
    2.1205   -0.8760   -2.5671 C   0  0  2  0  0  0  0  0  0  0  0  0
    1.8296   -0.3110   -1.1587 C   0  0  0  0  0  0  0  0  0  0  0  0
    2.7610    0.0363   -0.4438 O   0  0  0  0  0  0  0  0  0  0  0  0
    1.6338    0.0877   -3.6592 C   0  0  0  0  0  0  0  0  0  0  0  0
    2.2910   -2.9980   -2.8224 H   0  0  0  0  0  0  0  0  0  0  0  0
    3.2109   -0.9263   -2.6545 H   0  0  0  0  0  0  0  0  0  0  0  0
    0.5601    0.2781   -3.5755 H   0  0  0  0  0  0  0  0  0  0  0  0
    2.1547    1.0461   -3.5714 H   0  0  0  0  0  0  0  0  0  0  0  0
    1.8375   -0.3272   -4.6509 H   0  0  0  0  0  0  0  0  0  0  0  0
    0.5440   -0.2688   -0.6561 N   0  0  0  0  0  0  0  0  0  0  0  0
    0.1957    0.0771    0.7278 C   0  0  2  0  0  0  0  0  0  0  0  0
   -0.1905   -1.2019    1.4968 C   0  0  0  0  0  0  0  0  0  0  0  0
   -1.1305   -1.8918    1.1190 O   0  0  0  0  0  0  0  0  0  0  0  0
   -0.9705    1.0912    0.7983 C   0  0  0  0  0  0  0  0  0  0  0  0
   -0.7154    2.5181    0.2470 C   0  0  0  0  0  0  0  0  0  0  0  0
   -2.0408    3.2913    0.2851 C   0  0  0  0  0  0  0  0  0  0  0  0
   -0.1764    2.5831   -1.1890 C   0  0  0  0  0  0  0  0  0  0  0  0
   -0.1796   -0.6913   -1.2477 H   0  0  0  0  0  0  0  0  0  0  0  0
    1.0530    0.5323    1.2331 H   0  0  0  0  0  0  0  0  0  0  0  0
   -1.2767    1.1864    1.8457 H   0  0  0  0  0  0  0  0  0  0  0  0
   -1.8180    0.6594    0.2535 H   0  0  0  0  0  0  0  0  0  0  0  0
    0.0045    3.0195    0.9025 H   0  0  0  0  0  0  0  0  0  0  0  0
   -2.7735    2.8380   -0.3904 H   0  0  0  0  0  0  0  0  0  0  0  0
   -1.8867    4.3319   -0.0175 H   0  0  0  0  0  0  0  0  0  0  0  0
   -2.4549    3.2909    1.2984 H   0  0  0  0  0  0  0  0  0  0  0  0
   -0.7570    1.9325   -1.8507 H   0  0  0  0  0  0  0  0  0  0  0  0
   -0.2324    3.6057   -1.5748 H   0  0  0  0  0  0  0  0  0  0  0  0
    0.8736    2.2828   -1.2183 H   0  0  0  0  0  0  0  0  0  0  0  0
    0.5382   -1.5707    2.6161 N   0  0  0  0  0  0  0  0  0  0  0  0
    0.3302   -2.7633    3.4644 C   0  0  2  0  0  0  0  0  0  0  0  0
    0.5792   -4.1214    2.7651 C   0  0  0  0  0  0  0  0  0  0  0  0
    1.3089   -4.9475    3.2976 O   0  0  0  0  0  0  0  0  0  0  0  0
   -1.0574   -2.7381    4.1200 C   0  0  0  0  0  0  0  0  0  0  0  0
    1.3725   -1.0164    2.7925 H   0  0  0  0  0  0  0  0  0  0  0  0
    1.0641   -2.7048    4.2749 H   0  0  0  0  0  0  0  0  0  0  0  0
   -1.8494   -2.8875    3.3805 H   0  0  0  0  0  0  0  0  0  0  0  0
   -1.1329   -3.5361    4.8654 H   0  0  0  0  0  0  0  0  0  0  0  0
   -1.2247   -1.7800    4.6210 H   0  0  0  0  0  0  0  0  0  0  0  0
   -0.0284   -4.4390    1.5664 N   0  0  0  0  0  0  0  0  0  0  0  0
    0.0860   -5.7322    0.9084 C   0  0  0  0  0  0  0  0  0  0  0  0
   -0.6515   -3.7255    1.1765 H   0  0  0  0  0  0  0  0  0  0  0  0
   -0.2530   -6.5323    1.5748 H   0  0  0  0  0  0  0  0  0  0  0  0
   -0.5310   -5.7507    0.0050 H   0  0  0  0  0  0  0  0  0  0  0  0
    1.1255   -5.9258    0.6245 H   0  0  0  0  0  0  0  0  0  0  0  0
  1  2  2  0  0  0  0
  1  3  1  0  0  0  0
  1  7  1  0  0  0  0
  3  4  1  0  0  0  0
  3  5  1  0  0  0  0
  3  6  1  0  0  0  0
  7  8  1  0  0  0  0
  7 12  1  0  0  0  0
  8  9  1  0  0  0  0
  8 11  1  0  0  0  0
  8 13  1  0  0  0  0
  9 10  2  0  0  0  0
  9 17  1  0  0  0  0
 11 14  1  0  0  0  0
 11 15  1  0  0  0  0
 11 16  1  0  0  0  0
 17 18  1  0  0  0  0
 17 25  1  0  0  0  0
 18 19  1  0  0  0  0
 18 21  1  0  0  0  0
 18 26  1  0  0  0  0
 19 20  2  0  0  0  0
 19 36  1  0  0  0  0
 21 22  1  0  0  0  0
 21 27  1  0  0  0  0
 21 28  1  0  0  0  0
 22 23  1  0  0  0  0
 22 24  1  0  0  0  0
 22 29  1  0  0  0  0
 23 30  1  0  0  0  0
 23 31  1  0  0  0  0
 23 32  1  0  0  0  0
 24 33  1  0  0  0  0
 24 34  1  0  0  0  0
 24 35  1  0  0  0  0
 36 37  1  0  0  0  0
 36 41  1  0  0  0  0
 37 38  1  0  0  0  0
 37 40  1  0  0  0  0
 37 42  1  0  0  0  0
 38 39  2  0  0  0  0
 38 46  1  0  0  0  0
 40 43  1  0  0  0  0
 40 44  1  0  0  0  0
 40 45  1  0  0  0  0
 46 47  1  0  0  0  0
 46 48  1  0  0  0  0
 47 49  1  0  0  0  0
 47 50  1  0  0  0  0
 47 51  1  0  0  0  0
M  END
$$$$

  -OEChem-05262216553D

 51 50  0     1  0  0  0  0  0999 V2000
    0.1389   -2.5142   -2.9297 C   0  0  0  0  0  0  0  0  0  0  0  0
   -0.6833   -1.6177   -2.8312 O   0  0  0  0  0  0  0  0  0  0  0  0
   -0.3290   -3.9428   -3.1328 C   0  0  0  0  0  0  0  0  0  0  0  0
   -0.1588   -4.5219   -2.2217 H   0  0  0  0  0  0  0  0  0  0  0  0
   -1.3975   -3.9603   -3.3665 H   0  0  0  0  0  0  0  0  0  0  0  0
    0.2175   -4.4042   -3.9589 H   0  0  0  0  0  0  0  0  0  0  0  0
    1.4916   -2.2537   -2.8043 N   0  0  0  0  0  0  0  0  0  0  0  0
    2.1244   -0.9421   -2.5444 C   0  0  2  0  0  0  0  0  0  0  0  0
    1.8395   -0.3668   -1.1387 C   0  0  0  0  0  0  0  0  0  0  0  0
    2.7726   -0.0040   -0.4337 O   0  0  0  0  0  0  0  0  0  0  0  0
    1.7733    0.0798   -3.6353 C   0  0  0  0  0  0  0  0  0  0  0  0
    2.1009   -3.0662   -2.8406 H   0  0  0  0  0  0  0  0  0  0  0  0
    3.2074   -1.0964   -2.5931 H   0  0  0  0  0  0  0  0  0  0  0  0
    0.7212    0.3741   -3.5828 H   0  0  0  0  0  0  0  0  0  0  0  0
    2.3829    0.9806   -3.5140 H   0  0  0  0  0  0  0  0  0  0  0  0
    1.9689   -0.3396   -4.6266 H   0  0  0  0  0  0  0  0  0  0  0  0
    0.5546   -0.3115   -0.6378 N   0  0  0  0  0  0  0  0  0  0  0  0
    0.1960    0.0563    0.7376 C   0  0  2  0  0  0  0  0  0  0  0  0
   -0.2026   -1.2003    1.5390 C   0  0  0  0  0  0  0  0  0  0  0  0
   -0.9349   -2.0472    1.0383 O   0  0  0  0  0  0  0  0  0  0  0  0
   -0.9715    1.0692    0.7807 C   0  0  0  0  0  0  0  0  0  0  0  0
   -0.7137    2.4867    0.2068 C   0  0  0  0  0  0  0  0  0  0  0  0
   -2.0405    3.2585    0.2202 C   0  0  0  0  0  0  0  0  0  0  0  0
   -0.1622    2.5268   -1.2252 C   0  0  0  0  0  0  0  0  0  0  0  0
   -0.1754   -0.7089   -1.2380 H   0  0  0  0  0  0  0  0  0  0  0  0
    1.0536    0.5183    1.2358 H   0  0  0  0  0  0  0  0  0  0  0  0
   -1.2857    1.1843    1.8237 H   0  0  0  0  0  0  0  0  0  0  0  0
   -1.8133    0.6249    0.2375 H   0  0  0  0  0  0  0  0  0  0  0  0
    0.0004    3.0005    0.8590 H   0  0  0  0  0  0  0  0  0  0  0  0
   -2.7668    2.7918   -0.4531 H   0  0  0  0  0  0  0  0  0  0  0  0
   -1.8855    4.2936   -0.1002 H   0  0  0  0  0  0  0  0  0  0  0  0
   -2.4634    3.2755    1.2295 H   0  0  0  0  0  0  0  0  0  0  0  0
   -0.7331    1.8604   -1.8795 H   0  0  0  0  0  0  0  0  0  0  0  0
   -0.2199    3.5415   -1.6311 H   0  0  0  0  0  0  0  0  0  0  0  0
    0.8896    2.2311   -1.2391 H   0  0  0  0  0  0  0  0  0  0  0  0
    0.2906   -1.3802    2.8219 N   0  0  0  0  0  0  0  0  0  0  0  0
    0.0167   -2.5102    3.7351 C   0  0  2  0  0  0  0  0  0  0  0  0
    0.5879   -3.8733    3.2781 C   0  0  0  0  0  0  0  0  0  0  0  0
    1.2435   -4.5445    4.0641 O   0  0  0  0  0  0  0  0  0  0  0  0
   -1.4836   -2.6239    4.0410 C   0  0  0  0  0  0  0  0  0  0  0  0
    0.9771   -0.6949    3.1266 H   0  0  0  0  0  0  0  0  0  0  0  0
    0.5154   -2.2777    4.6817 H   0  0  0  0  0  0  0  0  0  0  0  0
   -2.0439   -2.9612    3.1641 H   0  0  0  0  0  0  0  0  0  0  0  0
   -1.6474   -3.3462    4.8468 H   0  0  0  0  0  0  0  0  0  0  0  0
   -1.8820   -1.6556    4.3581 H   0  0  0  0  0  0  0  0  0  0  0  0
    0.3595   -4.3597    2.0065 N   0  0  0  0  0  0  0  0  0  0  0  0
    0.8358   -5.6482    1.5251 C   0  0  0  0  0  0  0  0  0  0  0  0
   -0.2139   -3.7695    1.3972 H   0  0  0  0  0  0  0  0  0  0  0  0
    0.4245   -6.4600    2.1337 H   0  0  0  0  0  0  0  0  0  0  0  0
    0.5242   -5.8015    0.4877 H   0  0  0  0  0  0  0  0  0  0  0  0
    1.9289   -5.6923    1.5694 H   0  0  0  0  0  0  0  0  0  0  0  0
  1  2  2  0  0  0  0
  1  3  1  0  0  0  0
  1  7  1  0  0  0  0
  3  4  1  0  0  0  0
  3  5  1  0  0  0  0
  3  6  1  0  0  0  0
  7  8  1  0  0  0  0
  7 12  1  0  0  0  0
  8  9  1  0  0  0  0
  8 11  1  0  0  0  0
  8 13  1  0  0  0  0
  9 10  2  0  0  0  0
  9 17  1  0  0  0  0
 11 14  1  0  0  0  0
 11 15  1  0  0  0  0
 11 16  1  0  0  0  0
 17 18  1  0  0  0  0
 17 25  1  0  0  0  0
 18 19  1  0  0  0  0
 18 21  1  0  0  0  0
 18 26  1  0  0  0  0
 19 20  2  0  0  0  0
 19 36  1  0  0  0  0
 21 22  1  0  0  0  0
 21 27  1  0  0  0  0
 21 28  1  0  0  0  0
 22 23  1  0  0  0  0
 22 24  1  0  0  0  0
 22 29  1  0  0  0  0
 23 30  1  0  0  0  0
 23 31  1  0  0  0  0
 23 32  1  0  0  0  0
 24 33  1  0  0  0  0
 24 34  1  0  0  0  0
 24 35  1  0  0  0  0
 36 37  1  0  0  0  0
 36 41  1  0  0  0  0
 37 38  1  0  0  0  0
 37 40  1  0  0  0  0
 37 42  1  0  0  0  0
 38 39  2  0  0  0  0
 38 46  1  0  0  0  0
 40 43  1  0  0  0  0
 40 44  1  0  0  0  0
 40 45  1  0  0  0  0
 46 47  1  0  0  0  0
 46 48  1  0  0  0  0
 47 49  1  0  0  0  0
 47 50  1  0  0  0  0
 47 51  1  0  0  0  0
M  END
$$$$

  -OEChem-05262216553D

 51 50  0     1  0  0  0  0  0999 V2000
    1.7179   -3.2971   -2.0617 C   0  0  0  0  0  0  0  0  0  0  0  0
    0.7030   -3.2942   -1.3843 O   0  0  0  0  0  0  0  0  0  0  0  0
    2.6943   -4.4521   -1.9472 C   0  0  0  0  0  0  0  0  0  0  0  0
    3.6562   -4.0898   -1.5764 H   0  0  0  0  0  0  0  0  0  0  0  0
    2.3110   -5.2042   -1.2522 H   0  0  0  0  0  0  0  0  0  0  0  0
    2.8391   -4.9179   -2.9248 H   0  0  0  0  0  0  0  0  0  0  0  0
    2.0105   -2.2413   -2.9049 N   0  0  0  0  0  0  0  0  0  0  0  0
    1.2769   -0.9630   -2.9118 C   0  0  2  0  0  0  0  0  0  0  0  0
    1.2885   -0.2815   -1.5224 C   0  0  0  0  0  0  0  0  0  0  0  0
    2.3689   -0.0116   -1.0100 O   0  0  0  0  0  0  0  0  0  0  0  0
   -0.1333   -1.1523   -3.4973 C   0  0  0  0  0  0  0  0  0  0  0  0
    2.9502   -2.2409   -3.2904 H   0  0  0  0  0  0  0  0  0  0  0  0
    1.8074   -0.2789   -3.5811 H   0  0  0  0  0  0  0  0  0  0  0  0
   -0.7549   -1.7798   -2.8518 H   0  0  0  0  0  0  0  0  0  0  0  0
   -0.6278   -0.1833   -3.6159 H   0  0  0  0  0  0  0  0  0  0  0  0
   -0.0709   -1.6285   -4.4803 H   0  0  0  0  0  0  0  0  0  0  0  0
    0.1180    0.0125   -0.8446 N   0  0  0  0  0  0  0  0  0  0  0  0
    0.0844    0.2677    0.6041 C   0  0  2  0  0  0  0  0  0  0  0  0
   -0.5069   -0.9600    1.3263 C   0  0  0  0  0  0  0  0  0  0  0  0
   -1.3857   -1.6155    0.7784 O   0  0  0  0  0  0  0  0  0  0  0  0
   -0.7602    1.5120    0.9633 C   0  0  0  0  0  0  0  0  0  0  0  0
   -0.2399    2.8929    0.4879 C   0  0  0  0  0  0  0  0  0  0  0  0
   -1.3030    3.9466    0.8260 C   0  0  0  0  0  0  0  0  0  0  0  0
    0.0642    3.0021   -1.0131 C   0  0  0  0  0  0  0  0  0  0  0  0
   -0.6989   -0.4768   -1.2090 H   0  0  0  0  0  0  0  0  0  0  0  0
    1.0954    0.4269    0.9914 H   0  0  0  0  0  0  0  0  0  0  0  0
   -0.8628    1.5531    2.0530 H   0  0  0  0  0  0  0  0  0  0  0  0
   -1.7642    1.3595    0.5514 H   0  0  0  0  0  0  0  0  0  0  0  0
    0.6781    3.1262    1.0377 H   0  0  0  0  0  0  0  0  0  0  0  0
   -2.2238    3.7634    0.2628 H   0  0  0  0  0  0  0  0  0  0  0  0
   -0.9397    4.9497    0.5813 H   0  0  0  0  0  0  0  0  0  0  0  0
   -1.5385    3.9227    1.8946 H   0  0  0  0  0  0  0  0  0  0  0  0
   -0.7595    2.5940   -1.6069 H   0  0  0  0  0  0  0  0  0  0  0  0
    0.2117    4.0479   -1.3000 H   0  0  0  0  0  0  0  0  0  0  0  0
    0.9843    2.4667   -1.2587 H   0  0  0  0  0  0  0  0  0  0  0  0
   -0.1092   -1.2674    2.6170 N   0  0  0  0  0  0  0  0  0  0  0  0
   -0.6014   -2.3820    3.4544 C   0  0  2  0  0  0  0  0  0  0  0  0
   -0.2268   -3.7976    2.9534 C   0  0  0  0  0  0  0  0  0  0  0  0
    0.1792   -4.6224    3.7627 O   0  0  0  0  0  0  0  0  0  0  0  0
   -2.1137   -2.2744    3.6974 C   0  0  0  0  0  0  0  0  0  0  0  0
    0.6674   -0.7220    2.9800 H   0  0  0  0  0  0  0  0  0  0  0  0
   -0.1181   -2.2742    4.4309 H   0  0  0  0  0  0  0  0  0  0  0  0
   -2.6795   -2.5041    2.7898 H   0  0  0  0  0  0  0  0  0  0  0  0
   -2.4183   -2.9827    4.4741 H   0  0  0  0  0  0  0  0  0  0  0  0
   -2.3766   -1.2649    4.0271 H   0  0  0  0  0  0  0  0  0  0  0  0
   -0.3371   -4.1576    1.6250 N   0  0  0  0  0  0  0  0  0  0  0  0
    0.0320   -5.4627    1.0974 C   0  0  0  0  0  0  0  0  0  0  0  0
   -0.6620   -3.4355    0.9748 H   0  0  0  0  0  0  0  0  0  0  0  0
   -0.4768   -6.2598    1.6492 H   0  0  0  0  0  0  0  0  0  0  0  0
   -0.2560   -5.5354    0.0442 H   0  0  0  0  0  0  0  0  0  0  0  0
    1.1135   -5.6125    1.1735 H   0  0  0  0  0  0  0  0  0  0  0  0
  1  2  2  0  0  0  0
  1  3  1  0  0  0  0
  1  7  1  0  0  0  0
  3  4  1  0  0  0  0
  3  5  1  0  0  0  0
  3  6  1  0  0  0  0
  7  8  1  0  0  0  0
  7 12  1  0  0  0  0
  8  9  1  0  0  0  0
  8 11  1  0  0  0  0
  8 13  1  0  0  0  0
  9 10  2  0  0  0  0
  9 17  1  0  0  0  0
 11 14  1  0  0  0  0
 11 15  1  0  0  0  0
 11 16  1  0  0  0  0
 17 18  1  0  0  0  0
 17 25  1  0  0  0  0
 18 19  1  0  0  0  0
 18 21  1  0  0  0  0
 18 26  1  0  0  0  0
 19 20  2  0  0  0  0
 19 36  1  0  0  0  0
 21 22  1  0  0  0  0
 21 27  1  0  0  0  0
 21 28  1  0  0  0  0
 22 23  1  0  0  0  0
 22 24  1  0  0  0  0
 22 29  1  0  0  0  0
 23 30  1  0  0  0  0
 23 31  1  0  0  0  0
 23 32  1  0  0  0  0
 24 33  1  0  0  0  0
 24 34  1  0  0  0  0
 24 35  1  0  0  0  0
 36 37  1  0  0  0  0
 36 41  1  0  0  0  0
 37 38  1  0  0  0  0
 37 40  1  0  0  0  0
 37 42  1  0  0  0  0
 38 39  2  0  0  0  0
 38 46  1  0  0  0  0
 40 43  1  0  0  0  0
 40 44  1  0  0  0  0
 40 45  1  0  0  0  0
 46 47  1  0  0  0  0
 46 48  1  0  0  0  0
 47 49  1  0  0  0  0
 47 50  1  0  0  0  0
 47 51  1  0  0  0  0
M  END
$$$$

  -OEChem-05262216553D

 51 50  0     1  0  0  0  0  0999 V2000
    1.9222   -3.2883   -1.9662 C   0  0  0  0  0  0  0  0  0  0  0  0
    0.9803   -3.3694   -1.1945 O   0  0  0  0  0  0  0  0  0  0  0  0
    3.0312   -4.3212   -1.9028 C   0  0  0  0  0  0  0  0  0  0  0  0
    3.9764   -3.8369   -1.6456 H   0  0  0  0  0  0  0  0  0  0  0  0
    2.8035   -5.0731   -1.1421 H   0  0  0  0  0  0  0  0  0  0  0  0
    3.1345   -4.8190   -2.8698 H   0  0  0  0  0  0  0  0  0  0  0  0
    2.0095   -2.2547   -2.8811 N   0  0  0  0  0  0  0  0  0  0  0  0
    1.1308   -1.0705   -2.8765 C   0  0  2  0  0  0  0  0  0  0  0  0
    1.1912   -0.3027   -1.5331 C   0  0  0  0  0  0  0  0  0  0  0  0
    2.2867   -0.0233   -1.0581 O   0  0  0  0  0  0  0  0  0  0  0  0
   -0.2961   -1.4626   -3.2990 C   0  0  0  0  0  0  0  0  0  0  0  0
    2.9053   -2.1672   -3.3513 H   0  0  0  0  0  0  0  0  0  0  0  0
    1.5062   -0.3751   -3.6332 H   0  0  0  0  0  0  0  0  0  0  0  0
   -0.7835   -2.0776   -2.5360 H   0  0  0  0  0  0  0  0  0  0  0  0
   -0.9041   -0.5673   -3.4608 H   0  0  0  0  0  0  0  0  0  0  0  0
   -0.2690   -2.0321   -4.2328 H   0  0  0  0  0  0  0  0  0  0  0  0
    0.0402    0.0714   -0.8608 N   0  0  0  0  0  0  0  0  0  0  0  0
    0.0312    0.3109    0.5914 C   0  0  2  0  0  0  0  0  0  0  0  0
   -0.6517   -0.8816    1.2971 C   0  0  0  0  0  0  0  0  0  0  0  0
   -1.3963   -1.6172    0.6580 O   0  0  0  0  0  0  0  0  0  0  0  0
   -0.7219    1.6118    0.9605 C   0  0  0  0  0  0  0  0  0  0  0  0
   -0.1074    2.9574    0.4955 C   0  0  0  0  0  0  0  0  0  0  0  0
   -1.0937    4.0808    0.8436 C   0  0  0  0  0  0  0  0  0  0  0  0
    0.1979    3.0573   -1.0057 C   0  0  0  0  0  0  0  0  0  0  0  0
   -0.7956   -0.3970   -1.2085 H   0  0  0  0  0  0  0  0  0  0  0  0
    1.0514    0.3864    0.9810 H   0  0  0  0  0  0  0  0  0  0  0  0
   -0.8220    1.6558    2.0499 H   0  0  0  0  0  0  0  0  0  0  0  0
   -1.7339    1.5340    0.5475 H   0  0  0  0  0  0  0  0  0  0  0  0
    0.8264    3.1220    1.0440 H   0  0  0  0  0  0  0  0  0  0  0  0
   -2.0239    3.9699    0.2771 H   0  0  0  0  0  0  0  0  0  0  0  0
   -0.6593    5.0580    0.6099 H   0  0  0  0  0  0  0  0  0  0  0  0
   -1.3325    4.0628    1.9115 H   0  0  0  0  0  0  0  0  0  0  0  0
   -0.6520    2.7059   -1.5987 H   0  0  0  0  0  0  0  0  0  0  0  0
    0.4106    4.0932   -1.2873 H   0  0  0  0  0  0  0  0  0  0  0  0
    1.0810    2.4661   -1.2581 H   0  0  0  0  0  0  0  0  0  0  0  0
   -0.5146   -1.0567    2.6647 N   0  0  0  0  0  0  0  0  0  0  0  0
   -1.0799   -2.1566    3.4753 C   0  0  2  0  0  0  0  0  0  0  0  0
   -0.5104   -3.5595    3.1548 C   0  0  0  0  0  0  0  0  0  0  0  0
   -0.1382   -4.2720    4.0787 O   0  0  0  0  0  0  0  0  0  0  0  0
   -2.6143   -2.1669    3.4242 C   0  0  0  0  0  0  0  0  0  0  0  0
    0.1608   -0.4486    3.1190 H   0  0  0  0  0  0  0  0  0  0  0  0
   -0.8033   -1.9518    4.5147 H   0  0  0  0  0  0  0  0  0  0  0  0
   -2.9780   -2.4997    2.4479 H   0  0  0  0  0  0  0  0  0  0  0  0
   -3.0078   -2.8510    4.1826 H   0  0  0  0  0  0  0  0  0  0  0  0
   -3.0093   -1.1662    3.6221 H   0  0  0  0  0  0  0  0  0  0  0  0
   -0.3997   -4.0231    1.8586 N   0  0  0  0  0  0  0  0  0  0  0  0
    0.1985   -5.2989    1.4946 C   0  0  0  0  0  0  0  0  0  0  0  0
   -0.6796   -3.3796    1.1123 H   0  0  0  0  0  0  0  0  0  0  0  0
   -0.2897   -6.1202    2.0290 H   0  0  0  0  0  0  0  0  0  0  0  0
    0.0854   -5.4728    0.4202 H   0  0  0  0  0  0  0  0  0  0  0  0
    1.2659   -5.3026    1.7366 H   0  0  0  0  0  0  0  0  0  0  0  0
  1  2  2  0  0  0  0
  1  3  1  0  0  0  0
  1  7  1  0  0  0  0
  3  4  1  0  0  0  0
  3  5  1  0  0  0  0
  3  6  1  0  0  0  0
  7  8  1  0  0  0  0
  7 12  1  0  0  0  0
  8  9  1  0  0  0  0
  8 11  1  0  0  0  0
  8 13  1  0  0  0  0
  9 10  2  0  0  0  0
  9 17  1  0  0  0  0
 11 14  1  0  0  0  0
 11 15  1  0  0  0  0
 11 16  1  0  0  0  0
 17 18  1  0  0  0  0
 17 25  1  0  0  0  0
 18 19  1  0  0  0  0
 18 21  1  0  0  0  0
 18 26  1  0  0  0  0
 19 20  2  0  0  0  0
 19 36  1  0  0  0  0
 21 22  1  0  0  0  0
 21 27  1  0  0  0  0
 21 28  1  0  0  0  0
 22 23  1  0  0  0  0
 22 24  1  0  0  0  0
 22 29  1  0  0  0  0
 23 30  1  0  0  0  0
 23 31  1  0  0  0  0
 23 32  1  0  0  0  0
 24 33  1  0  0  0  0
 24 34  1  0  0  0  0
 24 35  1  0  0  0  0
 36 37  1  0  0  0  0
 36 41  1  0  0  0  0
 37 38  1  0  0  0  0
 37 40  1  0  0  0  0
 37 42  1  0  0  0  0
 38 39  2  0  0  0  0
 38 46  1  0  0  0  0
 40 43  1  0  0  0  0
 40 44  1  0  0  0  0
 40 45  1  0  0  0  0
 46 47  1  0  0  0  0
 46 48  1  0  0  0  0
 47 49  1  0  0  0  0
 47 50  1  0  0  0  0
 47 51  1  0  0  0  0
M  END
$$$$

  -OEChem-05262216553D

 51 50  0     1  0  0  0  0  0999 V2000
    2.3681   -3.1950   -1.9023 C   0  0  0  0  0  0  0  0  0  0  0  0
    1.5196   -3.4647   -1.0683 O   0  0  0  0  0  0  0  0  0  0  0  0
    3.6865   -3.9453   -1.8866 C   0  0  0  0  0  0  0  0  0  0  0  0
    4.5102   -3.2472   -1.7178 H   0  0  0  0  0  0  0  0  0  0  0  0
    3.6872   -4.6893   -1.0848 H   0  0  0  0  0  0  0  0  0  0  0  0
    3.8377   -4.4555   -2.8408 H   0  0  0  0  0  0  0  0  0  0  0  0
    2.1647   -2.2059   -2.8485 N   0  0  0  0  0  0  0  0  0  0  0  0
    1.0626   -1.2258   -2.7992 C   0  0  2  0  0  0  0  0  0  0  0  0
    1.0940   -0.3672   -1.5104 C   0  0  0  0  0  0  0  0  0  0  0  0
    2.1753    0.0005   -1.0623 O   0  0  0  0  0  0  0  0  0  0  0  0
   -0.2907   -1.9189   -3.0361 C   0  0  0  0  0  0  0  0  0  0  0  0
    2.9948   -1.9383   -3.3683 H   0  0  0  0  0  0  0  0  0  0  0  0
    1.2082   -0.5261   -3.6274 H   0  0  0  0  0  0  0  0  0  0  0  0
   -0.5812   -2.5288   -2.1749 H   0  0  0  0  0  0  0  0  0  0  0  0
   -1.0744   -1.1757   -3.2105 H   0  0  0  0  0  0  0  0  0  0  0  0
   -0.2333   -2.5682   -3.9150 H   0  0  0  0  0  0  0  0  0  0  0  0
   -0.0692    0.0515   -0.8847 N   0  0  0  0  0  0  0  0  0  0  0  0
   -0.0777    0.2824    0.5706 C   0  0  2  0  0  0  0  0  0  0  0  0
   -0.4662   -1.0231    1.3062 C   0  0  0  0  0  0  0  0  0  0  0  0
   -0.9055   -1.9681    0.6613 O   0  0  0  0  0  0  0  0  0  0  0  0
   -1.0563    1.4213    0.9486 C   0  0  0  0  0  0  0  0  0  0  0  0
   -0.7073    2.8504    0.4573 C   0  0  0  0  0  0  0  0  0  0  0  0
   -1.8752    3.7802    0.8142 C   0  0  0  0  0  0  0  0  0  0  0  0
   -0.4411    2.9878   -1.0488 C   0  0  0  0  0  0  0  0  0  0  0  0
   -0.8909   -0.4405   -1.2287 H   0  0  0  0  0  0  0  0  0  0  0  0
    0.9178    0.5715    0.9230 H   0  0  0  0  0  0  0  0  0  0  0  0
   -1.1406    1.4645    2.0390 H   0  0  0  0  0  0  0  0  0  0  0  0
   -2.0442    1.1503    0.5599 H   0  0  0  0  0  0  0  0  0  0  0  0
    0.1885    3.1888    0.9891 H   0  0  0  0  0  0  0  0  0  0  0  0
   -2.7822    3.4898    0.2739 H   0  0  0  0  0  0  0  0  0  0  0  0
   -1.6335    4.8160    0.5551 H   0  0  0  0  0  0  0  0  0  0  0  0
   -2.0826    3.7388    1.8880 H   0  0  0  0  0  0  0  0  0  0  0  0
   -1.2349    2.5067   -1.6287 H   0  0  0  0  0  0  0  0  0  0  0  0
   -0.3959    4.0433   -1.3353 H   0  0  0  0  0  0  0  0  0  0  0  0
    0.5198    2.5373   -1.3124 H   0  0  0  0  0  0  0  0  0  0  0  0
   -0.5381   -1.0623    2.6898 N   0  0  0  0  0  0  0  0  0  0  0  0
   -0.9027   -2.2321    3.5179 C   0  0  2  0  0  0  0  0  0  0  0  0
    0.0660   -3.4345    3.4052 C   0  0  0  0  0  0  0  0  0  0  0  0
    0.5346   -3.9126    4.4307 O   0  0  0  0  0  0  0  0  0  0  0  0
   -2.3522   -2.6719    3.2673 C   0  0  0  0  0  0  0  0  0  0  0  0
   -0.1313   -0.2658    3.1715 H   0  0  0  0  0  0  0  0  0  0  0  0
   -0.8516   -1.9038    4.5611 H   0  0  0  0  0  0  0  0  0  0  0  0
   -2.4641   -3.1368    2.2835 H   0  0  0  0  0  0  0  0  0  0  0  0
   -2.6560   -3.4030    4.0229 H   0  0  0  0  0  0  0  0  0  0  0  0
   -3.0262   -1.8124    3.3262 H   0  0  0  0  0  0  0  0  0  0  0  0
    0.4241   -3.9735    2.1847 N   0  0  0  0  0  0  0  0  0  0  0  0
    1.3883   -5.0507    2.0174 C   0  0  0  0  0  0  0  0  0  0  0  0
    0.0627   -3.5034    1.3482 H   0  0  0  0  0  0  0  0  0  0  0  0
    1.1354   -5.8988    2.6620 H   0  0  0  0  0  0  0  0  0  0  0  0
    1.3872   -5.3960    0.9791 H   0  0  0  0  0  0  0  0  0  0  0  0
    2.3953   -4.7031    2.2677 H   0  0  0  0  0  0  0  0  0  0  0  0
  1  2  2  0  0  0  0
  1  3  1  0  0  0  0
  1  7  1  0  0  0  0
  3  4  1  0  0  0  0
  3  5  1  0  0  0  0
  3  6  1  0  0  0  0
  7  8  1  0  0  0  0
  7 12  1  0  0  0  0
  8  9  1  0  0  0  0
  8 11  1  0  0  0  0
  8 13  1  0  0  0  0
  9 10  2  0  0  0  0
  9 17  1  0  0  0  0
 11 14  1  0  0  0  0
 11 15  1  0  0  0  0
 11 16  1  0  0  0  0
 17 18  1  0  0  0  0
 17 25  1  0  0  0  0
 18 19  1  0  0  0  0
 18 21  1  0  0  0  0
 18 26  1  0  0  0  0
 19 20  2  0  0  0  0
 19 36  1  0  0  0  0
 21 22  1  0  0  0  0
 21 27  1  0  0  0  0
 21 28  1  0  0  0  0
 22 23  1  0  0  0  0
 22 24  1  0  0  0  0
 22 29  1  0  0  0  0
 23 30  1  0  0  0  0
 23 31  1  0  0  0  0
 23 32  1  0  0  0  0
 24 33  1  0  0  0  0
 24 34  1  0  0  0  0
 24 35  1  0  0  0  0
 36 37  1  0  0  0  0
 36 41  1  0  0  0  0
 37 38  1  0  0  0  0
 37 40  1  0  0  0  0
 37 42  1  0  0  0  0
 38 39  2  0  0  0  0
 38 46  1  0  0  0  0
 40 43  1  0  0  0  0
 40 44  1  0  0  0  0
 40 45  1  0  0  0  0
 46 47  1  0  0  0  0
 46 48  1  0  0  0  0
 47 49  1  0  0  0  0
 47 50  1  0  0  0  0
 47 51  1  0  0  0  0
M  END
$$$$

  -OEChem-05262216553D

 51 50  0     1  0  0  0  0  0999 V2000
    2.6244   -3.1045   -2.3167 C   0  0  0  0  0  0  0  0  0  0  0  0
    1.8385   -3.6450   -1.5567 O   0  0  0  0  0  0  0  0  0  0  0  0
    4.0252   -3.6694   -2.4601 C   0  0  0  0  0  0  0  0  0  0  0  0
    4.7608   -2.9222   -2.1520 H   0  0  0  0  0  0  0  0  0  0  0  0
    4.1402   -4.5562   -1.8303 H   0  0  0  0  0  0  0  0  0  0  0  0
    4.2111   -3.9495   -3.4997 H   0  0  0  0  0  0  0  0  0  0  0  0
    2.2774   -1.9829   -3.0487 N   0  0  0  0  0  0  0  0  0  0  0  0
    1.0786   -1.1590   -2.7991 C   0  0  2  0  0  0  0  0  0  0  0  0
    1.1095   -0.4563   -1.4192 C   0  0  0  0  0  0  0  0  0  0  0  0
    2.1865   -0.1442   -0.9213 O   0  0  0  0  0  0  0  0  0  0  0  0
   -0.2120   -1.9644   -3.0322 C   0  0  0  0  0  0  0  0  0  0  0  0
    3.0606   -1.5198   -3.4989 H   0  0  0  0  0  0  0  0  0  0  0  0
    1.0823   -0.3558   -3.5413 H   0  0  0  0  0  0  0  0  0  0  0  0
   -0.3992   -2.6608   -2.2085 H   0  0  0  0  0  0  0  0  0  0  0  0
   -1.0719   -1.2934   -3.1139 H   0  0  0  0  0  0  0  0  0  0  0  0
   -0.1368   -2.5382   -3.9610 H   0  0  0  0  0  0  0  0  0  0  0  0
   -0.0572   -0.0171   -0.8143 N   0  0  0  0  0  0  0  0  0  0  0  0
   -0.1054    0.2378    0.6370 C   0  0  2  0  0  0  0  0  0  0  0  0
   -0.5274   -1.0483    1.3969 C   0  0  0  0  0  0  0  0  0  0  0  0
   -0.6996   -2.0895    0.7750 O   0  0  0  0  0  0  0  0  0  0  0  0
   -1.0667    1.4156    0.9449 C   0  0  0  0  0  0  0  0  0  0  0  0
   -0.6585    2.8227    0.4322 C   0  0  0  0  0  0  0  0  0  0  0  0
   -1.8146    3.7912    0.7180 C   0  0  0  0  0  0  0  0  0  0  0  0
   -0.3327    2.9152   -1.0659 C   0  0  0  0  0  0  0  0  0  0  0  0
   -0.8894   -0.4548   -1.2001 H   0  0  0  0  0  0  0  0  0  0  0  0
    0.8842    0.5177    1.0129 H   0  0  0  0  0  0  0  0  0  0  0  0
   -1.1907    1.4987    2.0285 H   0  0  0  0  0  0  0  0  0  0  0  0
   -2.0463    1.1614    0.5256 H   0  0  0  0  0  0  0  0  0  0  0  0
    0.2251    3.1517    0.9898 H   0  0  0  0  0  0  0  0  0  0  0  0
   -2.7064    3.5096    0.1489 H   0  0  0  0  0  0  0  0  0  0  0  0
   -1.5357    4.8133    0.4431 H   0  0  0  0  0  0  0  0  0  0  0  0
   -2.0654    3.7841    1.7832 H   0  0  0  0  0  0  0  0  0  0  0  0
   -1.1170    2.4390   -1.6626 H   0  0  0  0  0  0  0  0  0  0  0  0
   -0.2493    3.9611   -1.3774 H   0  0  0  0  0  0  0  0  0  0  0  0
    0.6254    2.4348   -1.2819 H   0  0  0  0  0  0  0  0  0  0  0  0
   -0.9363   -0.9942    2.7213 N   0  0  0  0  0  0  0  0  0  0  0  0
   -1.4874   -2.1025    3.5315 C   0  0  2  0  0  0  0  0  0  0  0  0
   -0.5130   -3.2775    3.7866 C   0  0  0  0  0  0  0  0  0  0  0  0
   -0.2921   -3.6267    4.9392 O   0  0  0  0  0  0  0  0  0  0  0  0
   -2.8158   -2.6097    2.9524 C   0  0  0  0  0  0  0  0  0  0  0  0
   -0.7485   -0.1203    3.2034 H   0  0  0  0  0  0  0  0  0  0  0  0
   -1.7151   -1.6856    4.5180 H   0  0  0  0  0  0  0  0  0  0  0  0
   -2.6615   -3.1489    2.0133 H   0  0  0  0  0  0  0  0  0  0  0  0
   -3.2950   -3.2934    3.6602 H   0  0  0  0  0  0  0  0  0  0  0  0
   -3.4940   -1.7719    2.7665 H   0  0  0  0  0  0  0  0  0  0  0  0
    0.1127   -3.9391    2.7488 N   0  0  0  0  0  0  0  0  0  0  0  0
    1.0816   -5.0106    2.9271 C   0  0  0  0  0  0  0  0  0  0  0  0
   -0.0576   -3.5733    1.8068 H   0  0  0  0  0  0  0  0  0  0  0  0
    0.6391   -5.8379    3.4917 H   0  0  0  0  0  0  0  0  0  0  0  0
    1.4041   -5.3908    1.9528 H   0  0  0  0  0  0  0  0  0  0  0  0
    1.9615   -4.6446    3.4661 H   0  0  0  0  0  0  0  0  0  0  0  0
  1  2  2  0  0  0  0
  1  3  1  0  0  0  0
  1  7  1  0  0  0  0
  3  4  1  0  0  0  0
  3  5  1  0  0  0  0
  3  6  1  0  0  0  0
  7  8  1  0  0  0  0
  7 12  1  0  0  0  0
  8  9  1  0  0  0  0
  8 11  1  0  0  0  0
  8 13  1  0  0  0  0
  9 10  2  0  0  0  0
  9 17  1  0  0  0  0
 11 14  1  0  0  0  0
 11 15  1  0  0  0  0
 11 16  1  0  0  0  0
 17 18  1  0  0  0  0
 17 25  1  0  0  0  0
 18 19  1  0  0  0  0
 18 21  1  0  0  0  0
 18 26  1  0  0  0  0
 19 20  2  0  0  0  0
 19 36  1  0  0  0  0
 21 22  1  0  0  0  0
 21 27  1  0  0  0  0
 21 28  1  0  0  0  0
 22 23  1  0  0  0  0
 22 24  1  0  0  0  0
 22 29  1  0  0  0  0
 23 30  1  0  0  0  0
 23 31  1  0  0  0  0
 23 32  1  0  0  0  0
 24 33  1  0  0  0  0
 24 34  1  0  0  0  0
 24 35  1  0  0  0  0
 36 37  1  0  0  0  0
 36 41  1  0  0  0  0
 37 38  1  0  0  0  0
 37 40  1  0  0  0  0
 37 42  1  0  0  0  0
 38 39  2  0  0  0  0
 38 46  1  0  0  0  0
 40 43  1  0  0  0  0
 40 44  1  0  0  0  0
 40 45  1  0  0  0  0
 46 47  1  0  0  0  0
 46 48  1  0  0  0  0
 47 49  1  0  0  0  0
 47 50  1  0  0  0  0
 47 51  1  0  0  0  0
M  END
$$$$

  -OEChem-05262216553D

 51 50  0     1  0  0  0  0  0999 V2000
    2.7157   -3.0516   -2.6117 C   0  0  0  0  0  0  0  0  0  0  0  0
    1.9507   -3.7776   -2.0002 O   0  0  0  0  0  0  0  0  0  0  0  0
    4.1563   -3.4881   -2.8020 C   0  0  0  0  0  0  0  0  0  0  0  0
    4.8292   -2.7576   -2.3462 H   0  0  0  0  0  0  0  0  0  0  0  0
    4.3217   -4.4603   -2.3292 H   0  0  0  0  0  0  0  0  0  0  0  0
    4.3836   -3.5714   -3.8673 H   0  0  0  0  0  0  0  0  0  0  0  0
    2.3098   -1.8423   -3.1475 N   0  0  0  0  0  0  0  0  0  0  0  0
    1.0626   -1.1341   -2.7953 C   0  0  2  0  0  0  0  0  0  0  0  0
    1.0860   -0.5429   -1.3642 C   0  0  0  0  0  0  0  0  0  0  0  0
    2.1581   -0.2963   -0.8214 O   0  0  0  0  0  0  0  0  0  0  0  0
   -0.1882   -1.9936   -3.0537 C   0  0  0  0  0  0  0  0  0  0  0  0
    3.0763   -1.2605   -3.4719 H   0  0  0  0  0  0  0  0  0  0  0  0
    0.9910   -0.2761   -3.4698 H   0  0  0  0  0  0  0  0  0  0  0  0
   -0.3305   -2.7340   -2.2599 H   0  0  0  0  0  0  0  0  0  0  0  0
   -1.0821   -1.3648   -3.0952 H   0  0  0  0  0  0  0  0  0  0  0  0
   -0.0954   -2.5208   -4.0081 H   0  0  0  0  0  0  0  0  0  0  0  0
   -0.0807   -0.0740   -0.7807 N   0  0  0  0  0  0  0  0  0  0  0  0
   -0.1700    0.1981    0.6663 C   0  0  2  0  0  0  0  0  0  0  0  0
   -0.6415   -1.0703    1.4302 C   0  0  0  0  0  0  0  0  0  0  0  0
   -0.5130   -2.1722    0.9136 O   0  0  0  0  0  0  0  0  0  0  0  0
   -1.0896    1.4199    0.9310 C   0  0  0  0  0  0  0  0  0  0  0  0
   -0.6007    2.8013    0.4207 C   0  0  0  0  0  0  0  0  0  0  0  0
   -1.7218    3.8225    0.6573 C   0  0  0  0  0  0  0  0  0  0  0  0
   -0.2164    2.8675   -1.0648 C   0  0  0  0  0  0  0  0  0  0  0  0
   -0.9233   -0.4386   -1.2150 H   0  0  0  0  0  0  0  0  0  0  0  0
    0.8178    0.4489    1.0679 H   0  0  0  0  0  0  0  0  0  0  0  0
   -1.2372    1.5253    2.0095 H   0  0  0  0  0  0  0  0  0  0  0  0
   -2.0673    1.2050    0.4860 H   0  0  0  0  0  0  0  0  0  0  0  0
    0.2759    3.0957    1.0079 H   0  0  0  0  0  0  0  0  0  0  0  0
   -2.6007    3.5809    0.0510 H   0  0  0  0  0  0  0  0  0  0  0  0
   -1.3845    4.8298    0.3930 H   0  0  0  0  0  0  0  0  0  0  0  0
   -2.0176    3.8298    1.7111 H   0  0  0  0  0  0  0  0  0  0  0  0
   -1.0005    2.4276   -1.6886 H   0  0  0  0  0  0  0  0  0  0  0  0
   -0.0698    3.9064   -1.3763 H   0  0  0  0  0  0  0  0  0  0  0  0
    0.7241    2.3396   -1.2442 H   0  0  0  0  0  0  0  0  0  0  0  0
   -1.3714   -0.9773    2.6072 N   0  0  0  0  0  0  0  0  0  0  0  0
   -2.0197   -2.0797    3.3513 C   0  0  2  0  0  0  0  0  0  0  0  0
   -1.0526   -3.1140    3.9743 C   0  0  0  0  0  0  0  0  0  0  0  0
   -1.1753   -3.4061    5.1569 O   0  0  0  0  0  0  0  0  0  0  0  0
   -3.0865   -2.7783    2.4957 C   0  0  0  0  0  0  0  0  0  0  0  0
   -1.4373   -0.0485    3.0119 H   0  0  0  0  0  0  0  0  0  0  0  0
   -2.5452   -1.6205    4.1949 H   0  0  0  0  0  0  0  0  0  0  0  0
   -2.6315   -3.3614    1.6896 H   0  0  0  0  0  0  0  0  0  0  0  0
   -3.6746   -3.4611    3.1168 H   0  0  0  0  0  0  0  0  0  0  0  0
   -3.7640   -2.0412    2.0548 H   0  0  0  0  0  0  0  0  0  0  0  0
   -0.0656   -3.7238    3.2267 N   0  0  0  0  0  0  0  0  0  0  0  0
    0.8483   -4.7326    3.7420 C   0  0  0  0  0  0  0  0  0  0  0  0
   -0.0141   -3.4573    2.2386 H   0  0  0  0  0  0  0  0  0  0  0  0
    0.2957   -5.6242    4.0557 H   0  0  0  0  0  0  0  0  0  0  0  0
    1.5639   -5.0226    2.9665 H   0  0  0  0  0  0  0  0  0  0  0  0
    1.4067   -4.3426    4.5991 H   0  0  0  0  0  0  0  0  0  0  0  0
  1  2  2  0  0  0  0
  1  3  1  0  0  0  0
  1  7  1  0  0  0  0
  3  4  1  0  0  0  0
  3  5  1  0  0  0  0
  3  6  1  0  0  0  0
  7  8  1  0  0  0  0
  7 12  1  0  0  0  0
  8  9  1  0  0  0  0
  8 11  1  0  0  0  0
  8 13  1  0  0  0  0
  9 10  2  0  0  0  0
  9 17  1  0  0  0  0
 11 14  1  0  0  0  0
 11 15  1  0  0  0  0
 11 16  1  0  0  0  0
 17 18  1  0  0  0  0
 17 25  1  0  0  0  0
 18 19  1  0  0  0  0
 18 21  1  0  0  0  0
 18 26  1  0  0  0  0
 19 20  2  0  0  0  0
 19 36  1  0  0  0  0
 21 22  1  0  0  0  0
 21 27  1  0  0  0  0
 21 28  1  0  0  0  0
 22 23  1  0  0  0  0
 22 24  1  0  0  0  0
 22 29  1  0  0  0  0
 23 30  1  0  0  0  0
 23 31  1  0  0  0  0
 23 32  1  0  0  0  0
 24 33  1  0  0  0  0
 24 34  1  0  0  0  0
 24 35  1  0  0  0  0
 36 37  1  0  0  0  0
 36 41  1  0  0  0  0
 37 38  1  0  0  0  0
 37 40  1  0  0  0  0
 37 42  1  0  0  0  0
 38 39  2  0  0  0  0
 38 46  1  0  0  0  0
 40 43  1  0  0  0  0
 40 44  1  0  0  0  0
 40 45  1  0  0  0  0
 46 47  1  0  0  0  0
 46 48  1  0  0  0  0
 47 49  1  0  0  0  0
 47 50  1  0  0  0  0
 47 51  1  0  0  0  0
M  END
$$$$

  -OEChem-05262216553D

 51 50  0     1  0  0  0  0  0999 V2000
    0.4649   -2.7451   -2.2285 C   0  0  0  0  0  0  0  0  0  0  0  0
   -0.5167   -2.0360   -2.4014 O   0  0  0  0  0  0  0  0  0  0  0  0
    0.2736   -4.2083   -1.8785 C   0  0  0  0  0  0  0  0  0  0  0  0
    0.7574   -4.4277   -0.9232 H   0  0  0  0  0  0  0  0  0  0  0  0
   -0.7917   -4.4399   -1.7931 H   0  0  0  0  0  0  0  0  0  0  0  0
    0.7105   -4.8399   -2.6557 H   0  0  0  0  0  0  0  0  0  0  0  0
    1.7464   -2.2277   -2.2950 N   0  0  0  0  0  0  0  0  0  0  0  0
    2.1162   -0.8014   -2.4173 C   0  0  2  0  0  0  0  0  0  0  0  0
    1.7116    0.0327   -1.1829 C   0  0  0  0  0  0  0  0  0  0  0  0
    2.5771    0.5491   -0.4881 O   0  0  0  0  0  0  0  0  0  0  0  0
    1.5790   -0.1807   -3.7150 C   0  0  0  0  0  0  0  0  0  0  0  0
    2.4781   -2.8630   -1.9880 H   0  0  0  0  0  0  0  0  0  0  0  0
    3.2087   -0.7555   -2.4743 H   0  0  0  0  0  0  0  0  0  0  0  0
    0.4904   -0.0794   -3.6911 H   0  0  0  0  0  0  0  0  0  0  0  0
    2.0086    0.8157   -3.8582 H   0  0  0  0  0  0  0  0  0  0  0  0
    1.8515   -0.8020   -4.5732 H   0  0  0  0  0  0  0  0  0  0  0  0
    0.3848    0.1038   -0.8049 N   0  0  0  0  0  0  0  0  0  0  0  0
   -0.0249    0.2625    0.5969 C   0  0  2  0  0  0  0  0  0  0  0  0
   -0.2039   -1.1384    1.2452 C   0  0  0  0  0  0  0  0  0  0  0  0
    0.6179   -2.0241    1.0306 O   0  0  0  0  0  0  0  0  0  0  0  0
   -1.2980    1.1423    0.7000 C   0  0  0  0  0  0  0  0  0  0  0  0
   -1.1666    2.6319    0.2855 C   0  0  0  0  0  0  0  0  0  0  0  0
   -2.5641    3.2657    0.3242 C   0  0  0  0  0  0  0  0  0  0  0  0
   -0.5778    2.8836   -1.1104 C   0  0  0  0  0  0  0  0  0  0  0  0
   -0.2194   -0.4821   -1.3885 H   0  0  0  0  0  0  0  0  0  0  0  0
    0.7617    0.7697    1.1658 H   0  0  0  0  0  0  0  0  0  0  0  0
   -1.6439    1.1375    1.7381 H   0  0  0  0  0  0  0  0  0  0  0  0
   -2.0775    0.6759    0.0873 H   0  0  0  0  0  0  0  0  0  0  0  0
   -0.5278    3.1393    1.0166 H   0  0  0  0  0  0  0  0  0  0  0  0
   -3.2194    2.8047   -0.4218 H   0  0  0  0  0  0  0  0  0  0  0  0
   -2.5042    4.3389    0.1172 H   0  0  0  0  0  0  0  0  0  0  0  0
   -3.0166    3.1356    1.3122 H   0  0  0  0  0  0  0  0  0  0  0  0
   -1.0776    2.2624   -1.8602 H   0  0  0  0  0  0  0  0  0  0  0  0
   -0.6997    3.9333   -1.3949 H   0  0  0  0  0  0  0  0  0  0  0  0
    0.4937    2.6668   -1.1213 H   0  0  0  0  0  0  0  0  0  0  0  0
   -1.3043   -1.4342    2.0377 N   0  0  0  0  0  0  0  0  0  0  0  0
   -1.6709   -2.7444    2.6178 C   0  0  2  0  0  0  0  0  0  0  0  0
   -0.7326   -3.2550    3.7362 C   0  0  0  0  0  0  0  0  0  0  0  0
   -1.2182   -3.7125    4.7623 O   0  0  0  0  0  0  0  0  0  0  0  0
   -1.8431   -3.8080    1.5240 C   0  0  0  0  0  0  0  0  0  0  0  0
   -1.9608   -0.6719    2.1748 H   0  0  0  0  0  0  0  0  0  0  0  0
   -2.6509   -2.6139    3.0883 H   0  0  0  0  0  0  0  0  0  0  0  0
   -0.8787   -4.0980    1.0982 H   0  0  0  0  0  0  0  0  0  0  0  0
   -2.3106   -4.7038    1.9446 H   0  0  0  0  0  0  0  0  0  0  0  0
   -2.4811   -3.4294    0.7196 H   0  0  0  0  0  0  0  0  0  0  0  0
    0.6405   -3.2128    3.6011 N   0  0  0  0  0  0  0  0  0  0  0  0
    1.5783   -3.6812    4.6118 C   0  0  0  0  0  0  0  0  0  0  0  0
    0.9953   -2.8591    2.7085 H   0  0  0  0  0  0  0  0  0  0  0  0
    1.4438   -4.7526    4.7920 H   0  0  0  0  0  0  0  0  0  0  0  0
    2.6068   -3.5117    4.2787 H   0  0  0  0  0  0  0  0  0  0  0  0
    1.4269   -3.1431    5.5533 H   0  0  0  0  0  0  0  0  0  0  0  0
  1  2  2  0  0  0  0
  1  3  1  0  0  0  0
  1  7  1  0  0  0  0
  3  4  1  0  0  0  0
  3  5  1  0  0  0  0
  3  6  1  0  0  0  0
  7  8  1  0  0  0  0
  7 12  1  0  0  0  0
  8  9  1  0  0  0  0
  8 11  1  0  0  0  0
  8 13  1  0  0  0  0
  9 10  2  0  0  0  0
  9 17  1  0  0  0  0
 11 14  1  0  0  0  0
 11 15  1  0  0  0  0
 11 16  1  0  0  0  0
 17 18  1  0  0  0  0
 17 25  1  0  0  0  0
 18 19  1  0  0  0  0
 18 21  1  0  0  0  0
 18 26  1  0  0  0  0
 19 20  2  0  0  0  0
 19 36  1  0  0  0  0
 21 22  1  0  0  0  0
 21 27  1  0  0  0  0
 21 28  1  0  0  0  0
 22 23  1  0  0  0  0
 22 24  1  0  0  0  0
 22 29  1  0  0  0  0
 23 30  1  0  0  0  0
 23 31  1  0  0  0  0
 23 32  1  0  0  0  0
 24 33  1  0  0  0  0
 24 34  1  0  0  0  0
 24 35  1  0  0  0  0
 36 37  1  0  0  0  0
 36 41  1  0  0  0  0
 37 38  1  0  0  0  0
 37 40  1  0  0  0  0
 37 42  1  0  0  0  0
 38 39  2  0  0  0  0
 38 46  1  0  0  0  0
 40 43  1  0  0  0  0
 40 44  1  0  0  0  0
 40 45  1  0  0  0  0
 46 47  1  0  0  0  0
 46 48  1  0  0  0  0
 47 49  1  0  0  0  0
 47 50  1  0  0  0  0
 47 51  1  0  0  0  0
M  END
$$$$

  -OEChem-05262216553D

 51 50  0     1  0  0  0  0  0999 V2000
    0.5314   -2.7684   -2.1888 C   0  0  0  0  0  0  0  0  0  0  0  0
   -0.4942   -2.1069   -2.2754 O   0  0  0  0  0  0  0  0  0  0  0  0
    0.4424   -4.2572   -1.9133 C   0  0  0  0  0  0  0  0  0  0  0  0
    0.9530   -4.4928   -0.9760 H   0  0  0  0  0  0  0  0  0  0  0  0
   -0.6036   -4.5656   -1.8324 H   0  0  0  0  0  0  0  0  0  0  0  0
    0.9121   -4.8163   -2.7261 H   0  0  0  0  0  0  0  0  0  0  0  0
    1.7782   -2.1825   -2.3136 N   0  0  0  0  0  0  0  0  0  0  0  0
    2.0684   -0.7401   -2.4455 C   0  0  2  0  0  0  0  0  0  0  0  0
    1.6675    0.0750   -1.1979 C   0  0  0  0  0  0  0  0  0  0  0  0
    2.5364    0.6019   -0.5156 O   0  0  0  0  0  0  0  0  0  0  0  0
    1.4538   -0.1541   -3.7249 C   0  0  0  0  0  0  0  0  0  0  0  0
    2.5628   -2.7888   -2.0900 H   0  0  0  0  0  0  0  0  0  0  0  0
    3.1544   -0.6371   -2.5409 H   0  0  0  0  0  0  0  0  0  0  0  0
    0.3614   -0.1384   -3.6758 H   0  0  0  0  0  0  0  0  0  0  0  0
    1.8020    0.8732   -3.8703 H   0  0  0  0  0  0  0  0  0  0  0  0
    1.7537   -0.7471   -4.5940 H   0  0  0  0  0  0  0  0  0  0  0  0
    0.3422    0.1501   -0.8143 N   0  0  0  0  0  0  0  0  0  0  0  0
   -0.0510    0.3046    0.5928 C   0  0  2  0  0  0  0  0  0  0  0  0
   -0.2307   -1.0962    1.2351 C   0  0  0  0  0  0  0  0  0  0  0  0
    0.6861   -1.9095    1.1966 O   0  0  0  0  0  0  0  0  0  0  0  0
   -1.3133    1.1940    0.7254 C   0  0  0  0  0  0  0  0  0  0  0  0
   -1.1748    2.6859    0.3240 C   0  0  0  0  0  0  0  0  0  0  0  0
   -2.5659    3.3309    0.3923 C   0  0  0  0  0  0  0  0  0  0  0  0
   -0.6049    2.9453   -1.0787 C   0  0  0  0  0  0  0  0  0  0  0  0
   -0.2587   -0.4520   -1.3848 H   0  0  0  0  0  0  0  0  0  0  0  0
    0.7465    0.8011    1.1559 H   0  0  0  0  0  0  0  0  0  0  0  0
   -1.6410    1.1743    1.7703 H   0  0  0  0  0  0  0  0  0  0  0  0
   -2.1063    0.7443    0.1177 H   0  0  0  0  0  0  0  0  0  0  0  0
   -0.5199    3.1803    1.0496 H   0  0  0  0  0  0  0  0  0  0  0  0
   -3.2406    2.8776   -0.3412 H   0  0  0  0  0  0  0  0  0  0  0  0
   -2.5016    4.4042    0.1872 H   0  0  0  0  0  0  0  0  0  0  0  0
   -2.9981    3.2017    1.3895 H   0  0  0  0  0  0  0  0  0  0  0  0
   -1.1176    2.3312   -1.8257 H   0  0  0  0  0  0  0  0  0  0  0  0
   -0.7266    3.9975   -1.3541 H   0  0  0  0  0  0  0  0  0  0  0  0
    0.4656    2.7245   -1.1064 H   0  0  0  0  0  0  0  0  0  0  0  0
   -1.4497   -1.4859    1.7723 N   0  0  0  0  0  0  0  0  0  0  0  0
   -1.8368   -2.8310    2.2483 C   0  0  2  0  0  0  0  0  0  0  0  0
   -1.1143   -3.3185    3.5262 C   0  0  0  0  0  0  0  0  0  0  0  0
   -1.7658   -3.8541    4.4133 O   0  0  0  0  0  0  0  0  0  0  0  0
   -1.7117   -3.8666    1.1235 C   0  0  0  0  0  0  0  0  0  0  0  0
   -2.1840   -0.7857    1.7315 H   0  0  0  0  0  0  0  0  0  0  0  0
   -2.8981   -2.7753    2.5113 H   0  0  0  0  0  0  0  0  0  0  0  0
   -0.6630   -4.0848    0.9059 H   0  0  0  0  0  0  0  0  0  0  0  0
   -2.1992   -4.8010    1.4184 H   0  0  0  0  0  0  0  0  0  0  0  0
   -2.1901   -3.4985    0.2106 H   0  0  0  0  0  0  0  0  0  0  0  0
    0.2511   -3.1864    3.6808 N   0  0  0  0  0  0  0  0  0  0  0  0
    0.9959   -3.6772    4.8321 C   0  0  0  0  0  0  0  0  0  0  0  0
    0.7574   -2.7864    2.8859 H   0  0  0  0  0  0  0  0  0  0  0  0
    0.9142   -4.7666    4.9046 H   0  0  0  0  0  0  0  0  0  0  0  0
    2.0538   -3.4141    4.7366 H   0  0  0  0  0  0  0  0  0  0  0  0
    0.6113   -3.2319    5.7557 H   0  0  0  0  0  0  0  0  0  0  0  0
  1  2  2  0  0  0  0
  1  3  1  0  0  0  0
  1  7  1  0  0  0  0
  3  4  1  0  0  0  0
  3  5  1  0  0  0  0
  3  6  1  0  0  0  0
  7  8  1  0  0  0  0
  7 12  1  0  0  0  0
  8  9  1  0  0  0  0
  8 11  1  0  0  0  0
  8 13  1  0  0  0  0
  9 10  2  0  0  0  0
  9 17  1  0  0  0  0
 11 14  1  0  0  0  0
 11 15  1  0  0  0  0
 11 16  1  0  0  0  0
 17 18  1  0  0  0  0
 17 25  1  0  0  0  0
 18 19  1  0  0  0  0
 18 21  1  0  0  0  0
 18 26  1  0  0  0  0
 19 20  2  0  0  0  0
 19 36  1  0  0  0  0
 21 22  1  0  0  0  0
 21 27  1  0  0  0  0
 21 28  1  0  0  0  0
 22 23  1  0  0  0  0
 22 24  1  0  0  0  0
 22 29  1  0  0  0  0
 23 30  1  0  0  0  0
 23 31  1  0  0  0  0
 23 32  1  0  0  0  0
 24 33  1  0  0  0  0
 24 34  1  0  0  0  0
 24 35  1  0  0  0  0
 36 37  1  0  0  0  0
 36 41  1  0  0  0  0
 37 38  1  0  0  0  0
 37 40  1  0  0  0  0
 37 42  1  0  0  0  0
 38 39  2  0  0  0  0
 38 46  1  0  0  0  0
 40 43  1  0  0  0  0
 40 44  1  0  0  0  0
 40 45  1  0  0  0  0
 46 47  1  0  0  0  0
 46 48  1  0  0  0  0
 47 49  1  0  0  0  0
 47 50  1  0  0  0  0
 47 51  1  0  0  0  0
M  END
$$$$

  -OEChem-05262216553D

 51 50  0     1  0  0  0  0  0999 V2000
    0.7068   -2.7449   -2.2814 C   0  0  0  0  0  0  0  0  0  0  0  0
   -0.3401   -2.1130   -2.3169 O   0  0  0  0  0  0  0  0  0  0  0  0
    0.6683   -4.2566   -2.1594 C   0  0  0  0  0  0  0  0  0  0  0  0
    1.1339   -4.5663   -1.2203 H   0  0  0  0  0  0  0  0  0  0  0  0
   -0.3654   -4.6127   -2.1749 H   0  0  0  0  0  0  0  0  0  0  0  0
    1.2076   -4.7130   -2.9931 H   0  0  0  0  0  0  0  0  0  0  0  0
    1.9320   -2.1059   -2.3341 N   0  0  0  0  0  0  0  0  0  0  0  0
    2.1698   -0.6489   -2.3777 C   0  0  2  0  0  0  0  0  0  0  0  0
    1.7006    0.0882   -1.1049 C   0  0  0  0  0  0  0  0  0  0  0  0
    2.5312    0.5959   -0.3638 O   0  0  0  0  0  0  0  0  0  0  0  0
    1.5713   -0.0232   -3.6462 C   0  0  0  0  0  0  0  0  0  0  0  0
    2.7413   -2.7007   -2.1774 H   0  0  0  0  0  0  0  0  0  0  0  0
    3.2534   -0.4998   -2.4322 H   0  0  0  0  0  0  0  0  0  0  0  0
    0.4783   -0.0594   -3.6350 H   0  0  0  0  0  0  0  0  0  0  0  0
    1.8760    1.0250   -3.7256 H   0  0  0  0  0  0  0  0  0  0  0  0
    1.9265   -0.5549   -4.5340 H   0  0  0  0  0  0  0  0  0  0  0  0
    0.3567    0.1469   -0.7879 N   0  0  0  0  0  0  0  0  0  0  0  0
   -0.1142    0.2815    0.5976 C   0  0  2  0  0  0  0  0  0  0  0  0
   -0.3164   -1.1226    1.2170 C   0  0  0  0  0  0  0  0  0  0  0  0
    0.6538   -1.8258    1.4700 O   0  0  0  0  0  0  0  0  0  0  0  0
   -1.3888    1.1578    0.6841 C   0  0  0  0  0  0  0  0  0  0  0  0
   -1.2419    2.6570    0.3148 C   0  0  0  0  0  0  0  0  0  0  0  0
   -2.6383    3.2932    0.3255 C   0  0  0  0  0  0  0  0  0  0  0  0
   -0.6063    2.9411   -1.0543 C   0  0  0  0  0  0  0  0  0  0  0  0
   -0.2108   -0.4437   -1.4026 H   0  0  0  0  0  0  0  0  0  0  0  0
    0.6498    0.7779    1.2063 H   0  0  0  0  0  0  0  0  0  0  0  0
   -1.7706    1.1082    1.7097 H   0  0  0  0  0  0  0  0  0  0  0  0
   -2.1459    0.7176    0.0262 H   0  0  0  0  0  0  0  0  0  0  0  0
   -0.6262    3.1427    1.0798 H   0  0  0  0  0  0  0  0  0  0  0  0
   -3.2707    2.8542   -0.4529 H   0  0  0  0  0  0  0  0  0  0  0  0
   -2.5694    4.3712    0.1495 H   0  0  0  0  0  0  0  0  0  0  0  0
   -3.1217    3.1385    1.2951 H   0  0  0  0  0  0  0  0  0  0  0  0
   -1.0795    2.3372   -1.8350 H   0  0  0  0  0  0  0  0  0  0  0  0
   -0.7196    3.9972   -1.3181 H   0  0  0  0  0  0  0  0  0  0  0  0
    0.4652    2.7248   -1.0336 H   0  0  0  0  0  0  0  0  0  0  0  0
   -1.5926   -1.6379    1.3948 N   0  0  0  0  0  0  0  0  0  0  0  0
   -1.9639   -3.0043    1.8185 C   0  0  2  0  0  0  0  0  0  0  0  0
   -1.5785   -3.3778    3.2693 C   0  0  0  0  0  0  0  0  0  0  0  0
   -2.4237   -3.8727    4.0036 O   0  0  0  0  0  0  0  0  0  0  0  0
   -1.4353   -4.0463    0.8256 C   0  0  0  0  0  0  0  0  0  0  0  0
   -2.3495   -1.0265    1.1038 H   0  0  0  0  0  0  0  0  0  0  0  0
   -3.0568   -3.0576    1.7804 H   0  0  0  0  0  0  0  0  0  0  0  0
   -0.3454   -4.1187    0.8715 H   0  0  0  0  0  0  0  0  0  0  0  0
   -1.8526   -5.0311    1.0577 H   0  0  0  0  0  0  0  0  0  0  0  0
   -1.7272   -3.7777   -0.1939 H   0  0  0  0  0  0  0  0  0  0  0  0
   -0.3000   -3.1825    3.7513 N   0  0  0  0  0  0  0  0  0  0  0  0
    0.1240   -3.5093    5.1053 C   0  0  0  0  0  0  0  0  0  0  0  0
    0.3687   -2.7605    3.1006 H   0  0  0  0  0  0  0  0  0  0  0  0
   -0.0391   -4.5722    5.3121 H   0  0  0  0  0  0  0  0  0  0  0  0
    1.1894   -3.2924    5.2286 H   0  0  0  0  0  0  0  0  0  0  0  0
   -0.4375   -2.9171    5.8350 H   0  0  0  0  0  0  0  0  0  0  0  0
  1  2  2  0  0  0  0
  1  3  1  0  0  0  0
  1  7  1  0  0  0  0
  3  4  1  0  0  0  0
  3  5  1  0  0  0  0
  3  6  1  0  0  0  0
  7  8  1  0  0  0  0
  7 12  1  0  0  0  0
  8  9  1  0  0  0  0
  8 11  1  0  0  0  0
  8 13  1  0  0  0  0
  9 10  2  0  0  0  0
  9 17  1  0  0  0  0
 11 14  1  0  0  0  0
 11 15  1  0  0  0  0
 11 16  1  0  0  0  0
 17 18  1  0  0  0  0
 17 25  1  0  0  0  0
 18 19  1  0  0  0  0
 18 21  1  0  0  0  0
 18 26  1  0  0  0  0
 19 20  2  0  0  0  0
 19 36  1  0  0  0  0
 21 22  1  0  0  0  0
 21 27  1  0  0  0  0
 21 28  1  0  0  0  0
 22 23  1  0  0  0  0
 22 24  1  0  0  0  0
 22 29  1  0  0  0  0
 23 30  1  0  0  0  0
 23 31  1  0  0  0  0
 23 32  1  0  0  0  0
 24 33  1  0  0  0  0
 24 34  1  0  0  0  0
 24 35  1  0  0  0  0
 36 37  1  0  0  0  0
 36 41  1  0  0  0  0
 37 38  1  0  0  0  0
 37 40  1  0  0  0  0
 37 42  1  0  0  0  0
 38 39  2  0  0  0  0
 38 46  1  0  0  0  0
 40 43  1  0  0  0  0
 40 44  1  0  0  0  0
 40 45  1  0  0  0  0
 46 47  1  0  0  0  0
 46 48  1  0  0  0  0
 47 49  1  0  0  0  0
 47 50  1  0  0  0  0
 47 51  1  0  0  0  0
M  END
$$$$

  -OEChem-05262216553D

 51 50  0     1  0  0  0  0  0999 V2000
    0.7887   -2.6803   -2.5210 C   0  0  0  0  0  0  0  0  0  0  0  0
   -0.2610   -2.0556   -2.4575 O   0  0  0  0  0  0  0  0  0  0  0  0
    0.7575   -4.1948   -2.6072 C   0  0  0  0  0  0  0  0  0  0  0  0
    1.2118   -4.6289   -1.7129 H   0  0  0  0  0  0  0  0  0  0  0  0
   -0.2742   -4.5489   -2.6860 H   0  0  0  0  0  0  0  0  0  0  0  0
    1.3107   -4.5312   -3.4875 H   0  0  0  0  0  0  0  0  0  0  0  0
    2.0106   -2.0337   -2.4905 N   0  0  0  0  0  0  0  0  0  0  0  0
    2.2447   -0.5792   -2.3822 C   0  0  2  0  0  0  0  0  0  0  0  0
    1.7524    0.0360   -1.0542 C   0  0  0  0  0  0  0  0  0  0  0  0
    2.5681    0.4738   -0.2555 O   0  0  0  0  0  0  0  0  0  0  0  0
    1.6654    0.1641   -3.5946 C   0  0  0  0  0  0  0  0  0  0  0  0
    2.8276   -2.6376   -2.4571 H   0  0  0  0  0  0  0  0  0  0  0  0
    3.3284   -0.4232   -2.4024 H   0  0  0  0  0  0  0  0  0  0  0  0
    0.5737    0.1038   -3.6187 H   0  0  0  0  0  0  0  0  0  0  0  0
    1.9474    1.2208   -3.5551 H   0  0  0  0  0  0  0  0  0  0  0  0
    2.0566   -0.2631   -4.5226 H   0  0  0  0  0  0  0  0  0  0  0  0
    0.4018    0.0799   -0.7663 N   0  0  0  0  0  0  0  0  0  0  0  0
   -0.1237    0.2067    0.6000 C   0  0  2  0  0  0  0  0  0  0  0  0
   -0.3344   -1.1951    1.2159 C   0  0  0  0  0  0  0  0  0  0  0  0
    0.5752   -1.7446    1.8222 O   0  0  0  0  0  0  0  0  0  0  0  0
   -1.4157    1.0584    0.6461 C   0  0  0  0  0  0  0  0  0  0  0  0
   -1.2836    2.5610    0.2852 C   0  0  0  0  0  0  0  0  0  0  0  0
   -2.6902    3.1739    0.2500 C   0  0  0  0  0  0  0  0  0  0  0  0
   -0.6047    2.8595   -1.0597 C   0  0  0  0  0  0  0  0  0  0  0  0
   -0.1605   -0.4603   -1.4297 H   0  0  0  0  0  0  0  0  0  0  0  0
    0.6118    0.7162    1.2328 H   0  0  0  0  0  0  0  0  0  0  0  0
   -1.8302    0.9938    1.6583 H   0  0  0  0  0  0  0  0  0  0  0  0
   -2.1435    0.6087   -0.0371 H   0  0  0  0  0  0  0  0  0  0  0  0
   -0.7035    3.0552    1.0722 H   0  0  0  0  0  0  0  0  0  0  0  0
   -3.2859    2.7320   -0.5552 H   0  0  0  0  0  0  0  0  0  0  0  0
   -2.6331    4.2547    0.0864 H   0  0  0  0  0  0  0  0  0  0  0  0
   -3.2062    3.0015    1.1998 H   0  0  0  0  0  0  0  0  0  0  0  0
   -1.0371    2.2476   -1.8574 H   0  0  0  0  0  0  0  0  0  0  0  0
   -0.7292    3.9135   -1.3270 H   0  0  0  0  0  0  0  0  0  0  0  0
    0.4694    2.6639   -0.9994 H   0  0  0  0  0  0  0  0  0  0  0  0
   -1.5488   -1.8485    1.0648 N   0  0  0  0  0  0  0  0  0  0  0  0
   -1.8979   -3.2160    1.5040 C   0  0  2  0  0  0  0  0  0  0  0  0
   -1.9338   -3.4335    3.0353 C   0  0  0  0  0  0  0  0  0  0  0  0
   -2.9155   -3.9622    3.5410 O   0  0  0  0  0  0  0  0  0  0  0  0
   -0.9982   -4.2564    0.8256 C   0  0  0  0  0  0  0  0  0  0  0  0
   -2.2339   -1.3588    0.4969 H   0  0  0  0  0  0  0  0  0  0  0  0
   -2.9185   -3.4056    1.1554 H   0  0  0  0  0  0  0  0  0  0  0  0
    0.0355   -4.1766    1.1739 H   0  0  0  0  0  0  0  0  0  0  0  0
   -1.3575   -5.2655    1.0503 H   0  0  0  0  0  0  0  0  0  0  0  0
   -1.0152   -4.1174   -0.2583 H   0  0  0  0  0  0  0  0  0  0  0  0
   -0.8782   -3.0633    3.8438 N   0  0  0  0  0  0  0  0  0  0  0  0
   -0.8448   -3.2498    5.2876 C   0  0  0  0  0  0  0  0  0  0  0  0
   -0.0833   -2.6209    3.3732 H   0  0  0  0  0  0  0  0  0  0  0  0
   -0.9450   -4.3106    5.5399 H   0  0  0  0  0  0  0  0  0  0  0  0
    0.1050   -2.8866    5.6914 H   0  0  0  0  0  0  0  0  0  0  0  0
   -1.6590   -2.6947    5.7646 H   0  0  0  0  0  0  0  0  0  0  0  0
  1  2  2  0  0  0  0
  1  3  1  0  0  0  0
  1  7  1  0  0  0  0
  3  4  1  0  0  0  0
  3  5  1  0  0  0  0
  3  6  1  0  0  0  0
  7  8  1  0  0  0  0
  7 12  1  0  0  0  0
  8  9  1  0  0  0  0
  8 11  1  0  0  0  0
  8 13  1  0  0  0  0
  9 10  2  0  0  0  0
  9 17  1  0  0  0  0
 11 14  1  0  0  0  0
 11 15  1  0  0  0  0
 11 16  1  0  0  0  0
 17 18  1  0  0  0  0
 17 25  1  0  0  0  0
 18 19  1  0  0  0  0
 18 21  1  0  0  0  0
 18 26  1  0  0  0  0
 19 20  2  0  0  0  0
 19 36  1  0  0  0  0
 21 22  1  0  0  0  0
 21 27  1  0  0  0  0
 21 28  1  0  0  0  0
 22 23  1  0  0  0  0
 22 24  1  0  0  0  0
 22 29  1  0  0  0  0
 23 30  1  0  0  0  0
 23 31  1  0  0  0  0
 23 32  1  0  0  0  0
 24 33  1  0  0  0  0
 24 34  1  0  0  0  0
 24 35  1  0  0  0  0
 36 37  1  0  0  0  0
 36 41  1  0  0  0  0
 37 38  1  0  0  0  0
 37 40  1  0  0  0  0
 37 42  1  0  0  0  0
 38 39  2  0  0  0  0
 38 46  1  0  0  0  0
 40 43  1  0  0  0  0
 40 44  1  0  0  0  0
 40 45  1  0  0  0  0
 46 47  1  0  0  0  0
 46 48  1  0  0  0  0
 47 49  1  0  0  0  0
 47 50  1  0  0  0  0
 47 51  1  0  0  0  0
M  END
$$$$

  -OEChem-05262216553D

 51 50  0     1  0  0  0  0  0999 V2000
    0.8287   -2.5931   -2.7162 C   0  0  0  0  0  0  0  0  0  0  0  0
   -0.2165   -1.9774   -2.5579 O   0  0  0  0  0  0  0  0  0  0  0  0
    0.7837   -4.0922   -2.9451 C   0  0  0  0  0  0  0  0  0  0  0  0
    1.3872   -4.6054   -2.1920 H   0  0  0  0  0  0  0  0  0  0  0  0
   -0.2460   -4.4549   -2.8764 H   0  0  0  0  0  0  0  0  0  0  0  0
    1.1746   -4.3298   -3.9376 H   0  0  0  0  0  0  0  0  0  0  0  0
    2.0553   -1.9555   -2.6581 N   0  0  0  0  0  0  0  0  0  0  0  0
    2.3067   -0.5154   -2.4363 C   0  0  2  0  0  0  0  0  0  0  0  0
    1.8377    0.0028   -1.0587 C   0  0  0  0  0  0  0  0  0  0  0  0
    2.6609    0.3641   -0.2313 O   0  0  0  0  0  0  0  0  0  0  0  0
    1.7142    0.3231   -3.5783 C   0  0  0  0  0  0  0  0  0  0  0  0
    2.8689   -2.5601   -2.7362 H   0  0  0  0  0  0  0  0  0  0  0  0
    3.3916   -0.3667   -2.4593 H   0  0  0  0  0  0  0  0  0  0  0  0
    0.6218    0.2682   -3.5907 H   0  0  0  0  0  0  0  0  0  0  0  0
    2.0018    1.3726   -3.4603 H   0  0  0  0  0  0  0  0  0  0  0  0
    2.0900   -0.0317   -4.5427 H   0  0  0  0  0  0  0  0  0  0  0  0
    0.4921    0.0158   -0.7545 N   0  0  0  0  0  0  0  0  0  0  0  0
   -0.0515    0.1125    0.6059 C   0  0  2  0  0  0  0  0  0  0  0  0
   -0.2353   -1.3006    1.1964 C   0  0  0  0  0  0  0  0  0  0  0  0
    0.4633   -1.6759    2.1279 O   0  0  0  0  0  0  0  0  0  0  0  0
   -1.3736    0.9133    0.6550 C   0  0  0  0  0  0  0  0  0  0  0  0
   -1.2940    2.4229    0.3114 C   0  0  0  0  0  0  0  0  0  0  0  0
   -2.7214    2.9854    0.2752 C   0  0  0  0  0  0  0  0  0  0  0  0
   -0.6184    2.7581   -1.0264 C   0  0  0  0  0  0  0  0  0  0  0  0
   -0.0825   -0.4572   -1.4567 H   0  0  0  0  0  0  0  0  0  0  0  0
    0.6650    0.6360    1.2495 H   0  0  0  0  0  0  0  0  0  0  0  0
   -1.7893    0.8205    1.6644 H   0  0  0  0  0  0  0  0  0  0  0  0
   -2.0826    0.4429   -0.0340 H   0  0  0  0  0  0  0  0  0  0  0  0
   -0.7363    2.9285    1.1071 H   0  0  0  0  0  0  0  0  0  0  0  0
   -3.2978    2.5298   -0.5364 H   0  0  0  0  0  0  0  0  0  0  0  0
   -2.7024    4.0690    0.1218 H   0  0  0  0  0  0  0  0  0  0  0  0
   -3.2347    2.7857    1.2211 H   0  0  0  0  0  0  0  0  0  0  0  0
   -1.0282    2.1426   -1.8333 H   0  0  0  0  0  0  0  0  0  0  0  0
   -0.7745    3.8109   -1.2815 H   0  0  0  0  0  0  0  0  0  0  0  0
    0.4611    2.5954   -0.9636 H   0  0  0  0  0  0  0  0  0  0  0  0
   -1.2876   -2.0918    0.7610 N   0  0  0  0  0  0  0  0  0  0  0  0
   -1.6338   -3.4541    1.2151 C   0  0  2  0  0  0  0  0  0  0  0  0
   -2.1726   -3.5422    2.6616 C   0  0  0  0  0  0  0  0  0  0  0  0
   -3.1973   -4.1751    2.8817 O   0  0  0  0  0  0  0  0  0  0  0  0
   -0.4610   -4.4227    1.0105 C   0  0  0  0  0  0  0  0  0  0  0  0
   -1.7942   -1.7302   -0.0429 H   0  0  0  0  0  0  0  0  0  0  0  0
   -2.4485   -3.8018    0.5716 H   0  0  0  0  0  0  0  0  0  0  0  0
    0.3602   -4.2042    1.6997 H   0  0  0  0  0  0  0  0  0  0  0  0
   -0.7900   -5.4512    1.1898 H   0  0  0  0  0  0  0  0  0  0  0  0
   -0.0851   -4.3518   -0.0137 H   0  0  0  0  0  0  0  0  0  0  0  0
   -1.5173   -2.9326    3.7125 N   0  0  0  0  0  0  0  0  0  0  0  0
   -1.9548   -2.9980    5.0994 C   0  0  0  0  0  0  0  0  0  0  0  0
   -0.6501   -2.4403    3.4787 H   0  0  0  0  0  0  0  0  0  0  0  0
   -1.9986   -4.0383    5.4380 H   0  0  0  0  0  0  0  0  0  0  0  0
   -1.2549   -2.4545    5.7412 H   0  0  0  0  0  0  0  0  0  0  0  0
   -2.9469   -2.5480    5.2093 H   0  0  0  0  0  0  0  0  0  0  0  0
  1  2  2  0  0  0  0
  1  3  1  0  0  0  0
  1  7  1  0  0  0  0
  3  4  1  0  0  0  0
  3  5  1  0  0  0  0
  3  6  1  0  0  0  0
  7  8  1  0  0  0  0
  7 12  1  0  0  0  0
  8  9  1  0  0  0  0
  8 11  1  0  0  0  0
  8 13  1  0  0  0  0
  9 10  2  0  0  0  0
  9 17  1  0  0  0  0
 11 14  1  0  0  0  0
 11 15  1  0  0  0  0
 11 16  1  0  0  0  0
 17 18  1  0  0  0  0
 17 25  1  0  0  0  0
 18 19  1  0  0  0  0
 18 21  1  0  0  0  0
 18 26  1  0  0  0  0
 19 20  2  0  0  0  0
 19 36  1  0  0  0  0
 21 22  1  0  0  0  0
 21 27  1  0  0  0  0
 21 28  1  0  0  0  0
 22 23  1  0  0  0  0
 22 24  1  0  0  0  0
 22 29  1  0  0  0  0
 23 30  1  0  0  0  0
 23 31  1  0  0  0  0
 23 32  1  0  0  0  0
 24 33  1  0  0  0  0
 24 34  1  0  0  0  0
 24 35  1  0  0  0  0
 36 37  1  0  0  0  0
 36 41  1  0  0  0  0
 37 38  1  0  0  0  0
 37 40  1  0  0  0  0
 37 42  1  0  0  0  0
 38 39  2  0  0  0  0
 38 46  1  0  0  0  0
 40 43  1  0  0  0  0
 40 44  1  0  0  0  0
 40 45  1  0  0  0  0
 46 47  1  0  0  0  0
 46 48  1  0  0  0  0
 47 49  1  0  0  0  0
 47 50  1  0  0  0  0
 47 51  1  0  0  0  0
M  END
$$$$

  -OEChem-05262216553D

 51 50  0     1  0  0  0  0  0999 V2000
    0.8957   -2.6181   -2.6610 C   0  0  0  0  0  0  0  0  0  0  0  0
   -0.1627   -2.0385   -2.4526 O   0  0  0  0  0  0  0  0  0  0  0  0
    0.8909   -4.1211   -2.8691 C   0  0  0  0  0  0  0  0  0  0  0  0
    1.5320   -4.6053   -2.1282 H   0  0  0  0  0  0  0  0  0  0  0  0
   -0.1243   -4.5153   -2.7652 H   0  0  0  0  0  0  0  0  0  0  0  0
    1.2596   -4.3608   -3.8697 H   0  0  0  0  0  0  0  0  0  0  0  0
    2.1025   -1.9395   -2.6719 N   0  0  0  0  0  0  0  0  0  0  0  0
    2.3190   -0.4897   -2.4742 C   0  0  2  0  0  0  0  0  0  0  0  0
    1.8844    0.0252   -1.0839 C   0  0  0  0  0  0  0  0  0  0  0  0
    2.7237    0.3324   -0.2515 O   0  0  0  0  0  0  0  0  0  0  0  0
    1.6552    0.3136   -3.6026 C   0  0  0  0  0  0  0  0  0  0  0  0
    2.9307   -2.5181   -2.7878 H   0  0  0  0  0  0  0  0  0  0  0  0
    3.3967   -0.3065   -2.5395 H   0  0  0  0  0  0  0  0  0  0  0  0
    0.5661    0.2131   -3.5795 H   0  0  0  0  0  0  0  0  0  0  0  0
    1.9027    1.3753   -3.5027 H   0  0  0  0  0  0  0  0  0  0  0  0
    2.0137   -0.0338   -4.5762 H   0  0  0  0  0  0  0  0  0  0  0  0
    0.5454    0.0267   -0.7580 N   0  0  0  0  0  0  0  0  0  0  0  0
    0.0090    0.0970    0.6062 C   0  0  2  0  0  0  0  0  0  0  0  0
   -0.1611   -1.3271    1.1706 C   0  0  0  0  0  0  0  0  0  0  0  0
    0.2553   -1.5931    2.2901 O   0  0  0  0  0  0  0  0  0  0  0  0
   -1.3290    0.8666    0.6779 C   0  0  0  0  0  0  0  0  0  0  0  0
   -1.2869    2.3815    0.3523 C   0  0  0  0  0  0  0  0  0  0  0  0
   -2.7270    2.9114    0.3371 C   0  0  0  0  0  0  0  0  0  0  0  0
   -0.6341    2.7481   -0.9885 C   0  0  0  0  0  0  0  0  0  0  0  0
   -0.0426   -0.4112   -1.4703 H   0  0  0  0  0  0  0  0  0  0  0  0
    0.7231    0.6194    1.2532 H   0  0  0  0  0  0  0  0  0  0  0  0
   -1.7312    0.7530    1.6907 H   0  0  0  0  0  0  0  0  0  0  0  0
   -2.0350    0.3845   -0.0067 H   0  0  0  0  0  0  0  0  0  0  0  0
   -0.7325    2.8901    1.1485 H   0  0  0  0  0  0  0  0  0  0  0  0
   -3.3018    2.4498   -0.4723 H   0  0  0  0  0  0  0  0  0  0  0  0
   -2.7349    3.9966    0.1935 H   0  0  0  0  0  0  0  0  0  0  0  0
   -3.2250    2.6913    1.2866 H   0  0  0  0  0  0  0  0  0  0  0  0
   -1.0428    2.1363   -1.7987 H   0  0  0  0  0  0  0  0  0  0  0  0
   -0.8137    3.8013   -1.2261 H   0  0  0  0  0  0  0  0  0  0  0  0
    0.4489    2.6055   -0.9418 H   0  0  0  0  0  0  0  0  0  0  0  0
   -0.9961   -2.2201    0.5151 N   0  0  0  0  0  0  0  0  0  0  0  0
   -1.3299   -3.5992    0.9260 C   0  0  2  0  0  0  0  0  0  0  0  0
   -2.2452   -3.7085    2.1670 C   0  0  0  0  0  0  0  0  0  0  0  0
   -3.1809   -4.4981    2.1541 O   0  0  0  0  0  0  0  0  0  0  0  0
   -0.0641   -4.4480    1.1090 C   0  0  0  0  0  0  0  0  0  0  0  0
   -1.2324   -1.9585   -0.4418 H   0  0  0  0  0  0  0  0  0  0  0  0
   -1.8946   -4.0422    0.0992 H   0  0  0  0  0  0  0  0  0  0  0  0
    0.4942   -4.1395    1.9979 H   0  0  0  0  0  0  0  0  0  0  0  0
   -0.3351   -5.5019    1.2269 H   0  0  0  0  0  0  0  0  0  0  0  0
    0.5886   -4.3526    0.2372 H   0  0  0  0  0  0  0  0  0  0  0  0
   -2.0178   -2.9499    3.2974 N   0  0  0  0  0  0  0  0  0  0  0  0
   -2.7997   -3.0509    4.5210 C   0  0  0  0  0  0  0  0  0  0  0  0
   -1.1760   -2.3670    3.2834 H   0  0  0  0  0  0  0  0  0  0  0  0
   -2.7097   -4.0536    4.9512 H   0  0  0  0  0  0  0  0  0  0  0  0
   -2.4423   -2.3238    5.2565 H   0  0  0  0  0  0  0  0  0  0  0  0
   -3.8560   -2.8463    4.3179 H   0  0  0  0  0  0  0  0  0  0  0  0
  1  2  2  0  0  0  0
  1  3  1  0  0  0  0
  1  7  1  0  0  0  0
  3  4  1  0  0  0  0
  3  5  1  0  0  0  0
  3  6  1  0  0  0  0
  7  8  1  0  0  0  0
  7 12  1  0  0  0  0
  8  9  1  0  0  0  0
  8 11  1  0  0  0  0
  8 13  1  0  0  0  0
  9 10  2  0  0  0  0
  9 17  1  0  0  0  0
 11 14  1  0  0  0  0
 11 15  1  0  0  0  0
 11 16  1  0  0  0  0
 17 18  1  0  0  0  0
 17 25  1  0  0  0  0
 18 19  1  0  0  0  0
 18 21  1  0  0  0  0
 18 26  1  0  0  0  0
 19 20  2  0  0  0  0
 19 36  1  0  0  0  0
 21 22  1  0  0  0  0
 21 27  1  0  0  0  0
 21 28  1  0  0  0  0
 22 23  1  0  0  0  0
 22 24  1  0  0  0  0
 22 29  1  0  0  0  0
 23 30  1  0  0  0  0
 23 31  1  0  0  0  0
 23 32  1  0  0  0  0
 24 33  1  0  0  0  0
 24 34  1  0  0  0  0
 24 35  1  0  0  0  0
 36 37  1  0  0  0  0
 36 41  1  0  0  0  0
 37 38  1  0  0  0  0
 37 40  1  0  0  0  0
 37 42  1  0  0  0  0
 38 39  2  0  0  0  0
 38 46  1  0  0  0  0
 40 43  1  0  0  0  0
 40 44  1  0  0  0  0
 40 45  1  0  0  0  0
 46 47  1  0  0  0  0
 46 48  1  0  0  0  0
 47 49  1  0  0  0  0
 47 50  1  0  0  0  0
 47 51  1  0  0  0  0
M  END
$$$$

  -OEChem-05262216553D

 51 50  0     1  0  0  0  0  0999 V2000
    0.9573   -2.6263   -2.7075 C   0  0  0  0  0  0  0  0  0  0  0  0
   -0.1089   -2.0701   -2.4769 O   0  0  0  0  0  0  0  0  0  0  0  0
    0.9824   -4.1289   -2.9162 C   0  0  0  0  0  0  0  0  0  0  0  0
    1.5615   -4.6080   -2.1226 H   0  0  0  0  0  0  0  0  0  0  0  0
   -0.0347   -4.5312   -2.9000 H   0  0  0  0  0  0  0  0  0  0  0  0
    1.4365   -4.3656   -3.8816 H   0  0  0  0  0  0  0  0  0  0  0  0
    2.1472   -1.9201   -2.7164 N   0  0  0  0  0  0  0  0  0  0  0  0
    2.3251   -0.4712   -2.4810 C   0  0  2  0  0  0  0  0  0  0  0  0
    1.8811   -0.0090   -1.0751 C   0  0  0  0  0  0  0  0  0  0  0  0
    2.7188    0.2354   -0.2203 O   0  0  0  0  0  0  0  0  0  0  0  0
    1.6396    0.3447   -3.5874 C   0  0  0  0  0  0  0  0  0  0  0  0
    2.9897   -2.4761   -2.8395 H   0  0  0  0  0  0  0  0  0  0  0  0
    3.3974   -0.2570   -2.5431 H   0  0  0  0  0  0  0  0  0  0  0  0
    0.5539    0.2129   -3.5693 H   0  0  0  0  0  0  0  0  0  0  0  0
    1.8569    1.4098   -3.4576 H   0  0  0  0  0  0  0  0  0  0  0  0
    2.0088    0.0346   -4.5697 H   0  0  0  0  0  0  0  0  0  0  0  0
    0.5395    0.0070   -0.7552 N   0  0  0  0  0  0  0  0  0  0  0  0
    0.0030    0.0785    0.6111 C   0  0  2  0  0  0  0  0  0  0  0  0
   -0.1910   -1.3382    1.1873 C   0  0  0  0  0  0  0  0  0  0  0  0
   -0.0096   -1.5378    2.3810 O   0  0  0  0  0  0  0  0  0  0  0  0
   -1.3337    0.8512    0.6740 C   0  0  0  0  0  0  0  0  0  0  0  0
   -1.2904    2.3652    0.3439 C   0  0  0  0  0  0  0  0  0  0  0  0
   -2.7306    2.8945    0.3210 C   0  0  0  0  0  0  0  0  0  0  0  0
   -0.6312    2.7278   -0.9948 C   0  0  0  0  0  0  0  0  0  0  0  0
   -0.0614   -0.3868   -1.4818 H   0  0  0  0  0  0  0  0  0  0  0  0
    0.7172    0.5979    1.2602 H   0  0  0  0  0  0  0  0  0  0  0  0
   -1.7402    0.7430    1.6857 H   0  0  0  0  0  0  0  0  0  0  0  0
   -2.0374    0.3647   -0.0098 H   0  0  0  0  0  0  0  0  0  0  0  0
   -0.7399    2.8761    1.1415 H   0  0  0  0  0  0  0  0  0  0  0  0
   -3.3008    2.4325   -0.4913 H   0  0  0  0  0  0  0  0  0  0  0  0
   -2.7378    3.9795    0.1770 H   0  0  0  0  0  0  0  0  0  0  0  0
   -3.2338    2.6747    1.2680 H   0  0  0  0  0  0  0  0  0  0  0  0
   -1.0325    2.1105   -1.8044 H   0  0  0  0  0  0  0  0  0  0  0  0
   -0.8133    3.7789   -1.2389 H   0  0  0  0  0  0  0  0  0  0  0  0
    0.4520    2.5893   -0.9400 H   0  0  0  0  0  0  0  0  0  0  0  0
   -0.7756   -2.3224    0.4033 N   0  0  0  0  0  0  0  0  0  0  0  0
   -1.0426   -3.7255    0.7787 C   0  0  2  0  0  0  0  0  0  0  0  0
   -2.1699   -3.9323    1.8167 C   0  0  0  0  0  0  0  0  0  0  0  0
   -2.9549   -4.8605    1.6690 O   0  0  0  0  0  0  0  0  0  0  0  0
    0.2457   -4.4277    1.2281 C   0  0  0  0  0  0  0  0  0  0  0  0
   -0.8526   -2.0924   -0.5890 H   0  0  0  0  0  0  0  0  0  0  0  0
   -1.3826   -4.2305   -0.1313 H   0  0  0  0  0  0  0  0  0  0  0  0
    0.5852   -4.0476    2.1962 H   0  0  0  0  0  0  0  0  0  0  0  0
    0.0702   -5.5035    1.3277 H   0  0  0  0  0  0  0  0  0  0  0  0
    1.0413   -4.2717    0.4939 H   0  0  0  0  0  0  0  0  0  0  0  0
   -2.2951   -3.1127    2.9201 N   0  0  0  0  0  0  0  0  0  0  0  0
   -3.2735   -3.3143    3.9791 C   0  0  0  0  0  0  0  0  0  0  0  0
   -1.5457   -2.4278    3.0527 H   0  0  0  0  0  0  0  0  0  0  0  0
   -3.0802   -4.2551    4.5046 H   0  0  0  0  0  0  0  0  0  0  0  0
   -3.2199   -2.4943    4.7018 H   0  0  0  0  0  0  0  0  0  0  0  0
   -4.2869   -3.3425    3.5648 H   0  0  0  0  0  0  0  0  0  0  0  0
  1  2  2  0  0  0  0
  1  3  1  0  0  0  0
  1  7  1  0  0  0  0
  3  4  1  0  0  0  0
  3  5  1  0  0  0  0
  3  6  1  0  0  0  0
  7  8  1  0  0  0  0
  7 12  1  0  0  0  0
  8  9  1  0  0  0  0
  8 11  1  0  0  0  0
  8 13  1  0  0  0  0
  9 10  2  0  0  0  0
  9 17  1  0  0  0  0
 11 14  1  0  0  0  0
 11 15  1  0  0  0  0
 11 16  1  0  0  0  0
 17 18  1  0  0  0  0
 17 25  1  0  0  0  0
 18 19  1  0  0  0  0
 18 21  1  0  0  0  0
 18 26  1  0  0  0  0
 19 20  2  0  0  0  0
 19 36  1  0  0  0  0
 21 22  1  0  0  0  0
 21 27  1  0  0  0  0
 21 28  1  0  0  0  0
 22 23  1  0  0  0  0
 22 24  1  0  0  0  0
 22 29  1  0  0  0  0
 23 30  1  0  0  0  0
 23 31  1  0  0  0  0
 23 32  1  0  0  0  0
 24 33  1  0  0  0  0
 24 34  1  0  0  0  0
 24 35  1  0  0  0  0
 36 37  1  0  0  0  0
 36 41  1  0  0  0  0
 37 38  1  0  0  0  0
 37 40  1  0  0  0  0
 37 42  1  0  0  0  0
 38 39  2  0  0  0  0
 38 46  1  0  0  0  0
 40 43  1  0  0  0  0
 40 44  1  0  0  0  0
 40 45  1  0  0  0  0
 46 47  1  0  0  0  0
 46 48  1  0  0  0  0
 47 49  1  0  0  0  0
 47 50  1  0  0  0  0
 47 51  1  0  0  0  0
M  END
$$$$

  -OEChem-05262216553D

 51 50  0     1  0  0  0  0  0999 V2000
    1.0669   -2.6269   -2.8106 C   0  0  0  0  0  0  0  0  0  0  0  0
   -0.0135   -2.1346   -2.5138 O   0  0  0  0  0  0  0  0  0  0  0  0
    1.1553   -4.1121   -3.1049 C   0  0  0  0  0  0  0  0  0  0  0  0
    1.7992   -4.6015   -2.3698 H   0  0  0  0  0  0  0  0  0  0  0  0
    0.1616   -4.5672   -3.0598 H   0  0  0  0  0  0  0  0  0  0  0  0
    1.5681   -4.2718   -4.1039 H   0  0  0  0  0  0  0  0  0  0  0  0
    2.2189   -1.8621   -2.8122 N   0  0  0  0  0  0  0  0  0  0  0  0
    2.3226   -0.4204   -2.5063 C   0  0  2  0  0  0  0  0  0  0  0  0
    1.8691   -0.0495   -1.0766 C   0  0  0  0  0  0  0  0  0  0  0  0
    2.7053    0.1474   -0.2079 O   0  0  0  0  0  0  0  0  0  0  0  0
    1.5848    0.4100   -3.5674 C   0  0  0  0  0  0  0  0  0  0  0  0
    3.0852   -2.3638   -2.9912 H   0  0  0  0  0  0  0  0  0  0  0  0
    3.3817   -0.1478   -2.5648 H   0  0  0  0  0  0  0  0  0  0  0  0
    0.5085    0.2156   -3.5523 H   0  0  0  0  0  0  0  0  0  0  0  0
    1.7420    1.4778   -3.3845 H   0  0  0  0  0  0  0  0  0  0  0  0
    1.9647    0.1712   -4.5653 H   0  0  0  0  0  0  0  0  0  0  0  0
    0.5263   -0.0368   -0.7555 N   0  0  0  0  0  0  0  0  0  0  0  0
    0.0004    0.0310    0.6166 C   0  0  2  0  0  0  0  0  0  0  0  0
   -0.1942   -1.3805    1.2096 C   0  0  0  0  0  0  0  0  0  0  0  0
   -0.2250   -1.5267    2.4248 O   0  0  0  0  0  0  0  0  0  0  0  0
   -1.3403    0.7980    0.6740 C   0  0  0  0  0  0  0  0  0  0  0  0
   -1.3068    2.3109    0.3356 C   0  0  0  0  0  0  0  0  0  0  0  0
   -2.7510    2.8292    0.3099 C   0  0  0  0  0  0  0  0  0  0  0  0
   -0.6538    2.6727   -1.0067 C   0  0  0  0  0  0  0  0  0  0  0  0
   -0.0862   -0.3979   -1.4892 H   0  0  0  0  0  0  0  0  0  0  0  0
    0.7142    0.5561    1.2612 H   0  0  0  0  0  0  0  0  0  0  0  0
   -1.7477    0.6951    1.6861 H   0  0  0  0  0  0  0  0  0  0  0  0
   -2.0402    0.3018   -0.0069 H   0  0  0  0  0  0  0  0  0  0  0  0
   -0.7590    2.8300    1.1295 H   0  0  0  0  0  0  0  0  0  0  0  0
   -3.3203    2.3522   -0.4945 H   0  0  0  0  0  0  0  0  0  0  0  0
   -2.7673    3.9122    0.1519 H   0  0  0  0  0  0  0  0  0  0  0  0
   -3.2490    2.6178    1.2614 H   0  0  0  0  0  0  0  0  0  0  0  0
   -1.0545    2.0502   -1.8128 H   0  0  0  0  0  0  0  0  0  0  0  0
   -0.8431    3.7219   -1.2544 H   0  0  0  0  0  0  0  0  0  0  0  0
    0.4305    2.5412   -0.9551 H   0  0  0  0  0  0  0  0  0  0  0  0
   -0.4934   -2.4487    0.3763 N   0  0  0  0  0  0  0  0  0  0  0  0
   -0.7203   -3.8563    0.7588 C   0  0  2  0  0  0  0  0  0  0  0  0
   -2.0226   -4.1213    1.5482 C   0  0  0  0  0  0  0  0  0  0  0  0
   -2.7345   -5.0661    1.2319 O   0  0  0  0  0  0  0  0  0  0  0  0
    0.4945   -4.4255    1.5032 C   0  0  0  0  0  0  0  0  0  0  0  0
   -0.4787   -2.2384   -0.6236 H   0  0  0  0  0  0  0  0  0  0  0  0
   -0.8178   -4.4210   -0.1738 H   0  0  0  0  0  0  0  0  0  0  0  0
    0.5993   -3.9729    2.4936 H   0  0  0  0  0  0  0  0  0  0  0  0
    0.3812   -5.5061    1.6336 H   0  0  0  0  0  0  0  0  0  0  0  0
    1.4109   -4.2387    0.9358 H   0  0  0  0  0  0  0  0  0  0  0  0
   -2.3890   -3.3302    2.6181 N   0  0  0  0  0  0  0  0  0  0  0  0
   -3.5700   -3.5552    3.4387 C   0  0  0  0  0  0  0  0  0  0  0  0
   -1.7299   -2.5897    2.8748 H   0  0  0  0  0  0  0  0  0  0  0  0
   -3.5258   -4.5411    3.9131 H   0  0  0  0  0  0  0  0  0  0  0  0
   -3.6321   -2.7953    4.2238 H   0  0  0  0  0  0  0  0  0  0  0  0
   -4.4769   -3.4971    2.8282 H   0  0  0  0  0  0  0  0  0  0  0  0
  1  2  2  0  0  0  0
  1  3  1  0  0  0  0
  1  7  1  0  0  0  0
  3  4  1  0  0  0  0
  3  5  1  0  0  0  0
  3  6  1  0  0  0  0
  7  8  1  0  0  0  0
  7 12  1  0  0  0  0
  8  9  1  0  0  0  0
  8 11  1  0  0  0  0
  8 13  1  0  0  0  0
  9 10  2  0  0  0  0
  9 17  1  0  0  0  0
 11 14  1  0  0  0  0
 11 15  1  0  0  0  0
 11 16  1  0  0  0  0
 17 18  1  0  0  0  0
 17 25  1  0  0  0  0
 18 19  1  0  0  0  0
 18 21  1  0  0  0  0
 18 26  1  0  0  0  0
 19 20  2  0  0  0  0
 19 36  1  0  0  0  0
 21 22  1  0  0  0  0
 21 27  1  0  0  0  0
 21 28  1  0  0  0  0
 22 23  1  0  0  0  0
 22 24  1  0  0  0  0
 22 29  1  0  0  0  0
 23 30  1  0  0  0  0
 23 31  1  0  0  0  0
 23 32  1  0  0  0  0
 24 33  1  0  0  0  0
 24 34  1  0  0  0  0
 24 35  1  0  0  0  0
 36 37  1  0  0  0  0
 36 41  1  0  0  0  0
 37 38  1  0  0  0  0
 37 40  1  0  0  0  0
 37 42  1  0  0  0  0
 38 39  2  0  0  0  0
 38 46  1  0  0  0  0
 40 43  1  0  0  0  0
 40 44  1  0  0  0  0
 40 45  1  0  0  0  0
 46 47  1  0  0  0  0
 46 48  1  0  0  0  0
 47 49  1  0  0  0  0
 47 50  1  0  0  0  0
 47 51  1  0  0  0  0
M  END
$$$$

  -OEChem-05262216553D

 51 50  0     1  0  0  0  0  0999 V2000
    1.1445   -2.6801   -2.8799 C   0  0  0  0  0  0  0  0  0  0  0  0
    0.0586   -2.2655   -2.4990 O   0  0  0  0  0  0  0  0  0  0  0  0
    1.3049   -4.1442   -3.2413 C   0  0  0  0  0  0  0  0  0  0  0  0
    1.9990   -4.6272   -2.5488 H   0  0  0  0  0  0  0  0  0  0  0  0
    0.3395   -4.6557   -3.1855 H   0  0  0  0  0  0  0  0  0  0  0  0
    1.6918   -4.2380   -4.2589 H   0  0  0  0  0  0  0  0  0  0  0  0
    2.2411   -1.8399   -2.9195 N   0  0  0  0  0  0  0  0  0  0  0  0
    2.2537   -0.4023   -2.5822 C   0  0  2  0  0  0  0  0  0  0  0  0
    1.8221   -0.0957   -1.1296 C   0  0  0  0  0  0  0  0  0  0  0  0
    2.6753    0.0673   -0.2702 O   0  0  0  0  0  0  0  0  0  0  0  0
    1.4285    0.3931   -3.6058 C   0  0  0  0  0  0  0  0  0  0  0  0
    3.1273   -2.2716   -3.1694 H   0  0  0  0  0  0  0  0  0  0  0  0
    3.2885   -0.0534   -2.6656 H   0  0  0  0  0  0  0  0  0  0  0  0
    0.3699    0.1200   -3.5684 H   0  0  0  0  0  0  0  0  0  0  0  0
    1.5133    1.4658   -3.4051 H   0  0  0  0  0  0  0  0  0  0  0  0
    1.7976    0.2018   -4.6180 H   0  0  0  0  0  0  0  0  0  0  0  0
    0.4849   -0.0775   -0.7794 N   0  0  0  0  0  0  0  0  0  0  0  0
   -0.0088   -0.0003    0.6062 C   0  0  2  0  0  0  0  0  0  0  0  0
   -0.1993   -1.4027    1.2266 C   0  0  0  0  0  0  0  0  0  0  0  0
   -0.4246   -1.5102    2.4258 O   0  0  0  0  0  0  0  0  0  0  0  0
   -1.3386    0.7872    0.6790 C   0  0  0  0  0  0  0  0  0  0  0  0
   -1.2906    2.2981    0.3310 C   0  0  0  0  0  0  0  0  0  0  0  0
   -2.7281    2.8353    0.3241 C   0  0  0  0  0  0  0  0  0  0  0  0
   -0.6503    2.6474   -1.0205 C   0  0  0  0  0  0  0  0  0  0  0  0
   -0.1498   -0.4272   -1.4990 H   0  0  0  0  0  0  0  0  0  0  0  0
    0.7228    0.5244    1.2305 H   0  0  0  0  0  0  0  0  0  0  0  0
   -1.7346    0.6986    1.6968 H   0  0  0  0  0  0  0  0  0  0  0  0
   -2.0544    0.2956    0.0113 H   0  0  0  0  0  0  0  0  0  0  0  0
   -0.7260    2.8133    1.1154 H   0  0  0  0  0  0  0  0  0  0  0  0
   -3.3157    2.3609   -0.4684 H   0  0  0  0  0  0  0  0  0  0  0  0
   -2.7330    3.9175    0.1600 H   0  0  0  0  0  0  0  0  0  0  0  0
   -3.2145    2.6362    1.2844 H   0  0  0  0  0  0  0  0  0  0  0  0
   -1.0688    2.0275   -1.8194 H   0  0  0  0  0  0  0  0  0  0  0  0
   -0.8294    3.6980   -1.2690 H   0  0  0  0  0  0  0  0  0  0  0  0
    0.4327    2.5024   -0.9816 H   0  0  0  0  0  0  0  0  0  0  0  0
   -0.2176   -2.5300    0.4193 N   0  0  0  0  0  0  0  0  0  0  0  0
   -0.3470   -3.9401    0.8367 C   0  0  2  0  0  0  0  0  0  0  0  0
   -1.7344   -4.3363    1.3905 C   0  0  0  0  0  0  0  0  0  0  0  0
   -2.2491   -5.3856    1.0244 O   0  0  0  0  0  0  0  0  0  0  0  0
    0.7662   -4.3256    1.8205 C   0  0  0  0  0  0  0  0  0  0  0  0
   -0.1208   -2.3487   -0.5817 H   0  0  0  0  0  0  0  0  0  0  0  0
   -0.2017   -4.5460   -0.0632 H   0  0  0  0  0  0  0  0  0  0  0  0
    0.6277   -3.8334    2.7875 H   0  0  0  0  0  0  0  0  0  0  0  0
    0.7622   -5.4074    1.9857 H   0  0  0  0  0  0  0  0  0  0  0  0
    1.7436   -4.0393    1.4207 H   0  0  0  0  0  0  0  0  0  0  0  0
   -2.3962   -3.5430    2.3056 N   0  0  0  0  0  0  0  0  0  0  0  0
   -3.6691   -3.8911    2.9197 C   0  0  0  0  0  0  0  0  0  0  0  0
   -1.8854   -2.7191    2.6349 H   0  0  0  0  0  0  0  0  0  0  0  0
   -3.5703   -4.8067    3.5118 H   0  0  0  0  0  0  0  0  0  0  0  0
   -4.0017   -3.0843    3.5799 H   0  0  0  0  0  0  0  0  0  0  0  0
   -4.4344   -4.0467    2.1521 H   0  0  0  0  0  0  0  0  0  0  0  0
  1  2  2  0  0  0  0
  1  3  1  0  0  0  0
  1  7  1  0  0  0  0
  3  4  1  0  0  0  0
  3  5  1  0  0  0  0
  3  6  1  0  0  0  0
  7  8  1  0  0  0  0
  7 12  1  0  0  0  0
  8  9  1  0  0  0  0
  8 11  1  0  0  0  0
  8 13  1  0  0  0  0
  9 10  2  0  0  0  0
  9 17  1  0  0  0  0
 11 14  1  0  0  0  0
 11 15  1  0  0  0  0
 11 16  1  0  0  0  0
 17 18  1  0  0  0  0
 17 25  1  0  0  0  0
 18 19  1  0  0  0  0
 18 21  1  0  0  0  0
 18 26  1  0  0  0  0
 19 20  2  0  0  0  0
 19 36  1  0  0  0  0
 21 22  1  0  0  0  0
 21 27  1  0  0  0  0
 21 28  1  0  0  0  0
 22 23  1  0  0  0  0
 22 24  1  0  0  0  0
 22 29  1  0  0  0  0
 23 30  1  0  0  0  0
 23 31  1  0  0  0  0
 23 32  1  0  0  0  0
 24 33  1  0  0  0  0
 24 34  1  0  0  0  0
 24 35  1  0  0  0  0
 36 37  1  0  0  0  0
 36 41  1  0  0  0  0
 37 38  1  0  0  0  0
 37 40  1  0  0  0  0
 37 42  1  0  0  0  0
 38 39  2  0  0  0  0
 38 46  1  0  0  0  0
 40 43  1  0  0  0  0
 40 44  1  0  0  0  0
 40 45  1  0  0  0  0
 46 47  1  0  0  0  0
 46 48  1  0  0  0  0
 47 49  1  0  0  0  0
 47 50  1  0  0  0  0
 47 51  1  0  0  0  0
M  END
$$$$

  -OEChem-05262216553D

 51 50  0     1  0  0  0  0  0999 V2000
    1.1470   -2.7155   -2.8952 C   0  0  0  0  0  0  0  0  0  0  0  0
    0.0660   -2.3110   -2.4929 O   0  0  0  0  0  0  0  0  0  0  0  0
    1.3146   -4.1763   -3.2666 C   0  0  0  0  0  0  0  0  0  0  0  0
    2.0465   -4.6492   -2.6069 H   0  0  0  0  0  0  0  0  0  0  0  0
    0.3610   -4.7035   -3.1677 H   0  0  0  0  0  0  0  0  0  0  0  0
    1.6567   -4.2629   -4.3008 H   0  0  0  0  0  0  0  0  0  0  0  0
    2.2340   -1.8639   -2.9376 N   0  0  0  0  0  0  0  0  0  0  0  0
    2.2291   -0.4273   -2.5954 C   0  0  2  0  0  0  0  0  0  0  0  0
    1.7867   -0.1266   -1.1441 C   0  0  0  0  0  0  0  0  0  0  0  0
    2.6371    0.0110   -0.2772 O   0  0  0  0  0  0  0  0  0  0  0  0
    1.4021    0.3608   -3.6225 C   0  0  0  0  0  0  0  0  0  0  0  0
    3.1209   -2.2815   -3.2079 H   0  0  0  0  0  0  0  0  0  0  0  0
    3.2607   -0.0675   -2.6718 H   0  0  0  0  0  0  0  0  0  0  0  0
    0.3482    0.0687   -3.5978 H   0  0  0  0  0  0  0  0  0  0  0  0
    1.4665    1.4334   -3.4139 H   0  0  0  0  0  0  0  0  0  0  0  0
    1.7855    0.1828   -4.6317 H   0  0  0  0  0  0  0  0  0  0  0  0
    0.4471   -0.0879   -0.7996 N   0  0  0  0  0  0  0  0  0  0  0  0
   -0.0432   -0.0143    0.5890 C   0  0  2  0  0  0  0  0  0  0  0  0
   -0.2586   -1.4207    1.1984 C   0  0  0  0  0  0  0  0  0  0  0  0
   -0.6602   -1.5376    2.3499 O   0  0  0  0  0  0  0  0  0  0  0  0
   -1.3521    0.8094    0.6653 C   0  0  0  0  0  0  0  0  0  0  0  0
   -1.2620    2.3219    0.3315 C   0  0  0  0  0  0  0  0  0  0  0  0
   -2.6848    2.8972    0.3260 C   0  0  0  0  0  0  0  0  0  0  0  0
   -0.6099    2.6694   -1.0150 C   0  0  0  0  0  0  0  0  0  0  0  0
   -0.1881   -0.4450   -1.5155 H   0  0  0  0  0  0  0  0  0  0  0  0
    0.6997    0.4882    1.2177 H   0  0  0  0  0  0  0  0  0  0  0  0
   -1.7529    0.7261    1.6816 H   0  0  0  0  0  0  0  0  0  0  0  0
   -2.0805    0.3430   -0.0065 H   0  0  0  0  0  0  0  0  0  0  0  0
   -0.6862    2.8141    1.1225 H   0  0  0  0  0  0  0  0  0  0  0  0
   -3.2782    2.4558   -0.4813 H   0  0  0  0  0  0  0  0  0  0  0  0
   -2.6591    3.9825    0.1855 H   0  0  0  0  0  0  0  0  0  0  0  0
   -3.1847    2.6903    1.2777 H   0  0  0  0  0  0  0  0  0  0  0  0
   -1.0437    2.0703   -1.8217 H   0  0  0  0  0  0  0  0  0  0  0  0
   -0.7603    3.7274   -1.2520 H   0  0  0  0  0  0  0  0  0  0  0  0
    0.4689    2.4951   -0.9768 H   0  0  0  0  0  0  0  0  0  0  0  0
    0.0048   -2.5543    0.4461 N   0  0  0  0  0  0  0  0  0  0  0  0
    0.0021   -3.9616    0.8896 C   0  0  2  0  0  0  0  0  0  0  0  0
   -1.3867   -4.5418    1.2386 C   0  0  0  0  0  0  0  0  0  0  0  0
   -1.6899   -5.6561    0.8305 O   0  0  0  0  0  0  0  0  0  0  0  0
    0.9878   -4.1704    2.0469 C   0  0  0  0  0  0  0  0  0  0  0  0
    0.1803   -2.3779   -0.5441 H   0  0  0  0  0  0  0  0  0  0  0  0
    0.3702   -4.5539    0.0461 H   0  0  0  0  0  0  0  0  0  0  0  0
    0.6291   -3.6921    2.9631 H   0  0  0  0  0  0  0  0  0  0  0  0
    1.1105   -5.2394    2.2460 H   0  0  0  0  0  0  0  0  0  0  0  0
    1.9660   -3.7498    1.7945 H   0  0  0  0  0  0  0  0  0  0  0  0
   -2.2788   -3.8465    2.0297 N   0  0  0  0  0  0  0  0  0  0  0  0
   -3.5578   -4.3778    2.4782 C   0  0  0  0  0  0  0  0  0  0  0  0
   -1.9422   -2.9555    2.4059 H   0  0  0  0  0  0  0  0  0  0  0  0
   -3.4045   -5.2573    3.1120 H   0  0  0  0  0  0  0  0  0  0  0  0
   -4.0977   -3.6221    3.0568 H   0  0  0  0  0  0  0  0  0  0  0  0
   -4.1765   -4.6632    1.6209 H   0  0  0  0  0  0  0  0  0  0  0  0
  1  2  2  0  0  0  0
  1  3  1  0  0  0  0
  1  7  1  0  0  0  0
  3  4  1  0  0  0  0
  3  5  1  0  0  0  0
  3  6  1  0  0  0  0
  7  8  1  0  0  0  0
  7 12  1  0  0  0  0
  8  9  1  0  0  0  0
  8 11  1  0  0  0  0
  8 13  1  0  0  0  0
  9 10  2  0  0  0  0
  9 17  1  0  0  0  0
 11 14  1  0  0  0  0
 11 15  1  0  0  0  0
 11 16  1  0  0  0  0
 17 18  1  0  0  0  0
 17 25  1  0  0  0  0
 18 19  1  0  0  0  0
 18 21  1  0  0  0  0
 18 26  1  0  0  0  0
 19 20  2  0  0  0  0
 19 36  1  0  0  0  0
 21 22  1  0  0  0  0
 21 27  1  0  0  0  0
 21 28  1  0  0  0  0
 22 23  1  0  0  0  0
 22 24  1  0  0  0  0
 22 29  1  0  0  0  0
 23 30  1  0  0  0  0
 23 31  1  0  0  0  0
 23 32  1  0  0  0  0
 24 33  1  0  0  0  0
 24 34  1  0  0  0  0
 24 35  1  0  0  0  0
 36 37  1  0  0  0  0
 36 41  1  0  0  0  0
 37 38  1  0  0  0  0
 37 40  1  0  0  0  0
 37 42  1  0  0  0  0
 38 39  2  0  0  0  0
 38 46  1  0  0  0  0
 40 43  1  0  0  0  0
 40 44  1  0  0  0  0
 40 45  1  0  0  0  0
 46 47  1  0  0  0  0
 46 48  1  0  0  0  0
 47 49  1  0  0  0  0
 47 50  1  0  0  0  0
 47 51  1  0  0  0  0
M  END
$$$$

  -OEChem-05262216553D

 51 50  0     1  0  0  0  0  0999 V2000
    1.0590   -2.7575   -2.8402 C   0  0  0  0  0  0  0  0  0  0  0  0
    0.0016   -2.3426   -2.3928 O   0  0  0  0  0  0  0  0  0  0  0  0
    1.2094   -4.2260   -3.1884 C   0  0  0  0  0  0  0  0  0  0  0  0
    2.0526   -4.6583   -2.6440 H   0  0  0  0  0  0  0  0  0  0  0  0
    0.3016   -4.7738   -2.9170 H   0  0  0  0  0  0  0  0  0  0  0  0
    1.3809   -4.3399   -4.2615 H   0  0  0  0  0  0  0  0  0  0  0  0
    2.1408   -1.9043   -2.9500 N   0  0  0  0  0  0  0  0  0  0  0  0
    2.1427   -0.4542   -2.6629 C   0  0  2  0  0  0  0  0  0  0  0  0
    1.7753   -0.0983   -1.2030 C   0  0  0  0  0  0  0  0  0  0  0  0
    2.6675    0.0940   -0.3907 O   0  0  0  0  0  0  0  0  0  0  0  0
    1.2542    0.2911   -3.6709 C   0  0  0  0  0  0  0  0  0  0  0  0
    3.0086   -2.3212   -3.2775 H   0  0  0  0  0  0  0  0  0  0  0  0
    3.1660   -0.0919   -2.8089 H   0  0  0  0  0  0  0  0  0  0  0  0
    0.2045   -0.0008   -3.5737 H   0  0  0  0  0  0  0  0  0  0  0  0
    1.3257    1.3713   -3.5085 H   0  0  0  0  0  0  0  0  0  0  0  0
    1.5786    0.0740   -4.6930 H   0  0  0  0  0  0  0  0  0  0  0  0
    0.4590   -0.1037   -0.7776 N   0  0  0  0  0  0  0  0  0  0  0  0
    0.0425   -0.0096    0.6340 C   0  0  2  0  0  0  0  0  0  0  0  0
   -0.0758   -1.4139    1.2806 C   0  0  0  0  0  0  0  0  0  0  0  0
   -0.6742   -1.5749    2.3378 O   0  0  0  0  0  0  0  0  0  0  0  0
   -1.2884    0.7761    0.7512 C   0  0  0  0  0  0  0  0  0  0  0  0
   -1.2643    2.2804    0.3712 C   0  0  0  0  0  0  0  0  0  0  0  0
   -2.7042    2.8093    0.4193 C   0  0  0  0  0  0  0  0  0  0  0  0
   -0.6871    2.6120   -1.0128 C   0  0  0  0  0  0  0  0  0  0  0  0
   -0.1957   -0.5322   -1.4368 H   0  0  0  0  0  0  0  0  0  0  0  0
    0.7984    0.5365    1.2083 H   0  0  0  0  0  0  0  0  0  0  0  0
   -1.6386    0.7140    1.7873 H   0  0  0  0  0  0  0  0  0  0  0  0
   -2.0319    0.2665    0.1290 H   0  0  0  0  0  0  0  0  0  0  0  0
   -0.6689    2.8132    1.1203 H   0  0  0  0  0  0  0  0  0  0  0  0
   -3.3223    2.3200   -0.3405 H   0  0  0  0  0  0  0  0  0  0  0  0
   -2.7228    3.8889    0.2400 H   0  0  0  0  0  0  0  0  0  0  0  0
   -3.1477    2.6212    1.4021 H   0  0  0  0  0  0  0  0  0  0  0  0
   -1.1400    1.9803   -1.7834 H   0  0  0  0  0  0  0  0  0  0  0  0
   -0.8799    3.6589   -1.2671 H   0  0  0  0  0  0  0  0  0  0  0  0
    0.3970    2.4704   -1.0213 H   0  0  0  0  0  0  0  0  0  0  0  0
    0.4888   -2.5063    0.6432 N   0  0  0  0  0  0  0  0  0  0  0  0
    0.4978   -3.9150    1.0815 C   0  0  2  0  0  0  0  0  0  0  0  0
   -0.8845   -4.6030    1.0622 C   0  0  0  0  0  0  0  0  0  0  0  0
   -1.0094   -5.6841    0.5001 O   0  0  0  0  0  0  0  0  0  0  0  0
    1.1704   -4.0690    2.4524 C   0  0  0  0  0  0  0  0  0  0  0  0
    0.7986   -2.3122   -0.3065 H   0  0  0  0  0  0  0  0  0  0  0  0
    1.1170   -4.4623    0.3640 H   0  0  0  0  0  0  0  0  0  0  0  0
    0.5567   -3.6369    3.2482 H   0  0  0  0  0  0  0  0  0  0  0  0
    1.3219   -5.1292    2.6776 H   0  0  0  0  0  0  0  0  0  0  0  0
    2.1451   -3.5719    2.4549 H   0  0  0  0  0  0  0  0  0  0  0  0
   -1.9763   -4.0264    1.6789 N   0  0  0  0  0  0  0  0  0  0  0  0
   -3.3031   -4.6233    1.7217 C   0  0  0  0  0  0  0  0  0  0  0  0
   -1.8100   -3.1259    2.1370 H   0  0  0  0  0  0  0  0  0  0  0  0
   -3.2760   -5.5784    2.2564 H   0  0  0  0  0  0  0  0  0  0  0  0
   -3.9996   -3.9562    2.2385 H   0  0  0  0  0  0  0  0  0  0  0  0
   -3.6779   -4.7965    0.7077 H   0  0  0  0  0  0  0  0  0  0  0  0
  1  2  2  0  0  0  0
  1  3  1  0  0  0  0
  1  7  1  0  0  0  0
  3  4  1  0  0  0  0
  3  5  1  0  0  0  0
  3  6  1  0  0  0  0
  7  8  1  0  0  0  0
  7 12  1  0  0  0  0
  8  9  1  0  0  0  0
  8 11  1  0  0  0  0
  8 13  1  0  0  0  0
  9 10  2  0  0  0  0
  9 17  1  0  0  0  0
 11 14  1  0  0  0  0
 11 15  1  0  0  0  0
 11 16  1  0  0  0  0
 17 18  1  0  0  0  0
 17 25  1  0  0  0  0
 18 19  1  0  0  0  0
 18 21  1  0  0  0  0
 18 26  1  0  0  0  0
 19 20  2  0  0  0  0
 19 36  1  0  0  0  0
 21 22  1  0  0  0  0
 21 27  1  0  0  0  0
 21 28  1  0  0  0  0
 22 23  1  0  0  0  0
 22 24  1  0  0  0  0
 22 29  1  0  0  0  0
 23 30  1  0  0  0  0
 23 31  1  0  0  0  0
 23 32  1  0  0  0  0
 24 33  1  0  0  0  0
 24 34  1  0  0  0  0
 24 35  1  0  0  0  0
 36 37  1  0  0  0  0
 36 41  1  0  0  0  0
 37 38  1  0  0  0  0
 37 40  1  0  0  0  0
 37 42  1  0  0  0  0
 38 39  2  0  0  0  0
 38 46  1  0  0  0  0
 40 43  1  0  0  0  0
 40 44  1  0  0  0  0
 40 45  1  0  0  0  0
 46 47  1  0  0  0  0
 46 48  1  0  0  0  0
 47 49  1  0  0  0  0
 47 50  1  0  0  0  0
 47 51  1  0  0  0  0
M  END
$$$$

  -OEChem-05262216553D

 51 50  0     1  0  0  0  0  0999 V2000
    2.0846   -2.9044   -2.8692 C   0  0  0  0  0  0  0  0  0  0  0  0
    1.0853   -3.0881   -2.1906 O   0  0  0  0  0  0  0  0  0  0  0  0
    3.0407   -4.0508   -3.1368 C   0  0  0  0  0  0  0  0  0  0  0  0
    4.0079   -3.8463   -2.6712 H   0  0  0  0  0  0  0  0  0  0  0  0
    2.6403   -4.9803   -2.7220 H   0  0  0  0  0  0  0  0  0  0  0  0
    3.1804   -4.1786   -4.2128 H   0  0  0  0  0  0  0  0  0  0  0  0
    2.3717   -1.6403   -3.3485 N   0  0  0  0  0  0  0  0  0  0  0  0
    1.6027   -0.4310   -3.0036 C   0  0  2  0  0  0  0  0  0  0  0  0
    1.4488   -0.2418   -1.4740 C   0  0  0  0  0  0  0  0  0  0  0  0
    2.4498   -0.2266   -0.7709 O   0  0  0  0  0  0  0  0  0  0  0  0
    0.2627   -0.4422   -3.7579 C   0  0  0  0  0  0  0  0  0  0  0  0
    3.2890   -1.5194   -3.7685 H   0  0  0  0  0  0  0  0  0  0  0  0
    2.1656    0.4391   -3.3552 H   0  0  0  0  0  0  0  0  0  0  0  0
   -0.3711   -1.2715   -3.4282 H   0  0  0  0  0  0  0  0  0  0  0  0
   -0.2758    0.4961   -3.5928 H   0  0  0  0  0  0  0  0  0  0  0  0
    0.4373   -0.5514   -4.8328 H   0  0  0  0  0  0  0  0  0  0  0  0
    0.2072   -0.1293   -0.8717 N   0  0  0  0  0  0  0  0  0  0  0  0
   -0.0043   -0.0794    0.5864 C   0  0  2  0  0  0  0  0  0  0  0  0
   -0.2030   -1.4967    1.1886 C   0  0  0  0  0  0  0  0  0  0  0  0
   -0.8993   -1.6586    2.1843 O   0  0  0  0  0  0  0  0  0  0  0  0
   -1.1825    0.8717    0.9258 C   0  0  0  0  0  0  0  0  0  0  0  0
   -0.9893    2.3816    0.6220 C   0  0  0  0  0  0  0  0  0  0  0  0
   -2.3185    3.0989    0.8950 C   0  0  0  0  0  0  0  0  0  0  0  0
   -0.5583    2.7251   -0.8117 C   0  0  0  0  0  0  0  0  0  0  0  0
   -0.5992   -0.3017   -1.4656 H   0  0  0  0  0  0  0  0  0  0  0  0
    0.8865    0.3316    1.0729 H   0  0  0  0  0  0  0  0  0  0  0  0
   -1.3964    0.7919    1.9970 H   0  0  0  0  0  0  0  0  0  0  0  0
   -2.0685    0.5114    0.3925 H   0  0  0  0  0  0  0  0  0  0  0  0
   -0.2293    2.7751    1.3059 H   0  0  0  0  0  0  0  0  0  0  0  0
   -3.0963    2.7499    0.2085 H   0  0  0  0  0  0  0  0  0  0  0  0
   -2.2046    4.1802    0.7695 H   0  0  0  0  0  0  0  0  0  0  0  0
   -2.6502    2.9094    1.9207 H   0  0  0  0  0  0  0  0  0  0  0  0
   -1.1934    2.2128   -1.5408 H   0  0  0  0  0  0  0  0  0  0  0  0
   -0.6338    3.8029   -0.9861 H   0  0  0  0  0  0  0  0  0  0  0  0
    0.4842    2.4415   -0.9784 H   0  0  0  0  0  0  0  0  0  0  0  0
    0.4011   -2.5993    0.6066 N   0  0  0  0  0  0  0  0  0  0  0  0
    0.3902   -3.9999    1.0758 C   0  0  2  0  0  0  0  0  0  0  0  0
   -0.9785   -4.7160    1.0102 C   0  0  0  0  0  0  0  0  0  0  0  0
   -1.0342   -5.8843    0.6453 O   0  0  0  0  0  0  0  0  0  0  0  0
    0.9950   -4.1093    2.4815 C   0  0  0  0  0  0  0  0  0  0  0  0
    0.8565   -2.4277   -0.2930 H   0  0  0  0  0  0  0  0  0  0  0  0
    1.0483   -4.5554    0.3997 H   0  0  0  0  0  0  0  0  0  0  0  0
    0.3323   -3.6697    3.2324 H   0  0  0  0  0  0  0  0  0  0  0  0
    1.1535   -5.1608    2.7397 H   0  0  0  0  0  0  0  0  0  0  0  0
    1.9590   -3.5934    2.5209 H   0  0  0  0  0  0  0  0  0  0  0  0
   -2.1380   -4.0877    1.4191 N   0  0  0  0  0  0  0  0  0  0  0  0
   -3.4293   -4.7519    1.5215 C   0  0  0  0  0  0  0  0  0  0  0  0
   -2.0137   -3.1618    1.8371 H   0  0  0  0  0  0  0  0  0  0  0  0
   -4.1918   -4.0433    1.8585 H   0  0  0  0  0  0  0  0  0  0  0  0
   -3.7333   -5.1493    0.5476 H   0  0  0  0  0  0  0  0  0  0  0  0
   -3.3793   -5.5767    2.2398 H   0  0  0  0  0  0  0  0  0  0  0  0
  1  2  2  0  0  0  0
  1  3  1  0  0  0  0
  1  7  1  0  0  0  0
  3  4  1  0  0  0  0
  3  5  1  0  0  0  0
  3  6  1  0  0  0  0
  7  8  1  0  0  0  0
  7 12  1  0  0  0  0
  8  9  1  0  0  0  0
  8 11  1  0  0  0  0
  8 13  1  0  0  0  0
  9 10  2  0  0  0  0
  9 17  1  0  0  0  0
 11 14  1  0  0  0  0
 11 15  1  0  0  0  0
 11 16  1  0  0  0  0
 17 18  1  0  0  0  0
 17 25  1  0  0  0  0
 18 19  1  0  0  0  0
 18 21  1  0  0  0  0
 18 26  1  0  0  0  0
 19 20  2  0  0  0  0
 19 36  1  0  0  0  0
 21 22  1  0  0  0  0
 21 27  1  0  0  0  0
 21 28  1  0  0  0  0
 22 23  1  0  0  0  0
 22 24  1  0  0  0  0
 22 29  1  0  0  0  0
 23 30  1  0  0  0  0
 23 31  1  0  0  0  0
 23 32  1  0  0  0  0
 24 33  1  0  0  0  0
 24 34  1  0  0  0  0
 24 35  1  0  0  0  0
 36 37  1  0  0  0  0
 36 41  1  0  0  0  0
 37 38  1  0  0  0  0
 37 40  1  0  0  0  0
 37 42  1  0  0  0  0
 38 39  2  0  0  0  0
 38 46  1  0  0  0  0
 40 43  1  0  0  0  0
 40 44  1  0  0  0  0
 40 45  1  0  0  0  0
 46 47  1  0  0  0  0
 46 48  1  0  0  0  0
 47 49  1  0  0  0  0
 47 50  1  0  0  0  0
 47 51  1  0  0  0  0
M  END
$$$$

  -OEChem-05262216553D

 51 50  0     1  0  0  0  0  0999 V2000
    2.8154   -2.8263   -2.6375 C   0  0  0  0  0  0  0  0  0  0  0  0
    2.2298   -3.2366   -1.6460 O   0  0  0  0  0  0  0  0  0  0  0  0
    4.1699   -3.4049   -3.0005 C   0  0  0  0  0  0  0  0  0  0  0  0
    4.9399   -2.6351   -2.9066 H   0  0  0  0  0  0  0  0  0  0  0  0
    4.4179   -4.2337   -2.3316 H   0  0  0  0  0  0  0  0  0  0  0  0
    4.1556   -3.7752   -4.0283 H   0  0  0  0  0  0  0  0  0  0  0  0
    2.2804   -1.8144   -3.4145 N   0  0  0  0  0  0  0  0  0  0  0  0
    1.0824   -1.0342   -3.0487 C   0  0  2  0  0  0  0  0  0  0  0  0
    1.1866   -0.3907   -1.6419 C   0  0  0  0  0  0  0  0  0  0  0  0
    2.2806   -0.0311   -1.2227 O   0  0  0  0  0  0  0  0  0  0  0  0
   -0.1684   -1.9083   -3.2296 C   0  0  0  0  0  0  0  0  0  0  0  0
    2.9041   -1.4214   -4.1127 H   0  0  0  0  0  0  0  0  0  0  0  0
    0.9968   -0.1997   -3.7508 H   0  0  0  0  0  0  0  0  0  0  0  0
   -0.1737   -2.7369   -2.5165 H   0  0  0  0  0  0  0  0  0  0  0  0
   -1.0787   -1.3194   -3.0833 H   0  0  0  0  0  0  0  0  0  0  0  0
   -0.1927   -2.3274   -4.2400 H   0  0  0  0  0  0  0  0  0  0  0  0
    0.0730   -0.1748   -0.8479 N   0  0  0  0  0  0  0  0  0  0  0  0
    0.1725    0.0819    0.6019 C   0  0  2  0  0  0  0  0  0  0  0  0
    0.1109   -1.2629    1.3680 C   0  0  0  0  0  0  0  0  0  0  0  0
   -0.6734   -1.4224    2.2980 O   0  0  0  0  0  0  0  0  0  0  0  0
   -0.9178    1.0820    1.0660 C   0  0  0  0  0  0  0  0  0  0  0  0
   -0.8240    2.5360    0.5331 C   0  0  0  0  0  0  0  0  0  0  0  0
   -2.0724    3.2987    0.9965 C   0  0  0  0  0  0  0  0  0  0  0  0
   -0.7268    2.6783   -0.9930 C   0  0  0  0  0  0  0  0  0  0  0  0
   -0.7725   -0.6503   -1.1601 H   0  0  0  0  0  0  0  0  0  0  0  0
    1.1384    0.5350    0.8465 H   0  0  0  0  0  0  0  0  0  0  0  0
   -0.8897    1.1367    2.1597 H   0  0  0  0  0  0  0  0  0  0  0  0
   -1.8927    0.6663    0.7886 H   0  0  0  0  0  0  0  0  0  0  0  0
    0.0611    3.0072    0.9736 H   0  0  0  0  0  0  0  0  0  0  0  0
   -2.9752    2.8755    0.5444 H   0  0  0  0  0  0  0  0  0  0  0  0
   -2.0039    4.3539    0.7144 H   0  0  0  0  0  0  0  0  0  0  0  0
   -2.1707    3.2442    2.0851 H   0  0  0  0  0  0  0  0  0  0  0  0
   -1.4939    2.0745   -1.4878 H   0  0  0  0  0  0  0  0  0  0  0  0
   -0.8647    3.7227   -1.2900 H   0  0  0  0  0  0  0  0  0  0  0  0
    0.2598    2.3667   -1.3464 H   0  0  0  0  0  0  0  0  0  0  0  0
    0.8558   -2.3448    0.9233 N   0  0  0  0  0  0  0  0  0  0  0  0
    0.4069   -3.7347    1.1050 C   0  0  2  0  0  0  0  0  0  0  0  0
   -1.0692   -3.9401    0.6682 C   0  0  0  0  0  0  0  0  0  0  0  0
   -1.4817   -3.4316   -0.3718 O   0  0  0  0  0  0  0  0  0  0  0  0
    0.7033   -4.2043    2.5389 C   0  0  0  0  0  0  0  0  0  0  0  0
    1.4159   -2.1707    0.0855 H   0  0  0  0  0  0  0  0  0  0  0  0
    1.0036   -4.3622    0.4364 H   0  0  0  0  0  0  0  0  0  0  0  0
    0.0751   -3.6808    3.2656 H   0  0  0  0  0  0  0  0  0  0  0  0
    0.5226   -5.2793    2.6327 H   0  0  0  0  0  0  0  0  0  0  0  0
    1.7515   -4.0111    2.7866 H   0  0  0  0  0  0  0  0  0  0  0  0
   -1.9462   -4.6880    1.4345 N   0  0  0  0  0  0  0  0  0  0  0  0
   -3.3754   -4.7549    1.1580 C   0  0  0  0  0  0  0  0  0  0  0  0
   -1.6261   -4.9228    2.3690 H   0  0  0  0  0  0  0  0  0  0  0  0
   -3.8601   -5.4570    1.8431 H   0  0  0  0  0  0  0  0  0  0  0  0
   -3.8348   -3.7691    1.2861 H   0  0  0  0  0  0  0  0  0  0  0  0
   -3.5541   -5.0969    0.1331 H   0  0  0  0  0  0  0  0  0  0  0  0
  1  2  2  0  0  0  0
  1  3  1  0  0  0  0
  1  7  1  0  0  0  0
  3  4  1  0  0  0  0
  3  5  1  0  0  0  0
  3  6  1  0  0  0  0
  7  8  1  0  0  0  0
  7 12  1  0  0  0  0
  8  9  1  0  0  0  0
  8 11  1  0  0  0  0
  8 13  1  0  0  0  0
  9 10  2  0  0  0  0
  9 17  1  0  0  0  0
 11 14  1  0  0  0  0
 11 15  1  0  0  0  0
 11 16  1  0  0  0  0
 17 18  1  0  0  0  0
 17 25  1  0  0  0  0
 18 19  1  0  0  0  0
 18 21  1  0  0  0  0
 18 26  1  0  0  0  0
 19 20  2  0  0  0  0
 19 36  1  0  0  0  0
 21 22  1  0  0  0  0
 21 27  1  0  0  0  0
 21 28  1  0  0  0  0
 22 23  1  0  0  0  0
 22 24  1  0  0  0  0
 22 29  1  0  0  0  0
 23 30  1  0  0  0  0
 23 31  1  0  0  0  0
 23 32  1  0  0  0  0
 24 33  1  0  0  0  0
 24 34  1  0  0  0  0
 24 35  1  0  0  0  0
 36 37  1  0  0  0  0
 36 41  1  0  0  0  0
 37 38  1  0  0  0  0
 37 40  1  0  0  0  0
 37 42  1  0  0  0  0
 38 39  2  0  0  0  0
 38 46  1  0  0  0  0
 40 43  1  0  0  0  0
 40 44  1  0  0  0  0
 40 45  1  0  0  0  0
 46 47  1  0  0  0  0
 46 48  1  0  0  0  0
 47 49  1  0  0  0  0
 47 50  1  0  0  0  0
 47 51  1  0  0  0  0
M  END
$$$$

  -OEChem-05262216553D

 51 50  0     1  0  0  0  0  0999 V2000
    2.7637   -2.8509   -2.5167 C   0  0  0  0  0  0  0  0  0  0  0  0
    2.1860   -3.1735   -1.4894 O   0  0  0  0  0  0  0  0  0  0  0  0
    4.0649   -3.5366   -2.8864 C   0  0  0  0  0  0  0  0  0  0  0  0
    4.8820   -2.8112   -2.8841 H   0  0  0  0  0  0  0  0  0  0  0  0
    4.2932   -4.3258   -2.1648 H   0  0  0  0  0  0  0  0  0  0  0  0
    3.9830   -3.9824   -3.8805 H   0  0  0  0  0  0  0  0  0  0  0  0
    2.2668   -1.8537   -3.3371 N   0  0  0  0  0  0  0  0  0  0  0  0
    1.0894   -1.0212   -3.0236 C   0  0  2  0  0  0  0  0  0  0  0  0
    1.1698   -0.3425   -1.6319 C   0  0  0  0  0  0  0  0  0  0  0  0
    2.2609   -0.0067   -1.1850 O   0  0  0  0  0  0  0  0  0  0  0  0
   -0.1814   -1.8625   -3.2138 C   0  0  0  0  0  0  0  0  0  0  0  0
    2.8807   -1.5477   -4.0853 H   0  0  0  0  0  0  0  0  0  0  0  0
    1.0512   -0.2039   -3.7497 H   0  0  0  0  0  0  0  0  0  0  0  0
   -0.2321   -2.6640   -2.4718 H   0  0  0  0  0  0  0  0  0  0  0  0
   -1.0766   -1.2414   -3.1170 H   0  0  0  0  0  0  0  0  0  0  0  0
   -0.1884   -2.3164   -4.2092 H   0  0  0  0  0  0  0  0  0  0  0  0
    0.0379   -0.0720   -0.8804 N   0  0  0  0  0  0  0  0  0  0  0  0
    0.1082    0.1668    0.5728 C   0  0  2  0  0  0  0  0  0  0  0  0
   -0.0514   -1.1842    1.3085 C   0  0  0  0  0  0  0  0  0  0  0  0
   -0.9712   -1.3690    2.0989 O   0  0  0  0  0  0  0  0  0  0  0  0
   -0.9410    1.2150    1.0225 C   0  0  0  0  0  0  0  0  0  0  0  0
   -0.7587    2.6680    0.5106 C   0  0  0  0  0  0  0  0  0  0  0  0
   -1.9776    3.4891    0.9520 C   0  0  0  0  0  0  0  0  0  0  0  0
   -0.6142    2.8199   -1.0104 C   0  0  0  0  0  0  0  0  0  0  0  0
   -0.8137   -0.5146   -1.2192 H   0  0  0  0  0  0  0  0  0  0  0  0
    1.0880    0.5652    0.8550 H   0  0  0  0  0  0  0  0  0  0  0  0
   -0.9410    1.2504    2.1176 H   0  0  0  0  0  0  0  0  0  0  0  0
   -1.9276    0.8544    0.7120 H   0  0  0  0  0  0  0  0  0  0  0  0
    0.1379    3.0884    0.9788 H   0  0  0  0  0  0  0  0  0  0  0  0
   -2.8910    3.1111    0.4815 H   0  0  0  0  0  0  0  0  0  0  0  0
   -1.8535    4.5406    0.6745 H   0  0  0  0  0  0  0  0  0  0  0  0
   -2.0994    3.4365    2.0385 H   0  0  0  0  0  0  0  0  0  0  0  0
   -1.4008    2.2652   -1.5311 H   0  0  0  0  0  0  0  0  0  0  0  0
   -0.6848    3.8730   -1.2991 H   0  0  0  0  0  0  0  0  0  0  0  0
    0.3621    2.4564   -1.3418 H   0  0  0  0  0  0  0  0  0  0  0  0
    0.8608   -2.1990    1.0699 N   0  0  0  0  0  0  0  0  0  0  0  0
    0.5864   -3.6116    1.3801 C   0  0  2  0  0  0  0  0  0  0  0  0
   -0.7612   -4.1210    0.7978 C   0  0  0  0  0  0  0  0  0  0  0  0
   -1.1740   -3.7157   -0.2854 O   0  0  0  0  0  0  0  0  0  0  0  0
    0.7270   -3.8477    2.8933 C   0  0  0  0  0  0  0  0  0  0  0  0
    1.4853   -2.0351    0.2760 H   0  0  0  0  0  0  0  0  0  0  0  0
    1.3630   -4.2062    0.8896 H   0  0  0  0  0  0  0  0  0  0  0  0
   -0.0996   -3.3870    3.4425 H   0  0  0  0  0  0  0  0  0  0  0  0
    0.7369   -4.9188    3.1146 H   0  0  0  0  0  0  0  0  0  0  0  0
    1.6653   -3.4160    3.2549 H   0  0  0  0  0  0  0  0  0  0  0  0
   -1.4978   -5.0897    1.4579 N   0  0  0  0  0  0  0  0  0  0  0  0
   -2.8020   -5.5497    0.9982 C   0  0  0  0  0  0  0  0  0  0  0  0
   -1.2082   -5.3120    2.4049 H   0  0  0  0  0  0  0  0  0  0  0  0
   -3.1998   -6.3035    1.6842 H   0  0  0  0  0  0  0  0  0  0  0  0
   -3.5083   -4.7140    0.9521 H   0  0  0  0  0  0  0  0  0  0  0  0
   -2.7210   -5.9988    0.0029 H   0  0  0  0  0  0  0  0  0  0  0  0
  1  2  2  0  0  0  0
  1  3  1  0  0  0  0
  1  7  1  0  0  0  0
  3  4  1  0  0  0  0
  3  5  1  0  0  0  0
  3  6  1  0  0  0  0
  7  8  1  0  0  0  0
  7 12  1  0  0  0  0
  8  9  1  0  0  0  0
  8 11  1  0  0  0  0
  8 13  1  0  0  0  0
  9 10  2  0  0  0  0
  9 17  1  0  0  0  0
 11 14  1  0  0  0  0
 11 15  1  0  0  0  0
 11 16  1  0  0  0  0
 17 18  1  0  0  0  0
 17 25  1  0  0  0  0
 18 19  1  0  0  0  0
 18 21  1  0  0  0  0
 18 26  1  0  0  0  0
 19 20  2  0  0  0  0
 19 36  1  0  0  0  0
 21 22  1  0  0  0  0
 21 27  1  0  0  0  0
 21 28  1  0  0  0  0
 22 23  1  0  0  0  0
 22 24  1  0  0  0  0
 22 29  1  0  0  0  0
 23 30  1  0  0  0  0
 23 31  1  0  0  0  0
 23 32  1  0  0  0  0
 24 33  1  0  0  0  0
 24 34  1  0  0  0  0
 24 35  1  0  0  0  0
 36 37  1  0  0  0  0
 36 41  1  0  0  0  0
 37 38  1  0  0  0  0
 37 40  1  0  0  0  0
 37 42  1  0  0  0  0
 38 39  2  0  0  0  0
 38 46  1  0  0  0  0
 40 43  1  0  0  0  0
 40 44  1  0  0  0  0
 40 45  1  0  0  0  0
 46 47  1  0  0  0  0
 46 48  1  0  0  0  0
 47 49  1  0  0  0  0
 47 50  1  0  0  0  0
 47 51  1  0  0  0  0
M  END
$$$$

  -OEChem-05262216553D

 51 50  0     1  0  0  0  0  0999 V2000
    0.4639   -2.9211   -2.6344 C   0  0  0  0  0  0  0  0  0  0  0  0
   -0.5397   -2.2609   -2.4061 O   0  0  0  0  0  0  0  0  0  0  0  0
    0.3463   -4.4052   -2.9277 C   0  0  0  0  0  0  0  0  0  0  0  0
    0.9079   -4.9793   -2.1870 H   0  0  0  0  0  0  0  0  0  0  0  0
   -0.7012   -4.7164   -2.8967 H   0  0  0  0  0  0  0  0  0  0  0  0
    0.7462   -4.6216   -3.9211 H   0  0  0  0  0  0  0  0  0  0  0  0
    1.7076   -2.3210   -2.6873 N   0  0  0  0  0  0  0  0  0  0  0  0
    2.0042   -0.8821   -2.5393 C   0  0  2  0  0  0  0  0  0  0  0  0
    1.7227   -0.3293   -1.1264 C   0  0  0  0  0  0  0  0  0  0  0  0
    2.6618   -0.0422   -0.3915 O   0  0  0  0  0  0  0  0  0  0  0  0
    1.2917   -0.0499   -3.6160 C   0  0  0  0  0  0  0  0  0  0  0  0
    2.4962   -2.9605   -2.7502 H   0  0  0  0  0  0  0  0  0  0  0  0
    3.0794   -0.7582   -2.7053 H   0  0  0  0  0  0  0  0  0  0  0  0
    0.2075   -0.0532   -3.4726 H   0  0  0  0  0  0  0  0  0  0  0  0
    1.6362    0.9882   -3.5766 H   0  0  0  0  0  0  0  0  0  0  0  0
    1.5112   -0.4490   -4.6107 H   0  0  0  0  0  0  0  0  0  0  0  0
    0.4459   -0.3026   -0.5991 N   0  0  0  0  0  0  0  0  0  0  0  0
    0.1636    0.0630    0.7961 C   0  0  2  0  0  0  0  0  0  0  0  0
    0.2157   -1.2338    1.6242 C   0  0  0  0  0  0  0  0  0  0  0  0
   -0.7929   -1.8073    2.0229 O   0  0  0  0  0  0  0  0  0  0  0  0
   -1.1935    0.7939    0.9334 C   0  0  0  0  0  0  0  0  0  0  0  0
   -1.3128    2.1922    0.2727 C   0  0  0  0  0  0  0  0  0  0  0  0
   -2.7677    2.6628    0.4011 C   0  0  0  0  0  0  0  0  0  0  0  0
   -0.9289    2.2538   -1.2130 C   0  0  0  0  0  0  0  0  0  0  0  0
   -0.2693   -0.8010   -1.1396 H   0  0  0  0  0  0  0  0  0  0  0  0
    0.9300    0.7421    1.1839 H   0  0  0  0  0  0  0  0  0  0  0  0
   -1.4132    0.9061    2.0006 H   0  0  0  0  0  0  0  0  0  0  0  0
   -1.9681    0.1438    0.5111 H   0  0  0  0  0  0  0  0  0  0  0  0
   -0.6676    2.8884    0.8191 H   0  0  0  0  0  0  0  0  0  0  0  0
   -3.4388    2.0052   -0.1609 H   0  0  0  0  0  0  0  0  0  0  0  0
   -2.8769    3.6814    0.0159 H   0  0  0  0  0  0  0  0  0  0  0  0
   -3.0785    2.6615    1.4506 H   0  0  0  0  0  0  0  0  0  0  0  0
   -1.4248    1.4552   -1.7739 H   0  0  0  0  0  0  0  0  0  0  0  0
   -1.2245    3.2147   -1.6458 H   0  0  0  0  0  0  0  0  0  0  0  0
    0.1534    2.1608   -1.3356 H   0  0  0  0  0  0  0  0  0  0  0  0
    1.4748   -1.7504    1.8763 N   0  0  0  0  0  0  0  0  0  0  0  0
    1.7460   -3.1530    2.2335 C   0  0  2  0  0  0  0  0  0  0  0  0
    1.1191   -4.1598    1.2379 C   0  0  0  0  0  0  0  0  0  0  0  0
    1.7903   -4.5937    0.3075 O   0  0  0  0  0  0  0  0  0  0  0  0
    1.3354   -3.4326    3.6870 C   0  0  0  0  0  0  0  0  0  0  0  0
    2.2143   -1.2592    1.3668 H   0  0  0  0  0  0  0  0  0  0  0  0
    2.8289   -3.3022    2.1750 H   0  0  0  0  0  0  0  0  0  0  0  0
    0.2564   -3.3242    3.8285 H   0  0  0  0  0  0  0  0  0  0  0  0
    1.6173   -4.4522    3.9674 H   0  0  0  0  0  0  0  0  0  0  0  0
    1.8421   -2.7354    4.3609 H   0  0  0  0  0  0  0  0  0  0  0  0
   -0.2156   -4.5032    1.3396 N   0  0  0  0  0  0  0  0  0  0  0  0
   -0.9311   -5.2760    0.3344 C   0  0  0  0  0  0  0  0  0  0  0  0
   -0.7626   -3.8482    1.9047 H   0  0  0  0  0  0  0  0  0  0  0  0
   -1.8494   -5.6884    0.7637 H   0  0  0  0  0  0  0  0  0  0  0  0
   -1.2002   -4.6363   -0.5111 H   0  0  0  0  0  0  0  0  0  0  0  0
   -0.3216   -6.1102   -0.0286 H   0  0  0  0  0  0  0  0  0  0  0  0
  1  2  2  0  0  0  0
  1  3  1  0  0  0  0
  1  7  1  0  0  0  0
  3  4  1  0  0  0  0
  3  5  1  0  0  0  0
  3  6  1  0  0  0  0
  7  8  1  0  0  0  0
  7 12  1  0  0  0  0
  8  9  1  0  0  0  0
  8 11  1  0  0  0  0
  8 13  1  0  0  0  0
  9 10  2  0  0  0  0
  9 17  1  0  0  0  0
 11 14  1  0  0  0  0
 11 15  1  0  0  0  0
 11 16  1  0  0  0  0
 17 18  1  0  0  0  0
 17 25  1  0  0  0  0
 18 19  1  0  0  0  0
 18 21  1  0  0  0  0
 18 26  1  0  0  0  0
 19 20  2  0  0  0  0
 19 36  1  0  0  0  0
 21 22  1  0  0  0  0
 21 27  1  0  0  0  0
 21 28  1  0  0  0  0
 22 23  1  0  0  0  0
 22 24  1  0  0  0  0
 22 29  1  0  0  0  0
 23 30  1  0  0  0  0
 23 31  1  0  0  0  0
 23 32  1  0  0  0  0
 24 33  1  0  0  0  0
 24 34  1  0  0  0  0
 24 35  1  0  0  0  0
 36 37  1  0  0  0  0
 36 41  1  0  0  0  0
 37 38  1  0  0  0  0
 37 40  1  0  0  0  0
 37 42  1  0  0  0  0
 38 39  2  0  0  0  0
 38 46  1  0  0  0  0
 40 43  1  0  0  0  0
 40 44  1  0  0  0  0
 40 45  1  0  0  0  0
 46 47  1  0  0  0  0
 46 48  1  0  0  0  0
 47 49  1  0  0  0  0
 47 50  1  0  0  0  0
 47 51  1  0  0  0  0
M  END
$$$$

  -OEChem-05262216553D

 51 50  0     1  0  0  0  0  0999 V2000
    3.1976   -2.5625   -3.1796 C   0  0  0  0  0  0  0  0  0  0  0  0
    2.8987   -3.4932   -2.4520 O   0  0  0  0  0  0  0  0  0  0  0  0
    4.6013   -2.4976   -3.7523 C   0  0  0  0  0  0  0  0  0  0  0  0
    5.1188   -1.6162   -3.3660 H   0  0  0  0  0  0  0  0  0  0  0  0
    5.1663   -3.3897   -3.4681 H   0  0  0  0  0  0  0  0  0  0  0  0
    4.5590   -2.4411   -4.8425 H   0  0  0  0  0  0  0  0  0  0  0  0
    2.3018   -1.5588   -3.5054 N   0  0  0  0  0  0  0  0  0  0  0  0
    1.0046   -1.3120   -2.8410 C   0  0  2  0  0  0  0  0  0  0  0  0
    1.1293   -0.7874   -1.3893 C   0  0  0  0  0  0  0  0  0  0  0  0
    2.2238   -0.6273   -0.8572 O   0  0  0  0  0  0  0  0  0  0  0  0
    0.0744   -2.5335   -2.9163 C   0  0  0  0  0  0  0  0  0  0  0  0
    2.7154   -0.7763   -4.0014 H   0  0  0  0  0  0  0  0  0  0  0  0
    0.5149   -0.5139   -3.4061 H   0  0  0  0  0  0  0  0  0  0  0  0
    0.4002   -3.3214   -2.2308 H   0  0  0  0  0  0  0  0  0  0  0  0
   -0.9474   -2.2544   -2.6433 H   0  0  0  0  0  0  0  0  0  0  0  0
    0.0616   -2.9404   -3.9317 H   0  0  0  0  0  0  0  0  0  0  0  0
    0.0087   -0.3191   -0.7218 N   0  0  0  0  0  0  0  0  0  0  0  0
    0.0479    0.0579    0.6992 C   0  0  2  0  0  0  0  0  0  0  0  0
   -0.2903   -1.1910    1.5332 C   0  0  0  0  0  0  0  0  0  0  0  0
   -1.4439   -1.4269    1.8761 O   0  0  0  0  0  0  0  0  0  0  0  0
   -0.9057    1.2371    1.0077 C   0  0  0  0  0  0  0  0  0  0  0  0
   -0.5610    2.6086    0.3700 C   0  0  0  0  0  0  0  0  0  0  0  0
   -1.7035    3.5841    0.6812 C   0  0  0  0  0  0  0  0  0  0  0  0
   -0.3530    2.5973   -1.1518 C   0  0  0  0  0  0  0  0  0  0  0  0
   -0.8886   -0.6154   -1.0979 H   0  0  0  0  0  0  0  0  0  0  0  0
    1.0501    0.3891    0.9904 H   0  0  0  0  0  0  0  0  0  0  0  0
   -0.9416    1.3695    2.0944 H   0  0  0  0  0  0  0  0  0  0  0  0
   -1.9124    0.9484    0.6856 H   0  0  0  0  0  0  0  0  0  0  0  0
    0.3583    2.9830    0.8330 H   0  0  0  0  0  0  0  0  0  0  0  0
   -2.6355    3.2513    0.2131 H   0  0  0  0  0  0  0  0  0  0  0  0
   -1.4653    4.5854    0.3088 H   0  0  0  0  0  0  0  0  0  0  0  0
   -1.8623    3.6531    1.7620 H   0  0  0  0  0  0  0  0  0  0  0  0
   -1.1792    2.0822   -1.6517 H   0  0  0  0  0  0  0  0  0  0  0  0
   -0.2989    3.6199   -1.5385 H   0  0  0  0  0  0  0  0  0  0  0  0
    0.5877    2.1028   -1.4084 H   0  0  0  0  0  0  0  0  0  0  0  0
    0.7479   -2.0160    1.9276 N   0  0  0  0  0  0  0  0  0  0  0  0
    0.5283   -3.3880    2.4179 C   0  0  2  0  0  0  0  0  0  0  0  0
   -0.3829   -4.2340    1.4862 C   0  0  0  0  0  0  0  0  0  0  0  0
   -0.2849   -4.1274    0.2690 O   0  0  0  0  0  0  0  0  0  0  0  0
    0.0358   -3.3409    3.8739 C   0  0  0  0  0  0  0  0  0  0  0  0
    1.6094   -1.8543    1.4048 H   0  0  0  0  0  0  0  0  0  0  0  0
    1.4986   -3.8939    2.4217 H   0  0  0  0  0  0  0  0  0  0  0  0
   -0.9819   -2.9434    3.9329 H   0  0  0  0  0  0  0  0  0  0  0  0
    0.0445   -4.3426    4.3136 H   0  0  0  0  0  0  0  0  0  0  0  0
    0.6912   -2.7001    4.4713 H   0  0  0  0  0  0  0  0  0  0  0  0
   -1.2806   -5.1551    1.9984 N   0  0  0  0  0  0  0  0  0  0  0  0
   -2.2148   -5.8988    1.1623 C   0  0  0  0  0  0  0  0  0  0  0  0
   -1.4461   -5.1195    2.9991 H   0  0  0  0  0  0  0  0  0  0  0  0
   -2.7807   -6.6121    1.7689 H   0  0  0  0  0  0  0  0  0  0  0  0
   -2.9203   -5.2160    0.6775 H   0  0  0  0  0  0  0  0  0  0  0  0
   -1.6772   -6.4572    0.3889 H   0  0  0  0  0  0  0  0  0  0  0  0
  1  2  2  0  0  0  0
  1  3  1  0  0  0  0
  1  7  1  0  0  0  0
  3  4  1  0  0  0  0
  3  5  1  0  0  0  0
  3  6  1  0  0  0  0
  7  8  1  0  0  0  0
  7 12  1  0  0  0  0
  8  9  1  0  0  0  0
  8 11  1  0  0  0  0
  8 13  1  0  0  0  0
  9 10  2  0  0  0  0
  9 17  1  0  0  0  0
 11 14  1  0  0  0  0
 11 15  1  0  0  0  0
 11 16  1  0  0  0  0
 17 18  1  0  0  0  0
 17 25  1  0  0  0  0
 18 19  1  0  0  0  0
 18 21  1  0  0  0  0
 18 26  1  0  0  0  0
 19 20  2  0  0  0  0
 19 36  1  0  0  0  0
 21 22  1  0  0  0  0
 21 27  1  0  0  0  0
 21 28  1  0  0  0  0
 22 23  1  0  0  0  0
 22 24  1  0  0  0  0
 22 29  1  0  0  0  0
 23 30  1  0  0  0  0
 23 31  1  0  0  0  0
 23 32  1  0  0  0  0
 24 33  1  0  0  0  0
 24 34  1  0  0  0  0
 24 35  1  0  0  0  0
 36 37  1  0  0  0  0
 36 41  1  0  0  0  0
 37 38  1  0  0  0  0
 37 40  1  0  0  0  0
 37 42  1  0  0  0  0
 38 39  2  0  0  0  0
 38 46  1  0  0  0  0
 40 43  1  0  0  0  0
 40 44  1  0  0  0  0
 40 45  1  0  0  0  0
 46 47  1  0  0  0  0
 46 48  1  0  0  0  0
 47 49  1  0  0  0  0
 47 50  1  0  0  0  0
 47 51  1  0  0  0  0
M  END
$$$$

  -OEChem-05262216553D

 51 50  0     1  0  0  0  0  0999 V2000
    0.5552   -2.7955   -2.7541 C   0  0  0  0  0  0  0  0  0  0  0  0
   -0.4451   -2.1112   -2.6048 O   0  0  0  0  0  0  0  0  0  0  0  0
    0.4240   -4.2983   -2.9098 C   0  0  0  0  0  0  0  0  0  0  0  0
    1.0805   -4.8064   -2.1994 H   0  0  0  0  0  0  0  0  0  0  0  0
   -0.6072   -4.6093   -2.7194 H   0  0  0  0  0  0  0  0  0  0  0  0
    0.7003   -4.5928   -3.9253 H   0  0  0  0  0  0  0  0  0  0  0  0
    1.8135   -2.2225   -2.7556 N   0  0  0  0  0  0  0  0  0  0  0  0
    2.1317   -0.7939   -2.5569 C   0  0  2  0  0  0  0  0  0  0  0  0
    1.7855   -0.2723   -1.1450 C   0  0  0  0  0  0  0  0  0  0  0  0
    2.6889    0.0334   -0.3750 O   0  0  0  0  0  0  0  0  0  0  0  0
    1.4959    0.0810   -3.6475 C   0  0  0  0  0  0  0  0  0  0  0  0
    2.5940   -2.8716   -2.8120 H   0  0  0  0  0  0  0  0  0  0  0  0
    3.2166   -0.6885   -2.6615 H   0  0  0  0  0  0  0  0  0  0  0  0
    0.4060    0.1037   -3.5590 H   0  0  0  0  0  0  0  0  0  0  0  0
    1.8642    1.1084   -3.5656 H   0  0  0  0  0  0  0  0  0  0  0  0
    1.7558   -0.3015   -4.6391 H   0  0  0  0  0  0  0  0  0  0  0  0
    0.4835   -0.2522   -0.6842 N   0  0  0  0  0  0  0  0  0  0  0  0
    0.1337    0.0251    0.7134 C   0  0  2  0  0  0  0  0  0  0  0  0
    0.1027   -1.3039    1.4929 C   0  0  0  0  0  0  0  0  0  0  0  0
   -0.8447   -2.0743    1.3861 O   0  0  0  0  0  0  0  0  0  0  0  0
   -1.2222    0.7608    0.8290 C   0  0  0  0  0  0  0  0  0  0  0  0
   -1.2998    2.2004    0.2569 C   0  0  0  0  0  0  0  0  0  0  0  0
   -2.7573    2.6727    0.3445 C   0  0  0  0  0  0  0  0  0  0  0  0
   -0.8413    2.3549   -1.2009 C   0  0  0  0  0  0  0  0  0  0  0  0
   -0.2020   -0.7365   -1.2739 H   0  0  0  0  0  0  0  0  0  0  0  0
    0.8855    0.6742    1.1735 H   0  0  0  0  0  0  0  0  0  0  0  0
   -1.4966    0.8041    1.8886 H   0  0  0  0  0  0  0  0  0  0  0  0
   -1.9788    0.1486    0.3251 H   0  0  0  0  0  0  0  0  0  0  0  0
   -0.6793    2.8546    0.8784 H   0  0  0  0  0  0  0  0  0  0  0  0
   -3.4024    2.0574   -0.2913 H   0  0  0  0  0  0  0  0  0  0  0  0
   -2.8434    3.7151    0.0217 H   0  0  0  0  0  0  0  0  0  0  0  0
   -3.1195    2.6053    1.3754 H   0  0  0  0  0  0  0  0  0  0  0  0
   -1.3177    1.6031   -1.8379 H   0  0  0  0  0  0  0  0  0  0  0  0
   -1.1033    3.3467   -1.5826 H   0  0  0  0  0  0  0  0  0  0  0  0
    0.2445    2.2533   -1.2767 H   0  0  0  0  0  0  0  0  0  0  0  0
    1.1514   -1.5978    2.3479 N   0  0  0  0  0  0  0  0  0  0  0  0
    1.3297   -2.8266    3.1491 C   0  0  2  0  0  0  0  0  0  0  0  0
    1.4927   -4.1319    2.3326 C   0  0  0  0  0  0  0  0  0  0  0  0
    2.4117   -4.8964    2.5966 O   0  0  0  0  0  0  0  0  0  0  0  0
    0.2071   -2.9709    4.1858 C   0  0  0  0  0  0  0  0  0  0  0  0
    1.9622   -0.9893    2.2456 H   0  0  0  0  0  0  0  0  0  0  0  0
    2.2634   -2.7043    3.7078 H   0  0  0  0  0  0  0  0  0  0  0  0
   -0.7508   -3.1926    3.7063 H   0  0  0  0  0  0  0  0  0  0  0  0
    0.4389   -3.7869    4.8774 H   0  0  0  0  0  0  0  0  0  0  0  0
    0.1023   -2.0477    4.7633 H   0  0  0  0  0  0  0  0  0  0  0  0
    0.6009   -4.4812    1.3374 N   0  0  0  0  0  0  0  0  0  0  0  0
    0.6016   -5.7686    0.6582 C   0  0  0  0  0  0  0  0  0  0  0  0
   -0.1844   -3.8381    1.1970 H   0  0  0  0  0  0  0  0  0  0  0  0
    1.5614   -5.9373    0.1593 H   0  0  0  0  0  0  0  0  0  0  0  0
    0.4284   -6.5790    1.3740 H   0  0  0  0  0  0  0  0  0  0  0  0
   -0.1911   -5.7969   -0.0955 H   0  0  0  0  0  0  0  0  0  0  0  0
  1  2  2  0  0  0  0
  1  3  1  0  0  0  0
  1  7  1  0  0  0  0
  3  4  1  0  0  0  0
  3  5  1  0  0  0  0
  3  6  1  0  0  0  0
  7  8  1  0  0  0  0
  7 12  1  0  0  0  0
  8  9  1  0  0  0  0
  8 11  1  0  0  0  0
  8 13  1  0  0  0  0
  9 10  2  0  0  0  0
  9 17  1  0  0  0  0
 11 14  1  0  0  0  0
 11 15  1  0  0  0  0
 11 16  1  0  0  0  0
 17 18  1  0  0  0  0
 17 25  1  0  0  0  0
 18 19  1  0  0  0  0
 18 21  1  0  0  0  0
 18 26  1  0  0  0  0
 19 20  2  0  0  0  0
 19 36  1  0  0  0  0
 21 22  1  0  0  0  0
 21 27  1  0  0  0  0
 21 28  1  0  0  0  0
 22 23  1  0  0  0  0
 22 24  1  0  0  0  0
 22 29  1  0  0  0  0
 23 30  1  0  0  0  0
 23 31  1  0  0  0  0
 23 32  1  0  0  0  0
 24 33  1  0  0  0  0
 24 34  1  0  0  0  0
 24 35  1  0  0  0  0
 36 37  1  0  0  0  0
 36 41  1  0  0  0  0
 37 38  1  0  0  0  0
 37 40  1  0  0  0  0
 37 42  1  0  0  0  0
 38 39  2  0  0  0  0
 38 46  1  0  0  0  0
 40 43  1  0  0  0  0
 40 44  1  0  0  0  0
 40 45  1  0  0  0  0
 46 47  1  0  0  0  0
 46 48  1  0  0  0  0
 47 49  1  0  0  0  0
 47 50  1  0  0  0  0
 47 51  1  0  0  0  0
M  END
$$$$

  -OEChem-05262216553D

 51 50  0     1  0  0  0  0  0999 V2000
    0.2430   -2.6171   -2.8741 C   0  0  0  0  0  0  0  0  0  0  0  0
   -0.6280   -1.7637   -2.8142 O   0  0  0  0  0  0  0  0  0  0  0  0
   -0.1465   -4.0768   -3.0063 C   0  0  0  0  0  0  0  0  0  0  0  0
    0.1032   -4.6124   -2.0871 H   0  0  0  0  0  0  0  0  0  0  0  0
   -1.2221   -4.1655   -3.1830 H   0  0  0  0  0  0  0  0  0  0  0  0
    0.3850   -4.5336   -3.8446 H   0  0  0  0  0  0  0  0  0  0  0  0
    1.5791   -2.2776   -2.7587 N   0  0  0  0  0  0  0  0  0  0  0  0
    2.1361   -0.9255   -2.5373 C   0  0  2  0  0  0  0  0  0  0  0  0
    1.8081   -0.3316   -1.1493 C   0  0  0  0  0  0  0  0  0  0  0  0
    2.7165    0.0416   -0.4173 O   0  0  0  0  0  0  0  0  0  0  0  0
    1.7344    0.0424   -3.6592 C   0  0  0  0  0  0  0  0  0  0  0  0
    2.2307   -3.0574   -2.7400 H   0  0  0  0  0  0  0  0  0  0  0  0
    3.2265   -1.0194   -2.5768 H   0  0  0  0  0  0  0  0  0  0  0  0
    0.6685    0.2839   -3.6162 H   0  0  0  0  0  0  0  0  0  0  0  0
    2.2970    0.9765   -3.5663 H   0  0  0  0  0  0  0  0  0  0  0  0
    1.9533   -0.3974   -4.6368 H   0  0  0  0  0  0  0  0  0  0  0  0
    0.5155   -0.3150   -0.6669 N   0  0  0  0  0  0  0  0  0  0  0  0
    0.1626    0.0062    0.7191 C   0  0  2  0  0  0  0  0  0  0  0  0
    0.1562   -1.2870    1.5590 C   0  0  0  0  0  0  0  0  0  0  0  0
   -0.5977   -2.2097    1.2682 O   0  0  0  0  0  0  0  0  0  0  0  0
   -1.2168    0.6982    0.8099 C   0  0  0  0  0  0  0  0  0  0  0  0
   -1.3449    2.1091    0.1787 C   0  0  0  0  0  0  0  0  0  0  0  0
   -2.8172    2.5362    0.2515 C   0  0  0  0  0  0  0  0  0  0  0  0
   -0.8948    2.2185   -1.2858 C   0  0  0  0  0  0  0  0  0  0  0  0
   -0.1941   -0.7462   -1.2678 H   0  0  0  0  0  0  0  0  0  0  0  0
    0.9007    0.6938    1.1442 H   0  0  0  0  0  0  0  0  0  0  0  0
   -1.4893    0.7778    1.8678 H   0  0  0  0  0  0  0  0  0  0  0  0
   -1.9530    0.0385    0.3365 H   0  0  0  0  0  0  0  0  0  0  0  0
   -0.7453    2.8088    0.7708 H   0  0  0  0  0  0  0  0  0  0  0  0
   -3.4421    1.8775   -0.3605 H   0  0  0  0  0  0  0  0  0  0  0  0
   -2.9372    3.5623   -0.1099 H   0  0  0  0  0  0  0  0  0  0  0  0
   -3.1767    2.4953    1.2844 H   0  0  0  0  0  0  0  0  0  0  0  0
   -1.3433    1.4229   -1.8894 H   0  0  0  0  0  0  0  0  0  0  0  0
   -1.1945    3.1826   -1.7078 H   0  0  0  0  0  0  0  0  0  0  0  0
    0.1940    2.1548   -1.3602 H   0  0  0  0  0  0  0  0  0  0  0  0
    1.0118   -1.4008    2.6427 N   0  0  0  0  0  0  0  0  0  0  0  0
    1.1571   -2.5596    3.5493 C   0  0  2  0  0  0  0  0  0  0  0  0
    1.7059   -3.8501    2.8943 C   0  0  0  0  0  0  0  0  0  0  0  0
    2.6004   -4.4733    3.4511 O   0  0  0  0  0  0  0  0  0  0  0  0
   -0.1560   -2.8438    4.2913 C   0  0  0  0  0  0  0  0  0  0  0  0
    1.7098   -0.6643    2.7185 H   0  0  0  0  0  0  0  0  0  0  0  0
    1.8934   -2.2743    4.3076 H   0  0  0  0  0  0  0  0  0  0  0  0
   -0.9207   -3.2310    3.6118 H   0  0  0  0  0  0  0  0  0  0  0  0
    0.0114   -3.5890    5.0754 H   0  0  0  0  0  0  0  0  0  0  0  0
   -0.5348   -1.9295    4.7577 H   0  0  0  0  0  0  0  0  0  0  0  0
    1.1847   -4.3407    1.7133 N   0  0  0  0  0  0  0  0  0  0  0  0
    1.5793   -5.6064    1.1122 C   0  0  0  0  0  0  0  0  0  0  0  0
    0.3891   -3.8233    1.3289 H   0  0  0  0  0  0  0  0  0  0  0  0
    1.3778   -6.4344    1.7997 H   0  0  0  0  0  0  0  0  0  0  0  0
    1.0169   -5.7776    0.1896 H   0  0  0  0  0  0  0  0  0  0  0  0
    2.6476   -5.5990    0.8716 H   0  0  0  0  0  0  0  0  0  0  0  0
  1  2  2  0  0  0  0
  1  3  1  0  0  0  0
  1  7  1  0  0  0  0
  3  4  1  0  0  0  0
  3  5  1  0  0  0  0
  3  6  1  0  0  0  0
  7  8  1  0  0  0  0
  7 12  1  0  0  0  0
  8  9  1  0  0  0  0
  8 11  1  0  0  0  0
  8 13  1  0  0  0  0
  9 10  2  0  0  0  0
  9 17  1  0  0  0  0
 11 14  1  0  0  0  0
 11 15  1  0  0  0  0
 11 16  1  0  0  0  0
 17 18  1  0  0  0  0
 17 25  1  0  0  0  0
 18 19  1  0  0  0  0
 18 21  1  0  0  0  0
 18 26  1  0  0  0  0
 19 20  2  0  0  0  0
 19 36  1  0  0  0  0
 21 22  1  0  0  0  0
 21 27  1  0  0  0  0
 21 28  1  0  0  0  0
 22 23  1  0  0  0  0
 22 24  1  0  0  0  0
 22 29  1  0  0  0  0
 23 30  1  0  0  0  0
 23 31  1  0  0  0  0
 23 32  1  0  0  0  0
 24 33  1  0  0  0  0
 24 34  1  0  0  0  0
 24 35  1  0  0  0  0
 36 37  1  0  0  0  0
 36 41  1  0  0  0  0
 37 38  1  0  0  0  0
 37 40  1  0  0  0  0
 37 42  1  0  0  0  0
 38 39  2  0  0  0  0
 38 46  1  0  0  0  0
 40 43  1  0  0  0  0
 40 44  1  0  0  0  0
 40 45  1  0  0  0  0
 46 47  1  0  0  0  0
 46 48  1  0  0  0  0
 47 49  1  0  0  0  0
 47 50  1  0  0  0  0
 47 51  1  0  0  0  0
M  END
$$$$

  -OEChem-05262216553D

 51 50  0     1  0  0  0  0  0999 V2000
    1.8060   -3.2817   -2.2677 C   0  0  0  0  0  0  0  0  0  0  0  0
    0.7277   -3.3249   -1.6983 O   0  0  0  0  0  0  0  0  0  0  0  0
    2.7303   -4.4840   -2.2250 C   0  0  0  0  0  0  0  0  0  0  0  0
    3.5966   -4.2640   -1.5962 H   0  0  0  0  0  0  0  0  0  0  0  0
    2.2057   -5.3496   -1.8124 H   0  0  0  0  0  0  0  0  0  0  0  0
    3.0718   -4.7314   -3.2329 H   0  0  0  0  0  0  0  0  0  0  0  0
    2.2093   -2.1386   -2.9320 N   0  0  0  0  0  0  0  0  0  0  0  0
    1.5031   -0.8467   -2.8705 C   0  0  2  0  0  0  0  0  0  0  0  0
    1.4019   -0.3058   -1.4250 C   0  0  0  0  0  0  0  0  0  0  0  0
    2.4351   -0.0411   -0.8204 O   0  0  0  0  0  0  0  0  0  0  0  0
    0.1481   -0.9275   -3.5955 C   0  0  0  0  0  0  0  0  0  0  0  0
    3.1798   -2.1269   -3.2322 H   0  0  0  0  0  0  0  0  0  0  0  0
    2.1065   -0.1145   -3.4160 H   0  0  0  0  0  0  0  0  0  0  0  0
   -0.5439   -1.6013   -3.0822 H   0  0  0  0  0  0  0  0  0  0  0  0
   -0.3124    0.0639   -3.6475 H   0  0  0  0  0  0  0  0  0  0  0  0
    0.2898   -1.2950   -4.6161 H   0  0  0  0  0  0  0  0  0  0  0  0
    0.1830   -0.0944   -0.8049 N   0  0  0  0  0  0  0  0  0  0  0  0
    0.0756    0.1748    0.6359 C   0  0  2  0  0  0  0  0  0  0  0  0
   -0.0799   -1.1503    1.4071 C   0  0  0  0  0  0  0  0  0  0  0  0
   -0.9393   -1.9492    1.0560 O   0  0  0  0  0  0  0  0  0  0  0  0
   -1.1161    1.1043    0.9601 C   0  0  0  0  0  0  0  0  0  0  0  0
   -1.0410    2.5615    0.4348 C   0  0  0  0  0  0  0  0  0  0  0  0
   -2.3770    3.2528    0.7386 C   0  0  0  0  0  0  0  0  0  0  0  0
   -0.7688    2.7051   -1.0699 C   0  0  0  0  0  0  0  0  0  0  0  0
   -0.5910   -0.6098   -1.2212 H   0  0  0  0  0  0  0  0  0  0  0  0
    0.9810    0.6734    0.9958 H   0  0  0  0  0  0  0  0  0  0  0  0
   -1.2299    1.1459    2.0486 H   0  0  0  0  0  0  0  0  0  0  0  0
   -2.0227    0.6365    0.5596 H   0  0  0  0  0  0  0  0  0  0  0  0
   -0.2432    3.0828    0.9746 H   0  0  0  0  0  0  0  0  0  0  0  0
   -3.1942    2.7796    0.1845 H   0  0  0  0  0  0  0  0  0  0  0  0
   -2.3341    4.3101    0.4584 H   0  0  0  0  0  0  0  0  0  0  0  0
   -2.6023    3.1941    1.8080 H   0  0  0  0  0  0  0  0  0  0  0  0
   -1.4405    2.0621   -1.6472 H   0  0  0  0  0  0  0  0  0  0  0  0
   -0.9220    3.7404   -1.3901 H   0  0  0  0  0  0  0  0  0  0  0  0
    0.2670    2.4423   -1.3015 H   0  0  0  0  0  0  0  0  0  0  0  0
    0.6580   -1.3784    2.5568 N   0  0  0  0  0  0  0  0  0  0  0  0
    0.5732   -2.5558    3.4469 C   0  0  2  0  0  0  0  0  0  0  0  0
    1.0099   -3.9015    2.8189 C   0  0  0  0  0  0  0  0  0  0  0  0
    1.6894   -4.6731    3.4846 O   0  0  0  0  0  0  0  0  0  0  0  0
   -0.8268   -2.6799    4.0642 C   0  0  0  0  0  0  0  0  0  0  0  0
    1.4121   -0.7190    2.7292 H   0  0  0  0  0  0  0  0  0  0  0  0
    1.2685   -2.3744    4.2730 H   0  0  0  0  0  0  0  0  0  0  0  0
   -1.5647   -2.9828    3.3156 H   0  0  0  0  0  0  0  0  0  0  0  0
   -0.8194   -3.4340    4.8575 H   0  0  0  0  0  0  0  0  0  0  0  0
   -1.1398   -1.7251    4.4968 H   0  0  0  0  0  0  0  0  0  0  0  0
    0.6262   -4.2752    1.5464 N   0  0  0  0  0  0  0  0  0  0  0  0
    0.9076   -5.5756    0.9585 C   0  0  0  0  0  0  0  0  0  0  0  0
    0.0206   -3.6228    1.0384 H   0  0  0  0  0  0  0  0  0  0  0  0
    0.5013   -6.3760    1.5853 H   0  0  0  0  0  0  0  0  0  0  0  0
    0.4470   -5.6456   -0.0316 H   0  0  0  0  0  0  0  0  0  0  0  0
    1.9872   -5.7217    0.8521 H   0  0  0  0  0  0  0  0  0  0  0  0
  1  2  2  0  0  0  0
  1  3  1  0  0  0  0
  1  7  1  0  0  0  0
  3  4  1  0  0  0  0
  3  5  1  0  0  0  0
  3  6  1  0  0  0  0
  7  8  1  0  0  0  0
  7 12  1  0  0  0  0
  8  9  1  0  0  0  0
  8 11  1  0  0  0  0
  8 13  1  0  0  0  0
  9 10  2  0  0  0  0
  9 17  1  0  0  0  0
 11 14  1  0  0  0  0
 11 15  1  0  0  0  0
 11 16  1  0  0  0  0
 17 18  1  0  0  0  0
 17 25  1  0  0  0  0
 18 19  1  0  0  0  0
 18 21  1  0  0  0  0
 18 26  1  0  0  0  0
 19 20  2  0  0  0  0
 19 36  1  0  0  0  0
 21 22  1  0  0  0  0
 21 27  1  0  0  0  0
 21 28  1  0  0  0  0
 22 23  1  0  0  0  0
 22 24  1  0  0  0  0
 22 29  1  0  0  0  0
 23 30  1  0  0  0  0
 23 31  1  0  0  0  0
 23 32  1  0  0  0  0
 24 33  1  0  0  0  0
 24 34  1  0  0  0  0
 24 35  1  0  0  0  0
 36 37  1  0  0  0  0
 36 41  1  0  0  0  0
 37 38  1  0  0  0  0
 37 40  1  0  0  0  0
 37 42  1  0  0  0  0
 38 39  2  0  0  0  0
 38 46  1  0  0  0  0
 40 43  1  0  0  0  0
 40 44  1  0  0  0  0
 40 45  1  0  0  0  0
 46 47  1  0  0  0  0
 46 48  1  0  0  0  0
 47 49  1  0  0  0  0
 47 50  1  0  0  0  0
 47 51  1  0  0  0  0
M  END
$$$$

  -OEChem-05262216553D

 51 50  0     1  0  0  0  0  0999 V2000
    2.1226   -3.2763   -2.1617 C   0  0  0  0  0  0  0  0  0  0  0  0
    1.1475   -3.4851   -1.4591 O   0  0  0  0  0  0  0  0  0  0  0  0
    3.2872   -4.2479   -2.1359 C   0  0  0  0  0  0  0  0  0  0  0  0
    4.1834   -3.7431   -1.7670 H   0  0  0  0  0  0  0  0  0  0  0  0
    3.0615   -5.0903   -1.4761 H   0  0  0  0  0  0  0  0  0  0  0  0
    3.4786   -4.6300   -3.1415 H   0  0  0  0  0  0  0  0  0  0  0  0
    2.1946   -2.1525   -2.9639 N   0  0  0  0  0  0  0  0  0  0  0  0
    1.2565   -1.0185   -2.8801 C   0  0  2  0  0  0  0  0  0  0  0  0
    1.2450   -0.3714   -1.4737 C   0  0  0  0  0  0  0  0  0  0  0  0
    2.3121   -0.0844   -0.9423 O   0  0  0  0  0  0  0  0  0  0  0  0
   -0.1392   -1.4302   -3.3812 C   0  0  0  0  0  0  0  0  0  0  0  0
    3.1073   -1.9707   -3.3708 H   0  0  0  0  0  0  0  0  0  0  0  0
    1.6177   -0.2411   -3.5599 H   0  0  0  0  0  0  0  0  0  0  0  0
   -0.6209   -2.1307   -2.6921 H   0  0  0  0  0  0  0  0  0  0  0  0
   -0.7817   -0.5500   -3.4821 H   0  0  0  0  0  0  0  0  0  0  0  0
   -0.0603   -1.9110   -4.3610 H   0  0  0  0  0  0  0  0  0  0  0  0
    0.0629   -0.0575   -0.8261 N   0  0  0  0  0  0  0  0  0  0  0  0
    0.0176    0.2108    0.6195 C   0  0  2  0  0  0  0  0  0  0  0  0
   -0.2353   -1.0989    1.3939 C   0  0  0  0  0  0  0  0  0  0  0  0
   -0.9790   -1.9455    0.9130 O   0  0  0  0  0  0  0  0  0  0  0  0
   -1.0777    1.2415    0.9752 C   0  0  0  0  0  0  0  0  0  0  0  0
   -0.8837    2.6886    0.4521 C   0  0  0  0  0  0  0  0  0  0  0  0
   -2.1442    3.4960    0.7893 C   0  0  0  0  0  0  0  0  0  0  0  0
   -0.6303    2.8169   -1.0570 C   0  0  0  0  0  0  0  0  0  0  0  0
   -0.7478   -0.5471   -1.1994 H   0  0  0  0  0  0  0  0  0  0  0  0
    0.9744    0.6204    0.9584 H   0  0  0  0  0  0  0  0  0  0  0  0
   -1.1649    1.2886    2.0660 H   0  0  0  0  0  0  0  0  0  0  0  0
   -2.0302    0.8580    0.5927 H   0  0  0  0  0  0  0  0  0  0  0  0
   -0.0305    3.1331    0.9758 H   0  0  0  0  0  0  0  0  0  0  0  0
   -3.0124    3.1010    0.2519 H   0  0  0  0  0  0  0  0  0  0  0  0
   -2.0125    4.5464    0.5108 H   0  0  0  0  0  0  0  0  0  0  0  0
   -2.3508    3.4527    1.8632 H   0  0  0  0  0  0  0  0  0  0  0  0
   -1.3650    2.2367   -1.6238 H   0  0  0  0  0  0  0  0  0  0  0  0
   -0.7006    3.8632   -1.3701 H   0  0  0  0  0  0  0  0  0  0  0  0
    0.3749    2.4681   -1.3092 H   0  0  0  0  0  0  0  0  0  0  0  0
    0.2711   -1.2602    2.6730 N   0  0  0  0  0  0  0  0  0  0  0  0
    0.0721   -2.4215    3.5657 C   0  0  2  0  0  0  0  0  0  0  0  0
    0.7161   -3.7428    3.0827 C   0  0  0  0  0  0  0  0  0  0  0  0
    1.3630   -4.4109    3.8798 O   0  0  0  0  0  0  0  0  0  0  0  0
   -1.4138   -2.6313    3.8889 C   0  0  0  0  0  0  0  0  0  0  0  0
    0.9359   -0.5532    2.9740 H   0  0  0  0  0  0  0  0  0  0  0  0
    0.5676   -2.1764    4.5106 H   0  0  0  0  0  0  0  0  0  0  0  0
   -1.9621   -2.9989    3.0167 H   0  0  0  0  0  0  0  0  0  0  0  0
   -1.5204   -3.3687    4.6907 H   0  0  0  0  0  0  0  0  0  0  0  0
   -1.8691   -1.6927    4.2182 H   0  0  0  0  0  0  0  0  0  0  0  0
    0.5698   -4.1962    1.7869 N   0  0  0  0  0  0  0  0  0  0  0  0
    1.1635   -5.4237    1.2783 C   0  0  0  0  0  0  0  0  0  0  0  0
    0.0459   -3.5960    1.1425 H   0  0  0  0  0  0  0  0  0  0  0  0
    0.8915   -6.2742    1.9118 H   0  0  0  0  0  0  0  0  0  0  0  0
    0.8034   -5.6222    0.2642 H   0  0  0  0  0  0  0  0  0  0  0  0
    2.2542   -5.3364    1.2499 H   0  0  0  0  0  0  0  0  0  0  0  0
  1  2  2  0  0  0  0
  1  3  1  0  0  0  0
  1  7  1  0  0  0  0
  3  4  1  0  0  0  0
  3  5  1  0  0  0  0
  3  6  1  0  0  0  0
  7  8  1  0  0  0  0
  7 12  1  0  0  0  0
  8  9  1  0  0  0  0
  8 11  1  0  0  0  0
  8 13  1  0  0  0  0
  9 10  2  0  0  0  0
  9 17  1  0  0  0  0
 11 14  1  0  0  0  0
 11 15  1  0  0  0  0
 11 16  1  0  0  0  0
 17 18  1  0  0  0  0
 17 25  1  0  0  0  0
 18 19  1  0  0  0  0
 18 21  1  0  0  0  0
 18 26  1  0  0  0  0
 19 20  2  0  0  0  0
 19 36  1  0  0  0  0
 21 22  1  0  0  0  0
 21 27  1  0  0  0  0
 21 28  1  0  0  0  0
 22 23  1  0  0  0  0
 22 24  1  0  0  0  0
 22 29  1  0  0  0  0
 23 30  1  0  0  0  0
 23 31  1  0  0  0  0
 23 32  1  0  0  0  0
 24 33  1  0  0  0  0
 24 34  1  0  0  0  0
 24 35  1  0  0  0  0
 36 37  1  0  0  0  0
 36 41  1  0  0  0  0
 37 38  1  0  0  0  0
 37 40  1  0  0  0  0
 37 42  1  0  0  0  0
 38 39  2  0  0  0  0
 38 46  1  0  0  0  0
 40 43  1  0  0  0  0
 40 44  1  0  0  0  0
 40 45  1  0  0  0  0
 46 47  1  0  0  0  0
 46 48  1  0  0  0  0
 47 49  1  0  0  0  0
 47 50  1  0  0  0  0
 47 51  1  0  0  0  0
M  END
$$$$

  -OEChem-05262216553D

 51 50  0     1  0  0  0  0  0999 V2000
    2.3304   -3.2236   -2.0282 C   0  0  0  0  0  0  0  0  0  0  0  0
    1.4561   -3.5053   -1.2255 O   0  0  0  0  0  0  0  0  0  0  0  0
    3.6303   -4.0058   -2.0186 C   0  0  0  0  0  0  0  0  0  0  0  0
    4.4639   -3.3382   -1.7866 H   0  0  0  0  0  0  0  0  0  0  0  0
    3.5908   -4.7943   -1.2616 H   0  0  0  0  0  0  0  0  0  0  0  0
    3.7985   -4.4642   -2.9960 H   0  0  0  0  0  0  0  0  0  0  0  0
    2.1717   -2.1849   -2.9277 N   0  0  0  0  0  0  0  0  0  0  0  0
    1.0991   -1.1757   -2.8410 C   0  0  2  0  0  0  0  0  0  0  0  0
    1.1355   -0.3916   -1.5058 C   0  0  0  0  0  0  0  0  0  0  0  0
    2.2178   -0.0529   -1.0383 O   0  0  0  0  0  0  0  0  0  0  0  0
   -0.2714   -1.8102   -3.1377 C   0  0  0  0  0  0  0  0  0  0  0  0
    3.0177   -1.9162   -3.4207 H   0  0  0  0  0  0  0  0  0  0  0  0
    1.2804   -0.4355   -3.6256 H   0  0  0  0  0  0  0  0  0  0  0  0
   -0.5937   -2.4616   -2.3192 H   0  0  0  0  0  0  0  0  0  0  0  0
   -1.0291   -1.0334   -3.2771 H   0  0  0  0  0  0  0  0  0  0  0  0
   -0.2207   -2.4065   -4.0537 H   0  0  0  0  0  0  0  0  0  0  0  0
   -0.0265   -0.0054   -0.8595 N   0  0  0  0  0  0  0  0  0  0  0  0
   -0.0349    0.2460    0.5909 C   0  0  2  0  0  0  0  0  0  0  0  0
   -0.3705   -1.0586    1.3470 C   0  0  0  0  0  0  0  0  0  0  0  0
   -0.9767   -1.9517    0.7660 O   0  0  0  0  0  0  0  0  0  0  0  0
   -1.0513    1.3479    0.9712 C   0  0  0  0  0  0  0  0  0  0  0  0
   -0.7617    2.7842    0.4625 C   0  0  0  0  0  0  0  0  0  0  0  0
   -1.9576    3.6756    0.8232 C   0  0  0  0  0  0  0  0  0  0  0  0
   -0.5180    2.9122   -1.0482 C   0  0  0  0  0  0  0  0  0  0  0  0
   -0.8510   -0.4926   -1.2043 H   0  0  0  0  0  0  0  0  0  0  0  0
    0.9526    0.5774    0.9277 H   0  0  0  0  0  0  0  0  0  0  0  0
   -1.1234    1.3917    2.0629 H   0  0  0  0  0  0  0  0  0  0  0  0
   -2.0328    1.0371    0.5965 H   0  0  0  0  0  0  0  0  0  0  0  0
    0.1266    3.1612    0.9805 H   0  0  0  0  0  0  0  0  0  0  0  0
   -2.8577    3.3519    0.2906 H   0  0  0  0  0  0  0  0  0  0  0  0
   -1.7526    4.7175    0.5568 H   0  0  0  0  0  0  0  0  0  0  0  0
   -2.1558    3.6333    1.8988 H   0  0  0  0  0  0  0  0  0  0  0  0
   -1.2985    2.3915   -1.6116 H   0  0  0  0  0  0  0  0  0  0  0  0
   -0.5184    3.9644   -1.3493 H   0  0  0  0  0  0  0  0  0  0  0  0
    0.4571    2.4967   -1.3173 H   0  0  0  0  0  0  0  0  0  0  0  0
   -0.1344   -1.1580    2.7085 N   0  0  0  0  0  0  0  0  0  0  0  0
   -0.4352   -2.3170    3.5755 C   0  0  2  0  0  0  0  0  0  0  0  0
    0.3782   -3.5953    3.2610 C   0  0  0  0  0  0  0  0  0  0  0  0
    0.9587   -4.1654    4.1764 O   0  0  0  0  0  0  0  0  0  0  0  0
   -1.9401   -2.6199    3.6068 C   0  0  0  0  0  0  0  0  0  0  0  0
    0.4195   -0.4092    3.1139 H   0  0  0  0  0  0  0  0  0  0  0  0
   -0.1533   -2.0272    4.5929 H   0  0  0  0  0  0  0  0  0  0  0  0
   -2.2819   -3.0422    2.6573 H   0  0  0  0  0  0  0  0  0  0  0  0
   -2.1581   -3.3450    4.3971 H   0  0  0  0  0  0  0  0  0  0  0  0
   -2.5082   -1.7070    3.8082 H   0  0  0  0  0  0  0  0  0  0  0  0
    0.4730   -4.1036    1.9806 N   0  0  0  0  0  0  0  0  0  0  0  0
    1.2985   -5.2449    1.6131 C   0  0  0  0  0  0  0  0  0  0  0  0
    0.0329   -3.5567    1.2342 H   0  0  0  0  0  0  0  0  0  0  0  0
    1.1267   -6.0836    2.2956 H   0  0  0  0  0  0  0  0  0  0  0  0
    1.0517   -5.5741    0.5991 H   0  0  0  0  0  0  0  0  0  0  0  0
    2.3583   -4.9729    1.6443 H   0  0  0  0  0  0  0  0  0  0  0  0
  1  2  2  0  0  0  0
  1  3  1  0  0  0  0
  1  7  1  0  0  0  0
  3  4  1  0  0  0  0
  3  5  1  0  0  0  0
  3  6  1  0  0  0  0
  7  8  1  0  0  0  0
  7 12  1  0  0  0  0
  8  9  1  0  0  0  0
  8 11  1  0  0  0  0
  8 13  1  0  0  0  0
  9 10  2  0  0  0  0
  9 17  1  0  0  0  0
 11 14  1  0  0  0  0
 11 15  1  0  0  0  0
 11 16  1  0  0  0  0
 17 18  1  0  0  0  0
 17 25  1  0  0  0  0
 18 19  1  0  0  0  0
 18 21  1  0  0  0  0
 18 26  1  0  0  0  0
 19 20  2  0  0  0  0
 19 36  1  0  0  0  0
 21 22  1  0  0  0  0
 21 27  1  0  0  0  0
 21 28  1  0  0  0  0
 22 23  1  0  0  0  0
 22 24  1  0  0  0  0
 22 29  1  0  0  0  0
 23 30  1  0  0  0  0
 23 31  1  0  0  0  0
 23 32  1  0  0  0  0
 24 33  1  0  0  0  0
 24 34  1  0  0  0  0
 24 35  1  0  0  0  0
 36 37  1  0  0  0  0
 36 41  1  0  0  0  0
 37 38  1  0  0  0  0
 37 40  1  0  0  0  0
 37 42  1  0  0  0  0
 38 39  2  0  0  0  0
 38 46  1  0  0  0  0
 40 43  1  0  0  0  0
 40 44  1  0  0  0  0
 40 45  1  0  0  0  0
 46 47  1  0  0  0  0
 46 48  1  0  0  0  0
 47 49  1  0  0  0  0
 47 50  1  0  0  0  0
 47 51  1  0  0  0  0
M  END
$$$$

  -OEChem-05262216553D

 51 50  0     1  0  0  0  0  0999 V2000
    2.7329   -3.1018   -2.0556 C   0  0  0  0  0  0  0  0  0  0  0  0
    1.9634   -3.5935   -1.2472 O   0  0  0  0  0  0  0  0  0  0  0  0
    4.1649   -3.6001   -2.1093 C   0  0  0  0  0  0  0  0  0  0  0  0
    4.8518   -2.7810   -1.8817 H   0  0  0  0  0  0  0  0  0  0  0  0
    4.3150   -4.3976   -1.3760 H   0  0  0  0  0  0  0  0  0  0  0  0
    4.3886   -3.9912   -3.1044 H   0  0  0  0  0  0  0  0  0  0  0  0
    2.3445   -2.0848   -2.9104 N   0  0  0  0  0  0  0  0  0  0  0  0
    1.1146   -1.2839   -2.7480 C   0  0  2  0  0  0  0  0  0  0  0  0
    1.1072   -0.4638   -1.4335 C   0  0  0  0  0  0  0  0  0  0  0  0
    2.1688   -0.0914   -0.9430 O   0  0  0  0  0  0  0  0  0  0  0  0
   -0.1431   -2.1543   -2.9166 C   0  0  0  0  0  0  0  0  0  0  0  0
    3.1117   -1.6414   -3.4060 H   0  0  0  0  0  0  0  0  0  0  0  0
    1.0991   -0.5499   -3.5588 H   0  0  0  0  0  0  0  0  0  0  0  0
   -0.3087   -2.7857   -2.0380 H   0  0  0  0  0  0  0  0  0  0  0  0
   -1.0269   -1.5252   -3.0569 H   0  0  0  0  0  0  0  0  0  0  0  0
   -0.0411   -2.8015   -3.7929 H   0  0  0  0  0  0  0  0  0  0  0  0
   -0.0738   -0.0304   -0.8512 N   0  0  0  0  0  0  0  0  0  0  0  0
   -0.1101    0.2129    0.6020 C   0  0  2  0  0  0  0  0  0  0  0  0
   -0.1507   -1.1283    1.3770 C   0  0  0  0  0  0  0  0  0  0  0  0
   -0.3911   -2.1646    0.7699 O   0  0  0  0  0  0  0  0  0  0  0  0
   -1.3272    1.0908    0.9835 C   0  0  0  0  0  0  0  0  0  0  0  0
   -1.3367    2.5534    0.4666 C   0  0  0  0  0  0  0  0  0  0  0  0
   -2.6876    3.1838    0.8321 C   0  0  0  0  0  0  0  0  0  0  0  0
   -1.1303    2.7238   -1.0451 C   0  0  0  0  0  0  0  0  0  0  0  0
   -0.8914   -0.5053   -1.2232 H   0  0  0  0  0  0  0  0  0  0  0  0
    0.7940    0.7466    0.9142 H   0  0  0  0  0  0  0  0  0  0  0  0
   -1.4016    1.1324    2.0747 H   0  0  0  0  0  0  0  0  0  0  0  0
   -2.2280    0.5852    0.6186 H   0  0  0  0  0  0  0  0  0  0  0  0
   -0.5406    3.1048    0.9784 H   0  0  0  0  0  0  0  0  0  0  0  0
   -3.5057    2.6759    0.3113 H   0  0  0  0  0  0  0  0  0  0  0  0
   -2.7052    4.2427    0.5552 H   0  0  0  0  0  0  0  0  0  0  0  0
   -2.8638    3.1123    1.9100 H   0  0  0  0  0  0  0  0  0  0  0  0
   -1.8029    2.0663   -1.6045 H   0  0  0  0  0  0  0  0  0  0  0  0
   -1.3297    3.7574   -1.3442 H   0  0  0  0  0  0  0  0  0  0  0  0
   -0.0961    2.4983   -1.3206 H   0  0  0  0  0  0  0  0  0  0  0  0
   -0.1827   -1.1459    2.7627 N   0  0  0  0  0  0  0  0  0  0  0  0
   -0.2724   -2.3446    3.6246 C   0  0  2  0  0  0  0  0  0  0  0  0
    0.9188   -3.3264    3.5014 C   0  0  0  0  0  0  0  0  0  0  0  0
    1.5334   -3.6388    4.5138 O   0  0  0  0  0  0  0  0  0  0  0  0
   -1.6081   -3.0766    3.4307 C   0  0  0  0  0  0  0  0  0  0  0  0
    0.0514   -0.2682    3.2172 H   0  0  0  0  0  0  0  0  0  0  0  0
   -0.2595   -1.9871    4.6593 H   0  0  0  0  0  0  0  0  0  0  0  0
   -1.6527   -3.5744    2.4579 H   0  0  0  0  0  0  0  0  0  0  0  0
   -1.7327   -3.8389    4.2059 H   0  0  0  0  0  0  0  0  0  0  0  0
   -2.4415   -2.3717    3.5005 H   0  0  0  0  0  0  0  0  0  0  0  0
    1.3096   -3.8505    2.2844 N   0  0  0  0  0  0  0  0  0  0  0  0
    2.4652   -4.7147    2.0978 C   0  0  0  0  0  0  0  0  0  0  0  0
    0.8157   -3.5053    1.4545 H   0  0  0  0  0  0  0  0  0  0  0  0
    2.4127   -5.5785    2.7687 H   0  0  0  0  0  0  0  0  0  0  0  0
    2.4953   -5.0813    1.0673 H   0  0  0  0  0  0  0  0  0  0  0  0
    3.3897   -4.1643    2.2986 H   0  0  0  0  0  0  0  0  0  0  0  0
  1  2  2  0  0  0  0
  1  3  1  0  0  0  0
  1  7  1  0  0  0  0
  3  4  1  0  0  0  0
  3  5  1  0  0  0  0
  3  6  1  0  0  0  0
  7  8  1  0  0  0  0
  7 12  1  0  0  0  0
  8  9  1  0  0  0  0
  8 11  1  0  0  0  0
  8 13  1  0  0  0  0
  9 10  2  0  0  0  0
  9 17  1  0  0  0  0
 11 14  1  0  0  0  0
 11 15  1  0  0  0  0
 11 16  1  0  0  0  0
 17 18  1  0  0  0  0
 17 25  1  0  0  0  0
 18 19  1  0  0  0  0
 18 21  1  0  0  0  0
 18 26  1  0  0  0  0
 19 20  2  0  0  0  0
 19 36  1  0  0  0  0
 21 22  1  0  0  0  0
 21 27  1  0  0  0  0
 21 28  1  0  0  0  0
 22 23  1  0  0  0  0
 22 24  1  0  0  0  0
 22 29  1  0  0  0  0
 23 30  1  0  0  0  0
 23 31  1  0  0  0  0
 23 32  1  0  0  0  0
 24 33  1  0  0  0  0
 24 34  1  0  0  0  0
 24 35  1  0  0  0  0
 36 37  1  0  0  0  0
 36 41  1  0  0  0  0
 37 38  1  0  0  0  0
 37 40  1  0  0  0  0
 37 42  1  0  0  0  0
 38 39  2  0  0  0  0
 38 46  1  0  0  0  0
 40 43  1  0  0  0  0
 40 44  1  0  0  0  0
 40 45  1  0  0  0  0
 46 47  1  0  0  0  0
 46 48  1  0  0  0  0
 47 49  1  0  0  0  0
 47 50  1  0  0  0  0
 47 51  1  0  0  0  0
M  END
$$$$

  -OEChem-05262216553D

 51 50  0     1  0  0  0  0  0999 V2000
    2.8828   -3.0227   -2.4158 C   0  0  0  0  0  0  0  0  0  0  0  0
    2.1702   -3.7344   -1.7287 O   0  0  0  0  0  0  0  0  0  0  0  0
    4.3479   -3.3822   -2.5792 C   0  0  0  0  0  0  0  0  0  0  0  0
    4.9743   -2.5775   -2.1860 H   0  0  0  0  0  0  0  0  0  0  0  0
    4.5738   -4.3019   -2.0322 H   0  0  0  0  0  0  0  0  0  0  0  0
    4.5802   -3.5348   -3.6358 H   0  0  0  0  0  0  0  0  0  0  0  0
    2.3995   -1.8955   -3.0566 N   0  0  0  0  0  0  0  0  0  0  0  0
    1.1163   -1.2313   -2.7500 C   0  0  2  0  0  0  0  0  0  0  0  0
    1.1120   -0.5368   -1.3654 C   0  0  0  0  0  0  0  0  0  0  0  0
    2.1712   -0.2146   -0.8358 O   0  0  0  0  0  0  0  0  0  0  0  0
   -0.0823   -2.1789   -2.9318 C   0  0  0  0  0  0  0  0  0  0  0  0
    3.1267   -1.3037   -3.4459 H   0  0  0  0  0  0  0  0  0  0  0  0
    0.9938   -0.4324   -3.4868 H   0  0  0  0  0  0  0  0  0  0  0  0
   -0.1713   -2.8680   -2.0859 H   0  0  0  0  0  0  0  0  0  0  0  0
   -1.0127   -1.6089   -3.0050 H   0  0  0  0  0  0  0  0  0  0  0  0
    0.0329   -2.7663   -3.8479 H   0  0  0  0  0  0  0  0  0  0  0  0
   -0.0697   -0.0880   -0.7949 N   0  0  0  0  0  0  0  0  0  0  0  0
   -0.1421    0.1679    0.6556 C   0  0  2  0  0  0  0  0  0  0  0  0
   -0.2161   -1.1605    1.4591 C   0  0  0  0  0  0  0  0  0  0  0  0
   -0.1791   -2.2312    0.8663 O   0  0  0  0  0  0  0  0  0  0  0  0
   -1.3490    1.0879    0.9774 C   0  0  0  0  0  0  0  0  0  0  0  0
   -1.2965    2.5430    0.4406 C   0  0  0  0  0  0  0  0  0  0  0  0
   -2.6420    3.2164    0.7450 C   0  0  0  0  0  0  0  0  0  0  0  0
   -1.0285    2.6874   -1.0647 C   0  0  0  0  0  0  0  0  0  0  0  0
   -0.8975   -0.5074   -1.2072 H   0  0  0  0  0  0  0  0  0  0  0  0
    0.7638    0.6888    0.9845 H   0  0  0  0  0  0  0  0  0  0  0  0
   -1.4622    1.1582    2.0631 H   0  0  0  0  0  0  0  0  0  0  0  0
   -2.2506    0.6014    0.5893 H   0  0  0  0  0  0  0  0  0  0  0  0
   -0.5052    3.0794    0.9754 H   0  0  0  0  0  0  0  0  0  0  0  0
   -3.4542    2.7267    0.1979 H   0  0  0  0  0  0  0  0  0  0  0  0
   -2.6160    4.2721    0.4568 H   0  0  0  0  0  0  0  0  0  0  0  0
   -2.8633    3.1637    1.8155 H   0  0  0  0  0  0  0  0  0  0  0  0
   -1.6954    2.0387   -1.6410 H   0  0  0  0  0  0  0  0  0  0  0  0
   -1.1910    3.7211   -1.3854 H   0  0  0  0  0  0  0  0  0  0  0  0
    0.0096    2.4335   -1.2976 H   0  0  0  0  0  0  0  0  0  0  0  0
   -0.5910   -1.1655    2.7951 N   0  0  0  0  0  0  0  0  0  0  0  0
   -0.8396   -2.3486    3.6480 C   0  0  2  0  0  0  0  0  0  0  0  0
    0.3861   -3.2685    3.8697 C   0  0  0  0  0  0  0  0  0  0  0  0
    0.7503   -3.5094    5.0138 O   0  0  0  0  0  0  0  0  0  0  0  0
   -2.0459   -3.1526    3.1421 C   0  0  0  0  0  0  0  0  0  0  0  0
   -0.6000   -0.2587    3.2519 H   0  0  0  0  0  0  0  0  0  0  0  0
   -1.1087   -1.9691    4.6391 H   0  0  0  0  0  0  0  0  0  0  0  0
   -1.8209   -3.6586    2.1988 H   0  0  0  0  0  0  0  0  0  0  0  0
   -2.3221   -3.9144    3.8778 H   0  0  0  0  0  0  0  0  0  0  0  0
   -2.9045   -2.4928    2.9874 H   0  0  0  0  0  0  0  0  0  0  0  0
    1.0775   -3.8197    2.8096 N   0  0  0  0  0  0  0  0  0  0  0  0
    2.2751   -4.6351    2.9434 C   0  0  0  0  0  0  0  0  0  0  0  0
    0.7798   -3.5255    1.8739 H   0  0  0  0  0  0  0  0  0  0  0  0
    2.0717   -5.5170    3.5592 H   0  0  0  0  0  0  0  0  0  0  0  0
    2.6098   -4.9715    1.9573 H   0  0  0  0  0  0  0  0  0  0  0  0
    3.0820   -4.0579    3.4059 H   0  0  0  0  0  0  0  0  0  0  0  0
  1  2  2  0  0  0  0
  1  3  1  0  0  0  0
  1  7  1  0  0  0  0
  3  4  1  0  0  0  0
  3  5  1  0  0  0  0
  3  6  1  0  0  0  0
  7  8  1  0  0  0  0
  7 12  1  0  0  0  0
  8  9  1  0  0  0  0
  8 11  1  0  0  0  0
  8 13  1  0  0  0  0
  9 10  2  0  0  0  0
  9 17  1  0  0  0  0
 11 14  1  0  0  0  0
 11 15  1  0  0  0  0
 11 16  1  0  0  0  0
 17 18  1  0  0  0  0
 17 25  1  0  0  0  0
 18 19  1  0  0  0  0
 18 21  1  0  0  0  0
 18 26  1  0  0  0  0
 19 20  2  0  0  0  0
 19 36  1  0  0  0  0
 21 22  1  0  0  0  0
 21 27  1  0  0  0  0
 21 28  1  0  0  0  0
 22 23  1  0  0  0  0
 22 24  1  0  0  0  0
 22 29  1  0  0  0  0
 23 30  1  0  0  0  0
 23 31  1  0  0  0  0
 23 32  1  0  0  0  0
 24 33  1  0  0  0  0
 24 34  1  0  0  0  0
 24 35  1  0  0  0  0
 36 37  1  0  0  0  0
 36 41  1  0  0  0  0
 37 38  1  0  0  0  0
 37 40  1  0  0  0  0
 37 42  1  0  0  0  0
 38 39  2  0  0  0  0
 38 46  1  0  0  0  0
 40 43  1  0  0  0  0
 40 44  1  0  0  0  0
 40 45  1  0  0  0  0
 46 47  1  0  0  0  0
 46 48  1  0  0  0  0
 47 49  1  0  0  0  0
 47 50  1  0  0  0  0
 47 51  1  0  0  0  0
M  END
$$$$

  -OEChem-05262216553D

 51 50  0     1  0  0  0  0  0999 V2000
    0.4967   -2.8253   -2.1795 C   0  0  0  0  0  0  0  0  0  0  0  0
   -0.5204   -2.1642   -2.3381 O   0  0  0  0  0  0  0  0  0  0  0  0
    0.3840   -4.2793   -1.7628 C   0  0  0  0  0  0  0  0  0  0  0  0
    0.9123   -4.4364   -0.8189 H   0  0  0  0  0  0  0  0  0  0  0  0
   -0.6657   -4.5538   -1.6270 H   0  0  0  0  0  0  0  0  0  0  0  0
    0.8213   -4.9234   -2.5292 H   0  0  0  0  0  0  0  0  0  0  0  0
    1.7518   -2.2593   -2.3145 N   0  0  0  0  0  0  0  0  0  0  0  0
    2.0524   -0.8212   -2.4744 C   0  0  2  0  0  0  0  0  0  0  0  0
    1.6595    0.0124   -1.2361 C   0  0  0  0  0  0  0  0  0  0  0  0
    2.5270    0.5662   -0.5723 O   0  0  0  0  0  0  0  0  0  0  0  0
    1.4402   -0.2459   -3.7601 C   0  0  0  0  0  0  0  0  0  0  0  0
    2.5145   -2.8466   -1.9880 H   0  0  0  0  0  0  0  0  0  0  0  0
    3.1387   -0.7290   -2.5739 H   0  0  0  0  0  0  0  0  0  0  0  0
    0.3493   -0.1993   -3.7005 H   0  0  0  0  0  0  0  0  0  0  0  0
    1.8135    0.7689   -3.9303 H   0  0  0  0  0  0  0  0  0  0  0  0
    1.7152   -0.8646   -4.6195 H   0  0  0  0  0  0  0  0  0  0  0  0
    0.3457    0.0487   -0.8098 N   0  0  0  0  0  0  0  0  0  0  0  0
    0.0055    0.1637    0.6154 C   0  0  2  0  0  0  0  0  0  0  0  0
    0.2345   -1.1859    1.3611 C   0  0  0  0  0  0  0  0  0  0  0  0
    1.0332   -2.0161    0.9370 O   0  0  0  0  0  0  0  0  0  0  0  0
   -1.4489    0.6833    0.7664 C   0  0  0  0  0  0  0  0  0  0  0  0
   -1.7398    2.1299    0.2850 C   0  0  0  0  0  0  0  0  0  0  0  0
   -3.2516    2.3732    0.3908 C   0  0  0  0  0  0  0  0  0  0  0  0
   -1.3129    2.4511   -1.1555 C   0  0  0  0  0  0  0  0  0  0  0  0
   -0.2574   -0.5653   -1.3652 H   0  0  0  0  0  0  0  0  0  0  0  0
    0.6646    0.8992    1.0895 H   0  0  0  0  0  0  0  0  0  0  0  0
   -1.7316    0.6491    1.8221 H   0  0  0  0  0  0  0  0  0  0  0  0
   -2.1071   -0.0072    0.2273 H   0  0  0  0  0  0  0  0  0  0  0  0
   -1.2218    2.8274    0.9518 H   0  0  0  0  0  0  0  0  0  0  0  0
   -3.7988    1.7119   -0.2888 H   0  0  0  0  0  0  0  0  0  0  0  0
   -3.4922    3.4097    0.1343 H   0  0  0  0  0  0  0  0  0  0  0  0
   -3.5987    2.1872    1.4119 H   0  0  0  0  0  0  0  0  0  0  0  0
   -1.6700    1.6809   -1.8466 H   0  0  0  0  0  0  0  0  0  0  0  0
   -1.7234    3.4150   -1.4719 H   0  0  0  0  0  0  0  0  0  0  0  0
   -0.2237    2.5211   -1.2289 H   0  0  0  0  0  0  0  0  0  0  0  0
   -0.5344   -1.5301    2.4644 N   0  0  0  0  0  0  0  0  0  0  0  0
   -0.5724   -2.8294    3.1711 C   0  0  2  0  0  0  0  0  0  0  0  0
    0.7122   -3.2039    3.9476 C   0  0  0  0  0  0  0  0  0  0  0  0
    0.6128   -3.6803    5.0707 O   0  0  0  0  0  0  0  0  0  0  0  0
   -0.9842   -3.9635    2.2213 C   0  0  0  0  0  0  0  0  0  0  0  0
   -1.1790   -0.8148    2.7863 H   0  0  0  0  0  0  0  0  0  0  0  0
   -1.3606   -2.7494    3.9269 H   0  0  0  0  0  0  0  0  0  0  0  0
   -0.1859   -4.1947    1.5109 H   0  0  0  0  0  0  0  0  0  0  0  0
   -1.2013   -4.8707    2.7939 H   0  0  0  0  0  0  0  0  0  0  0  0
   -1.8816   -3.6853    1.6606 H   0  0  0  0  0  0  0  0  0  0  0  0
    1.9665   -3.0359    3.3966 N   0  0  0  0  0  0  0  0  0  0  0  0
    3.2082   -3.4156    4.0550 C   0  0  0  0  0  0  0  0  0  0  0  0
    1.9927   -2.6820    2.4365 H   0  0  0  0  0  0  0  0  0  0  0  0
    3.2112   -4.4875    4.2782 H   0  0  0  0  0  0  0  0  0  0  0  0
    4.0609   -3.1947    3.4060 H   0  0  0  0  0  0  0  0  0  0  0  0
    3.3317   -2.8591    4.9898 H   0  0  0  0  0  0  0  0  0  0  0  0
  1  2  2  0  0  0  0
  1  3  1  0  0  0  0
  1  7  1  0  0  0  0
  3  4  1  0  0  0  0
  3  5  1  0  0  0  0
  3  6  1  0  0  0  0
  7  8  1  0  0  0  0
  7 12  1  0  0  0  0
  8  9  1  0  0  0  0
  8 11  1  0  0  0  0
  8 13  1  0  0  0  0
  9 10  2  0  0  0  0
  9 17  1  0  0  0  0
 11 14  1  0  0  0  0
 11 15  1  0  0  0  0
 11 16  1  0  0  0  0
 17 18  1  0  0  0  0
 17 25  1  0  0  0  0
 18 19  1  0  0  0  0
 18 21  1  0  0  0  0
 18 26  1  0  0  0  0
 19 20  2  0  0  0  0
 19 36  1  0  0  0  0
 21 22  1  0  0  0  0
 21 27  1  0  0  0  0
 21 28  1  0  0  0  0
 22 23  1  0  0  0  0
 22 24  1  0  0  0  0
 22 29  1  0  0  0  0
 23 30  1  0  0  0  0
 23 31  1  0  0  0  0
 23 32  1  0  0  0  0
 24 33  1  0  0  0  0
 24 34  1  0  0  0  0
 24 35  1  0  0  0  0
 36 37  1  0  0  0  0
 36 41  1  0  0  0  0
 37 38  1  0  0  0  0
 37 40  1  0  0  0  0
 37 42  1  0  0  0  0
 38 39  2  0  0  0  0
 38 46  1  0  0  0  0
 40 43  1  0  0  0  0
 40 44  1  0  0  0  0
 40 45  1  0  0  0  0
 46 47  1  0  0  0  0
 46 48  1  0  0  0  0
 47 49  1  0  0  0  0
 47 50  1  0  0  0  0
 47 51  1  0  0  0  0
M  END
$$$$

  -OEChem-05262216553D

 51 50  0     1  0  0  0  0  0999 V2000
    0.6079   -2.8099   -2.1600 C   0  0  0  0  0  0  0  0  0  0  0  0
   -0.4333   -2.1771   -2.2700 O   0  0  0  0  0  0  0  0  0  0  0  0
    0.5515   -4.2932   -1.8484 C   0  0  0  0  0  0  0  0  0  0  0  0
    1.1636   -4.5126   -0.9698 H   0  0  0  0  0  0  0  0  0  0  0  0
   -0.4786   -4.5986   -1.6442 H   0  0  0  0  0  0  0  0  0  0  0  0
    0.9282   -4.8671   -2.6985 H   0  0  0  0  0  0  0  0  0  0  0  0
    1.8412   -2.1959   -2.2826 N   0  0  0  0  0  0  0  0  0  0  0  0
    2.0947   -0.7468   -2.4156 C   0  0  2  0  0  0  0  0  0  0  0  0
    1.6605    0.0589   -1.1727 C   0  0  0  0  0  0  0  0  0  0  0  0
    2.5033    0.6222   -0.4860 O   0  0  0  0  0  0  0  0  0  0  0  0
    1.4753   -0.1801   -3.7012 C   0  0  0  0  0  0  0  0  0  0  0  0
    2.6338   -2.7738   -2.0163 H   0  0  0  0  0  0  0  0  0  0  0  0
    3.1783   -0.6148   -2.5021 H   0  0  0  0  0  0  0  0  0  0  0  0
    0.3826   -0.1883   -3.6579 H   0  0  0  0  0  0  0  0  0  0  0  0
    1.8012    0.8543   -3.8492 H   0  0  0  0  0  0  0  0  0  0  0  0
    1.7930   -0.7700   -4.5662 H   0  0  0  0  0  0  0  0  0  0  0  0
    0.3320    0.0942   -0.7937 N   0  0  0  0  0  0  0  0  0  0  0  0
   -0.0588    0.1739    0.6205 C   0  0  2  0  0  0  0  0  0  0  0  0
    0.1351   -1.1997    1.3295 C   0  0  0  0  0  0  0  0  0  0  0  0
    1.1095   -1.9034    1.0849 O   0  0  0  0  0  0  0  0  0  0  0  0
   -1.5065    0.7182    0.7455 C   0  0  0  0  0  0  0  0  0  0  0  0
   -1.7524    2.1853    0.3034 C   0  0  0  0  0  0  0  0  0  0  0  0
   -3.2611    2.4609    0.3709 C   0  0  0  0  0  0  0  0  0  0  0  0
   -1.2765    2.5404   -1.1135 C   0  0  0  0  0  0  0  0  0  0  0  0
   -0.2460   -0.5165   -1.3779 H   0  0  0  0  0  0  0  0  0  0  0  0
    0.5963    0.8828    1.1384 H   0  0  0  0  0  0  0  0  0  0  0  0
   -1.8160    0.6563    1.7929 H   0  0  0  0  0  0  0  0  0  0  0  0
   -2.1635    0.0606    0.1652 H   0  0  0  0  0  0  0  0  0  0  0  0
   -1.2396    2.8494    1.0075 H   0  0  0  0  0  0  0  0  0  0  0  0
   -3.8014    1.8402   -0.3512 H   0  0  0  0  0  0  0  0  0  0  0  0
   -3.4690    3.5124    0.1481 H   0  0  0  0  0  0  0  0  0  0  0  0
   -3.6463    2.2443    1.3722 H   0  0  0  0  0  0  0  0  0  0  0  0
   -1.6322    1.8014   -1.8384 H   0  0  0  0  0  0  0  0  0  0  0  0
   -1.6543    3.5239   -1.4095 H   0  0  0  0  0  0  0  0  0  0  0  0
   -0.1845    2.5852   -1.1542 H   0  0  0  0  0  0  0  0  0  0  0  0
   -0.8421   -1.7128    2.1717 N   0  0  0  0  0  0  0  0  0  0  0  0
   -0.8975   -3.0605    2.7790 C   0  0  2  0  0  0  0  0  0  0  0  0
    0.1843   -3.3594    3.8435 C   0  0  0  0  0  0  0  0  0  0  0  0
   -0.1341   -3.9519    4.8661 O   0  0  0  0  0  0  0  0  0  0  0  0
   -0.9113   -4.1518    1.7007 C   0  0  0  0  0  0  0  0  0  0  0  0
   -1.6463   -1.1112    2.3206 H   0  0  0  0  0  0  0  0  0  0  0  0
   -1.8551   -3.1244    3.3059 H   0  0  0  0  0  0  0  0  0  0  0  0
    0.0677   -4.2453    1.2236 H   0  0  0  0  0  0  0  0  0  0  0  0
   -1.1633   -5.1174    2.1499 H   0  0  0  0  0  0  0  0  0  0  0  0
   -1.6561   -3.9217    0.9330 H   0  0  0  0  0  0  0  0  0  0  0  0
    1.5040   -3.0006    3.6570 N   0  0  0  0  0  0  0  0  0  0  0  0
    2.5783   -3.3301    4.5827 C   0  0  0  0  0  0  0  0  0  0  0  0
    1.7316   -2.5807    2.7515 H   0  0  0  0  0  0  0  0  0  0  0  0
    3.5180   -2.8835    4.2437 H   0  0  0  0  0  0  0  0  0  0  0  0
    2.3548   -2.9450    5.5830 H   0  0  0  0  0  0  0  0  0  0  0  0
    2.7106   -4.4152    4.6434 H   0  0  0  0  0  0  0  0  0  0  0  0
  1  2  2  0  0  0  0
  1  3  1  0  0  0  0
  1  7  1  0  0  0  0
  3  4  1  0  0  0  0
  3  5  1  0  0  0  0
  3  6  1  0  0  0  0
  7  8  1  0  0  0  0
  7 12  1  0  0  0  0
  8  9  1  0  0  0  0
  8 11  1  0  0  0  0
  8 13  1  0  0  0  0
  9 10  2  0  0  0  0
  9 17  1  0  0  0  0
 11 14  1  0  0  0  0
 11 15  1  0  0  0  0
 11 16  1  0  0  0  0
 17 18  1  0  0  0  0
 17 25  1  0  0  0  0
 18 19  1  0  0  0  0
 18 21  1  0  0  0  0
 18 26  1  0  0  0  0
 19 20  2  0  0  0  0
 19 36  1  0  0  0  0
 21 22  1  0  0  0  0
 21 27  1  0  0  0  0
 21 28  1  0  0  0  0
 22 23  1  0  0  0  0
 22 24  1  0  0  0  0
 22 29  1  0  0  0  0
 23 30  1  0  0  0  0
 23 31  1  0  0  0  0
 23 32  1  0  0  0  0
 24 33  1  0  0  0  0
 24 34  1  0  0  0  0
 24 35  1  0  0  0  0
 36 37  1  0  0  0  0
 36 41  1  0  0  0  0
 37 38  1  0  0  0  0
 37 40  1  0  0  0  0
 37 42  1  0  0  0  0
 38 39  2  0  0  0  0
 38 46  1  0  0  0  0
 40 43  1  0  0  0  0
 40 44  1  0  0  0  0
 40 45  1  0  0  0  0
 46 47  1  0  0  0  0
 46 48  1  0  0  0  0
 47 49  1  0  0  0  0
 47 50  1  0  0  0  0
 47 51  1  0  0  0  0
M  END
$$$$

  -OEChem-05262216553D

 51 50  0     1  0  0  0  0  0999 V2000
    0.6895   -2.8257   -2.2190 C   0  0  0  0  0  0  0  0  0  0  0  0
   -0.3775   -2.2273   -2.2287 O   0  0  0  0  0  0  0  0  0  0  0  0
    0.7017   -4.3343   -2.0597 C   0  0  0  0  0  0  0  0  0  0  0  0
    1.2992   -4.6130   -1.1882 H   0  0  0  0  0  0  0  0  0  0  0  0
   -0.3163   -4.7099   -1.9239 H   0  0  0  0  0  0  0  0  0  0  0  0
    1.1314   -4.7996   -2.9501 H   0  0  0  0  0  0  0  0  0  0  0  0
    1.8914   -2.1534   -2.3428 N   0  0  0  0  0  0  0  0  0  0  0  0
    2.0821   -0.6917   -2.4286 C   0  0  2  0  0  0  0  0  0  0  0  0
    1.6331    0.0611   -1.1582 C   0  0  0  0  0  0  0  0  0  0  0  0
    2.4674    0.6228   -0.4607 O   0  0  0  0  0  0  0  0  0  0  0  0
    1.4224   -0.1170   -3.6906 C   0  0  0  0  0  0  0  0  0  0  0  0
    2.7232   -2.7175   -2.1909 H   0  0  0  0  0  0  0  0  0  0  0  0
    3.1579   -0.5104   -2.5229 H   0  0  0  0  0  0  0  0  0  0  0  0
    0.3326   -0.1959   -3.6458 H   0  0  0  0  0  0  0  0  0  0  0  0
    1.6831    0.9403   -3.8004 H   0  0  0  0  0  0  0  0  0  0  0  0
    1.7729   -0.6534   -4.5773 H   0  0  0  0  0  0  0  0  0  0  0  0
    0.2991    0.0988   -0.7978 N   0  0  0  0  0  0  0  0  0  0  0  0
   -0.1090    0.1612    0.6129 C   0  0  2  0  0  0  0  0  0  0  0  0
    0.0673   -1.2207    1.3025 C   0  0  0  0  0  0  0  0  0  0  0  0
    1.1475   -1.7981    1.2839 O   0  0  0  0  0  0  0  0  0  0  0  0
   -1.5464    0.7248    0.7500 C   0  0  0  0  0  0  0  0  0  0  0  0
   -1.7658    2.2049    0.3404 C   0  0  0  0  0  0  0  0  0  0  0  0
   -3.2688    2.5068    0.4129 C   0  0  0  0  0  0  0  0  0  0  0  0
   -1.2788    2.5811   -1.0670 C   0  0  0  0  0  0  0  0  0  0  0  0
   -0.2691   -0.5097   -1.3939 H   0  0  0  0  0  0  0  0  0  0  0  0
    0.5520    0.8529    1.1469 H   0  0  0  0  0  0  0  0  0  0  0  0
   -1.8536    0.6373    1.7975 H   0  0  0  0  0  0  0  0  0  0  0  0
   -2.2137    0.0945    0.1519 H   0  0  0  0  0  0  0  0  0  0  0  0
   -1.2421    2.8438    1.0596 H   0  0  0  0  0  0  0  0  0  0  0  0
   -3.8211    1.9052   -0.3163 H   0  0  0  0  0  0  0  0  0  0  0  0
   -3.4576    3.5646    0.2039 H   0  0  0  0  0  0  0  0  0  0  0  0
   -3.6559    2.2847    1.4123 H   0  0  0  0  0  0  0  0  0  0  0  0
   -1.6473    1.8655   -1.8088 H   0  0  0  0  0  0  0  0  0  0  0  0
   -1.6354    3.5785   -1.3423 H   0  0  0  0  0  0  0  0  0  0  0  0
   -0.1858    2.6045   -1.1038 H   0  0  0  0  0  0  0  0  0  0  0  0
   -1.0215   -1.8757    1.8619 N   0  0  0  0  0  0  0  0  0  0  0  0
   -1.0690   -3.2477    2.4110 C   0  0  2  0  0  0  0  0  0  0  0  0
   -0.2461   -3.4796    3.7003 C   0  0  0  0  0  0  0  0  0  0  0  0
   -0.7544   -4.0930    4.6297 O   0  0  0  0  0  0  0  0  0  0  0  0
   -0.7020   -4.2807    1.3385 C   0  0  0  0  0  0  0  0  0  0  0  0
   -1.9034   -1.3759    1.8024 H   0  0  0  0  0  0  0  0  0  0  0  0
   -2.1113   -3.4364    2.6882 H   0  0  0  0  0  0  0  0  0  0  0  0
    0.3647   -4.2400    1.1015 H   0  0  0  0  0  0  0  0  0  0  0  0
   -0.9331   -5.2894    1.6953 H   0  0  0  0  0  0  0  0  0  0  0  0
   -1.2733   -4.0970    0.4236 H   0  0  0  0  0  0  0  0  0  0  0  0
    1.0547   -3.0338    3.8205 N   0  0  0  0  0  0  0  0  0  0  0  0
    1.8926   -3.2614    4.9895 C   0  0  0  0  0  0  0  0  0  0  0  0
    1.4496   -2.5656    2.9997 H   0  0  0  0  0  0  0  0  0  0  0  0
    2.8800   -2.8148    4.8380 H   0  0  0  0  0  0  0  0  0  0  0  0
    1.4408   -2.8088    5.8782 H   0  0  0  0  0  0  0  0  0  0  0  0
    2.0204   -4.3345    5.1658 H   0  0  0  0  0  0  0  0  0  0  0  0
  1  2  2  0  0  0  0
  1  3  1  0  0  0  0
  1  7  1  0  0  0  0
  3  4  1  0  0  0  0
  3  5  1  0  0  0  0
  3  6  1  0  0  0  0
  7  8  1  0  0  0  0
  7 12  1  0  0  0  0
  8  9  1  0  0  0  0
  8 11  1  0  0  0  0
  8 13  1  0  0  0  0
  9 10  2  0  0  0  0
  9 17  1  0  0  0  0
 11 14  1  0  0  0  0
 11 15  1  0  0  0  0
 11 16  1  0  0  0  0
 17 18  1  0  0  0  0
 17 25  1  0  0  0  0
 18 19  1  0  0  0  0
 18 21  1  0  0  0  0
 18 26  1  0  0  0  0
 19 20  2  0  0  0  0
 19 36  1  0  0  0  0
 21 22  1  0  0  0  0
 21 27  1  0  0  0  0
 21 28  1  0  0  0  0
 22 23  1  0  0  0  0
 22 24  1  0  0  0  0
 22 29  1  0  0  0  0
 23 30  1  0  0  0  0
 23 31  1  0  0  0  0
 23 32  1  0  0  0  0
 24 33  1  0  0  0  0
 24 34  1  0  0  0  0
 24 35  1  0  0  0  0
 36 37  1  0  0  0  0
 36 41  1  0  0  0  0
 37 38  1  0  0  0  0
 37 40  1  0  0  0  0
 37 42  1  0  0  0  0
 38 39  2  0  0  0  0
 38 46  1  0  0  0  0
 40 43  1  0  0  0  0
 40 44  1  0  0  0  0
 40 45  1  0  0  0  0
 46 47  1  0  0  0  0
 46 48  1  0  0  0  0
 47 49  1  0  0  0  0
 47 50  1  0  0  0  0
 47 51  1  0  0  0  0
M  END
$$$$

  -OEChem-05262216553D

 51 50  0     1  0  0  0  0  0999 V2000
    0.8482   -2.7354   -2.3907 C   0  0  0  0  0  0  0  0  0  0  0  0
   -0.2298   -2.1597   -2.3389 O   0  0  0  0  0  0  0  0  0  0  0  0
    0.8901   -4.2512   -2.4336 C   0  0  0  0  0  0  0  0  0  0  0  0
    1.4431   -4.6343   -1.5720 H   0  0  0  0  0  0  0  0  0  0  0  0
   -0.1243   -4.6595   -2.4118 H   0  0  0  0  0  0  0  0  0  0  0  0
    1.3822   -4.5844   -3.3507 H   0  0  0  0  0  0  0  0  0  0  0  0
    2.0376   -2.0312   -2.3976 N   0  0  0  0  0  0  0  0  0  0  0  0
    2.2004   -0.5650   -2.3404 C   0  0  2  0  0  0  0  0  0  0  0  0
    1.6841    0.0704   -1.0314 C   0  0  0  0  0  0  0  0  0  0  0  0
    2.4775    0.5910   -0.2600 O   0  0  0  0  0  0  0  0  0  0  0  0
    1.5800    0.1061   -3.5746 C   0  0  0  0  0  0  0  0  0  0  0  0
    2.8826   -2.5935   -2.3401 H   0  0  0  0  0  0  0  0  0  0  0  0
    3.2751   -0.3577   -2.3719 H   0  0  0  0  0  0  0  0  0  0  0  0
    0.4917   -0.0037   -3.5869 H   0  0  0  0  0  0  0  0  0  0  0  0
    1.8147    1.1753   -3.5765 H   0  0  0  0  0  0  0  0  0  0  0  0
    1.9835   -0.3378   -4.4897 H   0  0  0  0  0  0  0  0  0  0  0  0
    0.3327    0.0824   -0.7421 N   0  0  0  0  0  0  0  0  0  0  0  0
   -0.1657    0.1092    0.6399 C   0  0  2  0  0  0  0  0  0  0  0  0
   -0.0134   -1.2807    1.3092 C   0  0  0  0  0  0  0  0  0  0  0  0
    1.0910   -1.7044    1.6215 O   0  0  0  0  0  0  0  0  0  0  0  0
   -1.6177    0.6443    0.7039 C   0  0  0  0  0  0  0  0  0  0  0  0
   -1.8380    2.1294    0.3145 C   0  0  0  0  0  0  0  0  0  0  0  0
   -3.3477    2.4054    0.3034 C   0  0  0  0  0  0  0  0  0  0  0  0
   -1.2715    2.5466   -1.0509 C   0  0  0  0  0  0  0  0  0  0  0  0
   -0.2029   -0.4919   -1.3987 H   0  0  0  0  0  0  0  0  0  0  0  0
    0.4502    0.7989    1.2282 H   0  0  0  0  0  0  0  0  0  0  0  0
   -1.9859    0.5166    1.7279 H   0  0  0  0  0  0  0  0  0  0  0  0
   -2.2365    0.0224    0.0482 H   0  0  0  0  0  0  0  0  0  0  0  0
   -1.3704    2.7591    1.0790 H   0  0  0  0  0  0  0  0  0  0  0  0
   -3.8436    1.8173   -0.4756 H   0  0  0  0  0  0  0  0  0  0  0  0
   -3.5419    3.4659    0.1138 H   0  0  0  0  0  0  0  0  0  0  0  0
   -3.7910    2.1468    1.2702 H   0  0  0  0  0  0  0  0  0  0  0  0
   -1.5813    1.8438   -1.8305 H   0  0  0  0  0  0  0  0  0  0  0  0
   -1.6268    3.5448   -1.3246 H   0  0  0  0  0  0  0  0  0  0  0  0
   -0.1790    2.5874   -1.0190 H   0  0  0  0  0  0  0  0  0  0  0  0
   -1.1222   -2.0937    1.4997 N   0  0  0  0  0  0  0  0  0  0  0  0
   -1.1479   -3.4824    2.0062 C   0  0  2  0  0  0  0  0  0  0  0  0
   -0.7182   -3.6652    3.4813 C   0  0  0  0  0  0  0  0  0  0  0  0
   -1.4092   -4.3526    4.2220 O   0  0  0  0  0  0  0  0  0  0  0  0
   -0.3507   -4.4151    1.0863 C   0  0  0  0  0  0  0  0  0  0  0  0
   -2.0021   -1.7081    1.1701 H   0  0  0  0  0  0  0  0  0  0  0  0
   -2.1913   -3.8115    1.9619 H   0  0  0  0  0  0  0  0  0  0  0  0
    0.7199   -4.1957    1.1286 H   0  0  0  0  0  0  0  0  0  0  0  0
   -0.4977   -5.4562    1.3902 H   0  0  0  0  0  0  0  0  0  0  0  0
   -0.6922   -4.3044    0.0536 H   0  0  0  0  0  0  0  0  0  0  0  0
    0.4357   -3.0941    3.9782 N   0  0  0  0  0  0  0  0  0  0  0  0
    0.9107   -3.2618    5.3440 C   0  0  0  0  0  0  0  0  0  0  0  0
    0.9955   -2.5538    3.3121 H   0  0  0  0  0  0  0  0  0  0  0  0
    1.0992   -4.3192    5.5562 H   0  0  0  0  0  0  0  0  0  0  0  0
    1.8431   -2.7077    5.4894 H   0  0  0  0  0  0  0  0  0  0  0  0
    0.1695   -2.8849    6.0562 H   0  0  0  0  0  0  0  0  0  0  0  0
  1  2  2  0  0  0  0
  1  3  1  0  0  0  0
  1  7  1  0  0  0  0
  3  4  1  0  0  0  0
  3  5  1  0  0  0  0
  3  6  1  0  0  0  0
  7  8  1  0  0  0  0
  7 12  1  0  0  0  0
  8  9  1  0  0  0  0
  8 11  1  0  0  0  0
  8 13  1  0  0  0  0
  9 10  2  0  0  0  0
  9 17  1  0  0  0  0
 11 14  1  0  0  0  0
 11 15  1  0  0  0  0
 11 16  1  0  0  0  0
 17 18  1  0  0  0  0
 17 25  1  0  0  0  0
 18 19  1  0  0  0  0
 18 21  1  0  0  0  0
 18 26  1  0  0  0  0
 19 20  2  0  0  0  0
 19 36  1  0  0  0  0
 21 22  1  0  0  0  0
 21 27  1  0  0  0  0
 21 28  1  0  0  0  0
 22 23  1  0  0  0  0
 22 24  1  0  0  0  0
 22 29  1  0  0  0  0
 23 30  1  0  0  0  0
 23 31  1  0  0  0  0
 23 32  1  0  0  0  0
 24 33  1  0  0  0  0
 24 34  1  0  0  0  0
 24 35  1  0  0  0  0
 36 37  1  0  0  0  0
 36 41  1  0  0  0  0
 37 38  1  0  0  0  0
 37 40  1  0  0  0  0
 37 42  1  0  0  0  0
 38 39  2  0  0  0  0
 38 46  1  0  0  0  0
 40 43  1  0  0  0  0
 40 44  1  0  0  0  0
 40 45  1  0  0  0  0
 46 47  1  0  0  0  0
 46 48  1  0  0  0  0
 47 49  1  0  0  0  0
 47 50  1  0  0  0  0
 47 51  1  0  0  0  0
M  END
$$$$

  -OEChem-05262216553D

 51 50  0     1  0  0  0  0  0999 V2000
    0.8393   -2.6548   -2.6591 C   0  0  0  0  0  0  0  0  0  0  0  0
   -0.2287   -2.0822   -2.4937 O   0  0  0  0  0  0  0  0  0  0  0  0
    0.8583   -4.1554   -2.8821 C   0  0  0  0  0  0  0  0  0  0  0  0
    1.5114   -4.6360   -2.1491 H   0  0  0  0  0  0  0  0  0  0  0  0
   -0.1496   -4.5670   -2.7774 H   0  0  0  0  0  0  0  0  0  0  0  0
    1.2261   -4.3773   -3.8871 H   0  0  0  0  0  0  0  0  0  0  0  0
    2.0362   -1.9628   -2.6281 N   0  0  0  0  0  0  0  0  0  0  0  0
    2.2199   -0.5100   -2.4326 C   0  0  2  0  0  0  0  0  0  0  0  0
    1.7402    0.0073   -1.0585 C   0  0  0  0  0  0  0  0  0  0  0  0
    2.5571    0.4194   -0.2489 O   0  0  0  0  0  0  0  0  0  0  0  0
    1.5795    0.2786   -3.5842 C   0  0  0  0  0  0  0  0  0  0  0  0
    2.8766   -2.5298   -2.7031 H   0  0  0  0  0  0  0  0  0  0  0  0
    3.2963   -0.3107   -2.4689 H   0  0  0  0  0  0  0  0  0  0  0  0
    0.4908    0.1727   -3.5865 H   0  0  0  0  0  0  0  0  0  0  0  0
    1.8186    1.3426   -3.4885 H   0  0  0  0  0  0  0  0  0  0  0  0
    1.9637   -0.0767   -4.5450 H   0  0  0  0  0  0  0  0  0  0  0  0
    0.3950    0.0078   -0.7471 N   0  0  0  0  0  0  0  0  0  0  0  0
   -0.1094    0.0207    0.6318 C   0  0  2  0  0  0  0  0  0  0  0  0
    0.0529   -1.3702    1.2883 C   0  0  0  0  0  0  0  0  0  0  0  0
    1.0436   -1.6333    1.9552 O   0  0  0  0  0  0  0  0  0  0  0  0
   -1.5709    0.5244    0.7044 C   0  0  0  0  0  0  0  0  0  0  0  0
   -1.8228    2.0063    0.3245 C   0  0  0  0  0  0  0  0  0  0  0  0
   -3.3375    2.2512    0.3208 C   0  0  0  0  0  0  0  0  0  0  0  0
   -1.2718    2.4397   -1.0424 C   0  0  0  0  0  0  0  0  0  0  0  0
   -0.1667   -0.5002   -1.4356 H   0  0  0  0  0  0  0  0  0  0  0  0
    0.4965    0.7166    1.2238 H   0  0  0  0  0  0  0  0  0  0  0  0
   -1.9320    0.3776    1.7283 H   0  0  0  0  0  0  0  0  0  0  0  0
   -2.1810   -0.1044    0.0475 H   0  0  0  0  0  0  0  0  0  0  0  0
   -1.3642    2.6413    1.0903 H   0  0  0  0  0  0  0  0  0  0  0  0
   -3.8245    1.6587   -0.4604 H   0  0  0  0  0  0  0  0  0  0  0  0
   -3.5536    3.3089    0.1401 H   0  0  0  0  0  0  0  0  0  0  0  0
   -3.7716    1.9766    1.2874 H   0  0  0  0  0  0  0  0  0  0  0  0
   -1.5724    1.7342   -1.8234 H   0  0  0  0  0  0  0  0  0  0  0  0
   -1.6486    3.4319   -1.3100 H   0  0  0  0  0  0  0  0  0  0  0  0
   -0.1802    2.5018   -1.0166 H   0  0  0  0  0  0  0  0  0  0  0  0
   -0.9656   -2.3065    1.1834 N   0  0  0  0  0  0  0  0  0  0  0  0
   -0.9858   -3.6808    1.7267 C   0  0  2  0  0  0  0  0  0  0  0  0
   -1.0283   -3.7805    3.2697 C   0  0  0  0  0  0  0  0  0  0  0  0
   -1.8473   -4.5215    3.7979 O   0  0  0  0  0  0  0  0  0  0  0  0
    0.1688   -4.5148    1.1570 C   0  0  0  0  0  0  0  0  0  0  0  0
   -1.7410   -2.0346    0.5856 H   0  0  0  0  0  0  0  0  0  0  0  0
   -1.9141   -4.1427    1.3747 H   0  0  0  0  0  0  0  0  0  0  0  0
    1.1340   -4.1713    1.5403 H   0  0  0  0  0  0  0  0  0  0  0  0
    0.0452   -5.5654    1.4377 H   0  0  0  0  0  0  0  0  0  0  0  0
    0.1808   -4.4466    0.0660 H   0  0  0  0  0  0  0  0  0  0  0  0
   -0.1555   -3.0662    4.0651 N   0  0  0  0  0  0  0  0  0  0  0  0
   -0.1222   -3.1408    5.5185 C   0  0  0  0  0  0  0  0  0  0  0  0
    0.5269   -2.4810    3.5740 H   0  0  0  0  0  0  0  0  0  0  0  0
    0.0896   -4.1643    5.8444 H   0  0  0  0  0  0  0  0  0  0  0  0
    0.6593   -2.4832    5.9112 H   0  0  0  0  0  0  0  0  0  0  0  0
   -1.0827   -2.8271    5.9399 H   0  0  0  0  0  0  0  0  0  0  0  0
  1  2  2  0  0  0  0
  1  3  1  0  0  0  0
  1  7  1  0  0  0  0
  3  4  1  0  0  0  0
  3  5  1  0  0  0  0
  3  6  1  0  0  0  0
  7  8  1  0  0  0  0
  7 12  1  0  0  0  0
  8  9  1  0  0  0  0
  8 11  1  0  0  0  0
  8 13  1  0  0  0  0
  9 10  2  0  0  0  0
  9 17  1  0  0  0  0
 11 14  1  0  0  0  0
 11 15  1  0  0  0  0
 11 16  1  0  0  0  0
 17 18  1  0  0  0  0
 17 25  1  0  0  0  0
 18 19  1  0  0  0  0
 18 21  1  0  0  0  0
 18 26  1  0  0  0  0
 19 20  2  0  0  0  0
 19 36  1  0  0  0  0
 21 22  1  0  0  0  0
 21 27  1  0  0  0  0
 21 28  1  0  0  0  0
 22 23  1  0  0  0  0
 22 24  1  0  0  0  0
 22 29  1  0  0  0  0
 23 30  1  0  0  0  0
 23 31  1  0  0  0  0
 23 32  1  0  0  0  0
 24 33  1  0  0  0  0
 24 34  1  0  0  0  0
 24 35  1  0  0  0  0
 36 37  1  0  0  0  0
 36 41  1  0  0  0  0
 37 38  1  0  0  0  0
 37 40  1  0  0  0  0
 37 42  1  0  0  0  0
 38 39  2  0  0  0  0
 38 46  1  0  0  0  0
 40 43  1  0  0  0  0
 40 44  1  0  0  0  0
 40 45  1  0  0  0  0
 46 47  1  0  0  0  0
 46 48  1  0  0  0  0
 47 49  1  0  0  0  0
 47 50  1  0  0  0  0
 47 51  1  0  0  0  0
M  END
$$$$

  -OEChem-05262216553D

 51 50  0     1  0  0  0  0  0999 V2000
    0.8954   -2.6622   -2.6632 C   0  0  0  0  0  0  0  0  0  0  0  0
   -0.1825   -2.1399   -2.4119 O   0  0  0  0  0  0  0  0  0  0  0  0
    0.9647   -4.1634   -2.8708 C   0  0  0  0  0  0  0  0  0  0  0  0
    1.7090   -4.6014   -2.2012 H   0  0  0  0  0  0  0  0  0  0  0  0
   -0.0071   -4.6198   -2.6618 H   0  0  0  0  0  0  0  0  0  0  0  0
    1.2423   -4.3844   -3.9044 H   0  0  0  0  0  0  0  0  0  0  0  0
    2.0594   -1.9168   -2.7329 N   0  0  0  0  0  0  0  0  0  0  0  0
    2.1966   -0.4558   -2.5536 C   0  0  2  0  0  0  0  0  0  0  0  0
    1.7794    0.0452   -1.1531 C   0  0  0  0  0  0  0  0  0  0  0  0
    2.6312    0.3842   -0.3465 O   0  0  0  0  0  0  0  0  0  0  0  0
    1.4515    0.2966   -3.6663 C   0  0  0  0  0  0  0  0  0  0  0  0
    2.9149   -2.4475   -2.8755 H   0  0  0  0  0  0  0  0  0  0  0  0
    3.2592   -0.2111   -2.6558 H   0  0  0  0  0  0  0  0  0  0  0  0
    0.3727    0.1230   -3.6149 H   0  0  0  0  0  0  0  0  0  0  0  0
    1.6293    1.3729   -3.5757 H   0  0  0  0  0  0  0  0  0  0  0  0
    1.8077   -0.0301   -4.6480 H   0  0  0  0  0  0  0  0  0  0  0  0
    0.4492    0.0211   -0.7906 N   0  0  0  0  0  0  0  0  0  0  0  0
   -0.0179   -0.0014    0.5999 C   0  0  2  0  0  0  0  0  0  0  0  0
    0.1869   -1.4040    1.2105 C   0  0  0  0  0  0  0  0  0  0  0  0
    0.9401   -1.5571    2.1624 O   0  0  0  0  0  0  0  0  0  0  0  0
   -1.4901    0.4513    0.7319 C   0  0  0  0  0  0  0  0  0  0  0  0
   -1.8032    1.9296    0.3872 C   0  0  0  0  0  0  0  0  0  0  0  0
   -3.3243    2.1246    0.4399 C   0  0  0  0  0  0  0  0  0  0  0  0
   -1.3124    2.4012   -0.9896 C   0  0  0  0  0  0  0  0  0  0  0  0
   -0.1358   -0.4628   -1.4759 H   0  0  0  0  0  0  0  0  0  0  0  0
    0.5902    0.6949    1.1892 H   0  0  0  0  0  0  0  0  0  0  0  0
   -1.8085    0.2725    1.7648 H   0  0  0  0  0  0  0  0  0  0  0  0
   -2.1019   -0.1884    0.0872 H   0  0  0  0  0  0  0  0  0  0  0  0
   -1.3395    2.5667    1.1483 H   0  0  0  0  0  0  0  0  0  0  0  0
   -3.8188    1.5327   -0.3370 H   0  0  0  0  0  0  0  0  0  0  0  0
   -3.5809    3.1781    0.2901 H   0  0  0  0  0  0  0  0  0  0  0  0
   -3.7152    1.8152    1.4143 H   0  0  0  0  0  0  0  0  0  0  0  0
   -1.6140    1.6965   -1.7708 H   0  0  0  0  0  0  0  0  0  0  0  0
   -1.7314    3.3834   -1.2298 H   0  0  0  0  0  0  0  0  0  0  0  0
   -0.2232    2.5006   -0.9971 H   0  0  0  0  0  0  0  0  0  0  0  0
   -0.6644   -2.4341    0.8397 N   0  0  0  0  0  0  0  0  0  0  0  0
   -0.6937   -3.8106    1.3754 C   0  0  2  0  0  0  0  0  0  0  0  0
   -1.2121   -3.9320    2.8268 C   0  0  0  0  0  0  0  0  0  0  0  0
   -2.0557   -4.7783    3.0932 O   0  0  0  0  0  0  0  0  0  0  0  0
    0.6711   -4.4969    1.2279 C   0  0  0  0  0  0  0  0  0  0  0  0
   -1.2246   -2.2475    0.0104 H   0  0  0  0  0  0  0  0  0  0  0  0
   -1.4005   -4.3722    0.7560 H   0  0  0  0  0  0  0  0  0  0  0  0
    1.4081   -4.0667    1.9126 H   0  0  0  0  0  0  0  0  0  0  0  0
    0.5787   -5.5636    1.4549 H   0  0  0  0  0  0  0  0  0  0  0  0
    1.0419   -4.3900    0.2054 H   0  0  0  0  0  0  0  0  0  0  0  0
   -0.7328   -3.1165    3.8319 N   0  0  0  0  0  0  0  0  0  0  0  0
   -1.1448   -3.2054    5.2254 C   0  0  0  0  0  0  0  0  0  0  0  0
    0.0047   -2.4581    3.5639 H   0  0  0  0  0  0  0  0  0  0  0  0
   -0.9117   -4.1953    5.6312 H   0  0  0  0  0  0  0  0  0  0  0  0
   -0.6190   -2.4536    5.8219 H   0  0  0  0  0  0  0  0  0  0  0  0
   -2.2216   -3.0298    5.3185 H   0  0  0  0  0  0  0  0  0  0  0  0
  1  2  2  0  0  0  0
  1  3  1  0  0  0  0
  1  7  1  0  0  0  0
  3  4  1  0  0  0  0
  3  5  1  0  0  0  0
  3  6  1  0  0  0  0
  7  8  1  0  0  0  0
  7 12  1  0  0  0  0
  8  9  1  0  0  0  0
  8 11  1  0  0  0  0
  8 13  1  0  0  0  0
  9 10  2  0  0  0  0
  9 17  1  0  0  0  0
 11 14  1  0  0  0  0
 11 15  1  0  0  0  0
 11 16  1  0  0  0  0
 17 18  1  0  0  0  0
 17 25  1  0  0  0  0
 18 19  1  0  0  0  0
 18 21  1  0  0  0  0
 18 26  1  0  0  0  0
 19 20  2  0  0  0  0
 19 36  1  0  0  0  0
 21 22  1  0  0  0  0
 21 27  1  0  0  0  0
 21 28  1  0  0  0  0
 22 23  1  0  0  0  0
 22 24  1  0  0  0  0
 22 29  1  0  0  0  0
 23 30  1  0  0  0  0
 23 31  1  0  0  0  0
 23 32  1  0  0  0  0
 24 33  1  0  0  0  0
 24 34  1  0  0  0  0
 24 35  1  0  0  0  0
 36 37  1  0  0  0  0
 36 41  1  0  0  0  0
 37 38  1  0  0  0  0
 37 40  1  0  0  0  0
 37 42  1  0  0  0  0
 38 39  2  0  0  0  0
 38 46  1  0  0  0  0
 40 43  1  0  0  0  0
 40 44  1  0  0  0  0
 40 45  1  0  0  0  0
 46 47  1  0  0  0  0
 46 48  1  0  0  0  0
 47 49  1  0  0  0  0
 47 50  1  0  0  0  0
 47 51  1  0  0  0  0
M  END
$$$$

  -OEChem-05262216553D

 51 50  0     1  0  0  0  0  0999 V2000
    1.0211   -2.6780   -2.6323 C   0  0  0  0  0  0  0  0  0  0  0  0
   -0.0703   -2.2010   -2.3477 O   0  0  0  0  0  0  0  0  0  0  0  0
    1.1507   -4.1776   -2.8226 C   0  0  0  0  0  0  0  0  0  0  0  0
    1.8952   -4.5814   -2.1320 H   0  0  0  0  0  0  0  0  0  0  0  0
    0.1922   -4.6686   -2.6310 H   0  0  0  0  0  0  0  0  0  0  0  0
    1.4590   -4.3982   -3.8475 H   0  0  0  0  0  0  0  0  0  0  0  0
    2.1488   -1.8825   -2.7369 N   0  0  0  0  0  0  0  0  0  0  0  0
    2.2233   -0.4177   -2.5534 C   0  0  2  0  0  0  0  0  0  0  0  0
    1.8103    0.0528   -1.1409 C   0  0  0  0  0  0  0  0  0  0  0  0
    2.6656    0.3325   -0.3153 O   0  0  0  0  0  0  0  0  0  0  0  0
    1.4218    0.3023   -3.6489 C   0  0  0  0  0  0  0  0  0  0  0  0
    3.0242   -2.3750   -2.8959 H   0  0  0  0  0  0  0  0  0  0  0  0
    3.2708   -0.1219   -2.6749 H   0  0  0  0  0  0  0  0  0  0  0  0
    0.3540    0.0746   -3.5806 H   0  0  0  0  0  0  0  0  0  0  0  0
    1.5469    1.3859   -3.5557 H   0  0  0  0  0  0  0  0  0  0  0  0
    1.7764   -0.0018   -4.6384 H   0  0  0  0  0  0  0  0  0  0  0  0
    0.4796    0.0292   -0.7796 N   0  0  0  0  0  0  0  0  0  0  0  0
    0.0072    0.0057    0.6099 C   0  0  2  0  0  0  0  0  0  0  0  0
    0.2092   -1.3956    1.2206 C   0  0  0  0  0  0  0  0  0  0  0  0
    0.6906   -1.5101    2.3399 O   0  0  0  0  0  0  0  0  0  0  0  0
   -1.4717    0.4335    0.7375 C   0  0  0  0  0  0  0  0  0  0  0  0
   -1.8095    1.9047    0.3855 C   0  0  0  0  0  0  0  0  0  0  0  0
   -3.3338    2.0730    0.4356 C   0  0  0  0  0  0  0  0  0  0  0  0
   -1.3278    2.3763   -0.9948 C   0  0  0  0  0  0  0  0  0  0  0  0
   -0.1144   -0.4262   -1.4753 H   0  0  0  0  0  0  0  0  0  0  0  0
    0.6072    0.7064    1.2020 H   0  0  0  0  0  0  0  0  0  0  0  0
   -1.7881    0.2555    1.7713 H   0  0  0  0  0  0  0  0  0  0  0  0
   -2.0713   -0.2234    0.0983 H   0  0  0  0  0  0  0  0  0  0  0  0
   -1.3568    2.5540    1.1427 H   0  0  0  0  0  0  0  0  0  0  0  0
   -3.8175    1.4590   -0.3310 H   0  0  0  0  0  0  0  0  0  0  0  0
   -3.6098    3.1188    0.2684 H   0  0  0  0  0  0  0  0  0  0  0  0
   -3.7186    1.7731    1.4155 H   0  0  0  0  0  0  0  0  0  0  0  0
   -1.6215    1.6639   -1.7720 H   0  0  0  0  0  0  0  0  0  0  0  0
   -1.7613    3.3513   -1.2387 H   0  0  0  0  0  0  0  0  0  0  0  0
   -0.2402    2.4912   -1.0056 H   0  0  0  0  0  0  0  0  0  0  0  0
   -0.4184   -2.4809    0.6276 N   0  0  0  0  0  0  0  0  0  0  0  0
   -0.4237   -3.8801    1.0992 C   0  0  2  0  0  0  0  0  0  0  0  0
   -1.2689   -4.1366    2.3677 C   0  0  0  0  0  0  0  0  0  0  0  0
   -2.0279   -5.0970    2.3983 O   0  0  0  0  0  0  0  0  0  0  0  0
    1.0058   -4.4093    1.2805 C   0  0  0  0  0  0  0  0  0  0  0  0
   -0.7419   -2.3155   -0.3267 H   0  0  0  0  0  0  0  0  0  0  0  0
   -0.8871   -4.4753    0.3056 H   0  0  0  0  0  0  0  0  0  0  0  0
    1.4935   -3.9453    2.1431 H   0  0  0  0  0  0  0  0  0  0  0  0
    0.9861   -5.4913    1.4434 H   0  0  0  0  0  0  0  0  0  0  0  0
    1.6055   -4.2028    0.3899 H   0  0  0  0  0  0  0  0  0  0  0  0
   -1.1745   -3.3152    3.4729 N   0  0  0  0  0  0  0  0  0  0  0  0
   -1.9081   -3.5234    4.7128 C   0  0  0  0  0  0  0  0  0  0  0  0
   -0.4843   -2.5609    3.4143 H   0  0  0  0  0  0  0  0  0  0  0  0
   -1.6594   -4.4976    5.1463 H   0  0  0  0  0  0  0  0  0  0  0  0
   -1.6506   -2.7452    5.4376 H   0  0  0  0  0  0  0  0  0  0  0  0
   -2.9868   -3.4825    4.5300 H   0  0  0  0  0  0  0  0  0  0  0  0
  1  2  2  0  0  0  0
  1  3  1  0  0  0  0
  1  7  1  0  0  0  0
  3  4  1  0  0  0  0
  3  5  1  0  0  0  0
  3  6  1  0  0  0  0
  7  8  1  0  0  0  0
  7 12  1  0  0  0  0
  8  9  1  0  0  0  0
  8 11  1  0  0  0  0
  8 13  1  0  0  0  0
  9 10  2  0  0  0  0
  9 17  1  0  0  0  0
 11 14  1  0  0  0  0
 11 15  1  0  0  0  0
 11 16  1  0  0  0  0
 17 18  1  0  0  0  0
 17 25  1  0  0  0  0
 18 19  1  0  0  0  0
 18 21  1  0  0  0  0
 18 26  1  0  0  0  0
 19 20  2  0  0  0  0
 19 36  1  0  0  0  0
 21 22  1  0  0  0  0
 21 27  1  0  0  0  0
 21 28  1  0  0  0  0
 22 23  1  0  0  0  0
 22 24  1  0  0  0  0
 22 29  1  0  0  0  0
 23 30  1  0  0  0  0
 23 31  1  0  0  0  0
 23 32  1  0  0  0  0
 24 33  1  0  0  0  0
 24 34  1  0  0  0  0
 24 35  1  0  0  0  0
 36 37  1  0  0  0  0
 36 41  1  0  0  0  0
 37 38  1  0  0  0  0
 37 40  1  0  0  0  0
 37 42  1  0  0  0  0
 38 39  2  0  0  0  0
 38 46  1  0  0  0  0
 40 43  1  0  0  0  0
 40 44  1  0  0  0  0
 40 45  1  0  0  0  0
 46 47  1  0  0  0  0
 46 48  1  0  0  0  0
 47 49  1  0  0  0  0
 47 50  1  0  0  0  0
 47 51  1  0  0  0  0
M  END
$$$$

  -OEChem-05262216553D

 51 50  0     1  0  0  0  0  0999 V2000
    1.0474   -2.6933   -2.7011 C   0  0  0  0  0  0  0  0  0  0  0  0
   -0.0440   -2.2349   -2.3892 O   0  0  0  0  0  0  0  0  0  0  0  0
    1.1955   -4.1868   -2.9208 C   0  0  0  0  0  0  0  0  0  0  0  0
    1.8704   -4.6097   -2.1723 H   0  0  0  0  0  0  0  0  0  0  0  0
    0.2233   -4.6811   -2.8369 H   0  0  0  0  0  0  0  0  0  0  0  0
    1.6009   -4.3799   -3.9171 H   0  0  0  0  0  0  0  0  0  0  0  0
    2.1621   -1.8798   -2.7900 N   0  0  0  0  0  0  0  0  0  0  0  0
    2.2108   -0.4219   -2.5558 C   0  0  2  0  0  0  0  0  0  0  0  0
    1.7889   -0.0086   -1.1278 C   0  0  0  0  0  0  0  0  0  0  0  0
    2.6429    0.2035   -0.2806 O   0  0  0  0  0  0  0  0  0  0  0  0
    1.4015    0.3211   -3.6296 C   0  0  0  0  0  0  0  0  0  0  0  0
    3.0437   -2.3526   -2.9722 H   0  0  0  0  0  0  0  0  0  0  0  0
    3.2535   -0.1048   -2.6632 H   0  0  0  0  0  0  0  0  0  0  0  0
    0.3381    0.0706   -3.5762 H   0  0  0  0  0  0  0  0  0  0  0  0
    1.5058    1.4028   -3.4975 H   0  0  0  0  0  0  0  0  0  0  0  0
    1.7673    0.0583   -4.6269 H   0  0  0  0  0  0  0  0  0  0  0  0
    0.4545   -0.0020   -0.7743 N   0  0  0  0  0  0  0  0  0  0  0  0
   -0.0190   -0.0027    0.6174 C   0  0  2  0  0  0  0  0  0  0  0  0
    0.1493   -1.3972    1.2542 C   0  0  0  0  0  0  0  0  0  0  0  0
    0.4177   -1.4962    2.4444 O   0  0  0  0  0  0  0  0  0  0  0  0
   -1.4929    0.4467    0.7312 C   0  0  0  0  0  0  0  0  0  0  0  0
   -1.8101    1.9174    0.3576 C   0  0  0  0  0  0  0  0  0  0  0  0
   -3.3323    2.1086    0.3968 C   0  0  0  0  0  0  0  0  0  0  0  0
   -1.3139    2.3644   -1.0256 C   0  0  0  0  0  0  0  0  0  0  0  0
   -0.1587   -0.4145   -1.4792 H   0  0  0  0  0  0  0  0  0  0  0  0
    0.5898    0.6956    1.2029 H   0  0  0  0  0  0  0  0  0  0  0  0
   -1.8170    0.2888    1.7659 H   0  0  0  0  0  0  0  0  0  0  0  0
   -2.0968   -0.2135    0.0995 H   0  0  0  0  0  0  0  0  0  0  0  0
   -1.3531    2.5701    1.1095 H   0  0  0  0  0  0  0  0  0  0  0  0
   -3.8208    1.4954   -0.3673 H   0  0  0  0  0  0  0  0  0  0  0  0
   -3.5914    3.1571    0.2185 H   0  0  0  0  0  0  0  0  0  0  0  0
   -3.7279    1.8231    1.3766 H   0  0  0  0  0  0  0  0  0  0  0  0
   -1.6095    1.6437   -1.7942 H   0  0  0  0  0  0  0  0  0  0  0  0
   -1.7357    3.3399   -1.2870 H   0  0  0  0  0  0  0  0  0  0  0  0
   -0.2252    2.4680   -1.0306 H   0  0  0  0  0  0  0  0  0  0  0  0
   -0.2266   -2.5210    0.5339 N   0  0  0  0  0  0  0  0  0  0  0  0
   -0.1286   -3.9318    0.9571 C   0  0  2  0  0  0  0  0  0  0  0  0
   -1.1225   -4.3617    2.0605 C   0  0  0  0  0  0  0  0  0  0  0  0
   -1.6836   -5.4465    1.9700 O   0  0  0  0  0  0  0  0  0  0  0  0
    1.3122   -4.2858    1.3508 C   0  0  0  0  0  0  0  0  0  0  0  0
   -0.4321   -2.3486   -0.4522 H   0  0  0  0  0  0  0  0  0  0  0  0
   -0.3798   -4.5375    0.0806 H   0  0  0  0  0  0  0  0  0  0  0  0
    1.5978   -3.7957    2.2864 H   0  0  0  0  0  0  0  0  0  0  0  0
    1.4076   -5.3671    1.4903 H   0  0  0  0  0  0  0  0  0  0  0  0
    2.0094   -3.9737    0.5678 H   0  0  0  0  0  0  0  0  0  0  0  0
   -1.3732   -3.5619    3.1570 N   0  0  0  0  0  0  0  0  0  0  0  0
   -2.2267   -3.9462    4.2718 C   0  0  0  0  0  0  0  0  0  0  0  0
   -0.8008   -2.7161    3.2303 H   0  0  0  0  0  0  0  0  0  0  0  0
   -1.8130   -4.8189    4.7872 H   0  0  0  0  0  0  0  0  0  0  0  0
   -2.3031   -3.1228    4.9884 H   0  0  0  0  0  0  0  0  0  0  0  0
   -3.2338   -4.1894    3.9176 H   0  0  0  0  0  0  0  0  0  0  0  0
  1  2  2  0  0  0  0
  1  3  1  0  0  0  0
  1  7  1  0  0  0  0
  3  4  1  0  0  0  0
  3  5  1  0  0  0  0
  3  6  1  0  0  0  0
  7  8  1  0  0  0  0
  7 12  1  0  0  0  0
  8  9  1  0  0  0  0
  8 11  1  0  0  0  0
  8 13  1  0  0  0  0
  9 10  2  0  0  0  0
  9 17  1  0  0  0  0
 11 14  1  0  0  0  0
 11 15  1  0  0  0  0
 11 16  1  0  0  0  0
 17 18  1  0  0  0  0
 17 25  1  0  0  0  0
 18 19  1  0  0  0  0
 18 21  1  0  0  0  0
 18 26  1  0  0  0  0
 19 20  2  0  0  0  0
 19 36  1  0  0  0  0
 21 22  1  0  0  0  0
 21 27  1  0  0  0  0
 21 28  1  0  0  0  0
 22 23  1  0  0  0  0
 22 24  1  0  0  0  0
 22 29  1  0  0  0  0
 23 30  1  0  0  0  0
 23 31  1  0  0  0  0
 23 32  1  0  0  0  0
 24 33  1  0  0  0  0
 24 34  1  0  0  0  0
 24 35  1  0  0  0  0
 36 37  1  0  0  0  0
 36 41  1  0  0  0  0
 37 38  1  0  0  0  0
 37 40  1  0  0  0  0
 37 42  1  0  0  0  0
 38 39  2  0  0  0  0
 38 46  1  0  0  0  0
 40 43  1  0  0  0  0
 40 44  1  0  0  0  0
 40 45  1  0  0  0  0
 46 47  1  0  0  0  0
 46 48  1  0  0  0  0
 47 49  1  0  0  0  0
 47 50  1  0  0  0  0
 47 51  1  0  0  0  0
M  END
$$$$

  -OEChem-05262216553D

 51 50  0     1  0  0  0  0  0999 V2000
    1.1070   -2.7083   -2.8266 C   0  0  0  0  0  0  0  0  0  0  0  0
    0.0204   -2.3119   -2.4272 O   0  0  0  0  0  0  0  0  0  0  0  0
    1.2965   -4.1775   -3.1520 C   0  0  0  0  0  0  0  0  0  0  0  0
    2.0131   -4.6248   -2.4583 H   0  0  0  0  0  0  0  0  0  0  0  0
    0.3449   -4.7104   -3.0667 H   0  0  0  0  0  0  0  0  0  0  0  0
    1.6695   -4.2897   -4.1731 H   0  0  0  0  0  0  0  0  0  0  0  0
    2.1808   -1.8433   -2.9201 N   0  0  0  0  0  0  0  0  0  0  0  0
    2.1689   -0.3991   -2.6134 C   0  0  2  0  0  0  0  0  0  0  0  0
    1.7602   -0.0740   -1.1583 C   0  0  0  0  0  0  0  0  0  0  0  0
    2.6245    0.0883   -0.3101 O   0  0  0  0  0  0  0  0  0  0  0  0
    1.3023    0.3537   -3.6348 C   0  0  0  0  0  0  0  0  0  0  0  0
    3.0707   -2.2606   -3.1809 H   0  0  0  0  0  0  0  0  0  0  0  0
    3.1933   -0.0281   -2.7256 H   0  0  0  0  0  0  0  0  0  0  0  0
    0.2542    0.0461   -3.5756 H   0  0  0  0  0  0  0  0  0  0  0  0
    1.3548    1.4316   -3.4506 H   0  0  0  0  0  0  0  0  0  0  0  0
    1.6608    0.1596   -4.6503 H   0  0  0  0  0  0  0  0  0  0  0  0
    0.4287   -0.0531   -0.7889 N   0  0  0  0  0  0  0  0  0  0  0  0
   -0.0265   -0.0382    0.6102 C   0  0  2  0  0  0  0  0  0  0  0  0
    0.1289   -1.4216    1.2776 C   0  0  0  0  0  0  0  0  0  0  0  0
    0.1962   -1.5050    2.4976 O   0  0  0  0  0  0  0  0  0  0  0  0
   -1.4972    0.4228    0.7197 C   0  0  0  0  0  0  0  0  0  0  0  0
   -1.8083    1.8905    0.3276 C   0  0  0  0  0  0  0  0  0  0  0  0
   -3.3299    2.0855    0.3678 C   0  0  0  0  0  0  0  0  0  0  0  0
   -1.3135    2.3250   -1.0603 C   0  0  0  0  0  0  0  0  0  0  0  0
   -0.2070   -0.4339   -1.4912 H   0  0  0  0  0  0  0  0  0  0  0  0
    0.5910    0.6646    1.1807 H   0  0  0  0  0  0  0  0  0  0  0  0
   -1.8213    0.2822    1.7570 H   0  0  0  0  0  0  0  0  0  0  0  0
   -2.1055   -0.2442    0.0993 H   0  0  0  0  0  0  0  0  0  0  0  0
   -1.3480    2.5496    1.0716 H   0  0  0  0  0  0  0  0  0  0  0  0
   -3.8209    1.4644   -0.3882 H   0  0  0  0  0  0  0  0  0  0  0  0
   -3.5877    3.1322    0.1780 H   0  0  0  0  0  0  0  0  0  0  0  0
   -3.7238    1.8117    1.3517 H   0  0  0  0  0  0  0  0  0  0  0  0
   -1.6185    1.6032   -1.8244 H   0  0  0  0  0  0  0  0  0  0  0  0
   -1.7280    3.3030   -1.3246 H   0  0  0  0  0  0  0  0  0  0  0  0
   -0.2240    2.4196   -1.0694 H   0  0  0  0  0  0  0  0  0  0  0  0
    0.0330   -2.5713    0.5086 N   0  0  0  0  0  0  0  0  0  0  0  0
    0.2155   -3.9683    0.9485 C   0  0  2  0  0  0  0  0  0  0  0  0
   -0.9002   -4.5290    1.8596 C   0  0  0  0  0  0  0  0  0  0  0  0
   -1.3245   -5.6601    1.6582 O   0  0  0  0  0  0  0  0  0  0  0  0
    1.5939   -4.1593    1.5949 C   0  0  0  0  0  0  0  0  0  0  0  0
   -0.0855   -2.4109   -0.4937 H   0  0  0  0  0  0  0  0  0  0  0  0
    0.1975   -4.5844    0.0441 H   0  0  0  0  0  0  0  0  0  0  0  0
    1.6511   -3.6505    2.5617 H   0  0  0  0  0  0  0  0  0  0  0  0
    1.7863   -5.2241    1.7588 H   0  0  0  0  0  0  0  0  0  0  0  0
    2.3784   -3.7603    0.9449 H   0  0  0  0  0  0  0  0  0  0  0  0
   -1.4060   -3.7970    2.9148 N   0  0  0  0  0  0  0  0  0  0  0  0
   -2.3827   -4.3050    3.8673 C   0  0  0  0  0  0  0  0  0  0  0  0
   -0.9540   -2.8948    3.0892 H   0  0  0  0  0  0  0  0  0  0  0  0
   -1.9738   -5.1608    4.4143 H   0  0  0  0  0  0  0  0  0  0  0  0
   -2.6458   -3.5253    4.5886 H   0  0  0  0  0  0  0  0  0  0  0  0
   -3.2952   -4.6190    3.3497 H   0  0  0  0  0  0  0  0  0  0  0  0
  1  2  2  0  0  0  0
  1  3  1  0  0  0  0
  1  7  1  0  0  0  0
  3  4  1  0  0  0  0
  3  5  1  0  0  0  0
  3  6  1  0  0  0  0
  7  8  1  0  0  0  0
  7 12  1  0  0  0  0
  8  9  1  0  0  0  0
  8 11  1  0  0  0  0
  8 13  1  0  0  0  0
  9 10  2  0  0  0  0
  9 17  1  0  0  0  0
 11 14  1  0  0  0  0
 11 15  1  0  0  0  0
 11 16  1  0  0  0  0
 17 18  1  0  0  0  0
 17 25  1  0  0  0  0
 18 19  1  0  0  0  0
 18 21  1  0  0  0  0
 18 26  1  0  0  0  0
 19 20  2  0  0  0  0
 19 36  1  0  0  0  0
 21 22  1  0  0  0  0
 21 27  1  0  0  0  0
 21 28  1  0  0  0  0
 22 23  1  0  0  0  0
 22 24  1  0  0  0  0
 22 29  1  0  0  0  0
 23 30  1  0  0  0  0
 23 31  1  0  0  0  0
 23 32  1  0  0  0  0
 24 33  1  0  0  0  0
 24 34  1  0  0  0  0
 24 35  1  0  0  0  0
 36 37  1  0  0  0  0
 36 41  1  0  0  0  0
 37 38  1  0  0  0  0
 37 40  1  0  0  0  0
 37 42  1  0  0  0  0
 38 39  2  0  0  0  0
 38 46  1  0  0  0  0
 40 43  1  0  0  0  0
 40 44  1  0  0  0  0
 40 45  1  0  0  0  0
 46 47  1  0  0  0  0
 46 48  1  0  0  0  0
 47 49  1  0  0  0  0
 47 50  1  0  0  0  0
 47 51  1  0  0  0  0
M  END
$$$$

  -OEChem-05262216553D

 51 50  0     1  0  0  0  0  0999 V2000
    1.2307   -2.7519   -2.8927 C   0  0  0  0  0  0  0  0  0  0  0  0
    0.1388   -2.4351   -2.4419 O   0  0  0  0  0  0  0  0  0  0  0  0
    1.5172   -4.2026   -3.2292 C   0  0  0  0  0  0  0  0  0  0  0  0
    2.3217   -4.5821   -2.5941 H   0  0  0  0  0  0  0  0  0  0  0  0
    0.6239   -4.8127   -3.0660 H   0  0  0  0  0  0  0  0  0  0  0  0
    1.8158   -4.2922   -4.2767 H   0  0  0  0  0  0  0  0  0  0  0  0
    2.2287   -1.8061   -3.0241 N   0  0  0  0  0  0  0  0  0  0  0  0
    2.1105   -0.3736   -2.6905 C   0  0  2  0  0  0  0  0  0  0  0  0
    1.7208   -0.1105   -1.2172 C   0  0  0  0  0  0  0  0  0  0  0  0
    2.6013    0.0139   -0.3789 O   0  0  0  0  0  0  0  0  0  0  0  0
    1.1624    0.3241   -3.6783 C   0  0  0  0  0  0  0  0  0  0  0  0
    3.1407   -2.1505   -3.3136 H   0  0  0  0  0  0  0  0  0  0  0  0
    3.0987    0.0800   -2.8211 H   0  0  0  0  0  0  0  0  0  0  0  0
    0.1458   -0.0741   -3.6093 H   0  0  0  0  0  0  0  0  0  0  0  0
    1.1260    1.3984   -3.4707 H   0  0  0  0  0  0  0  0  0  0  0  0
    1.5180    0.1831   -4.7035 H   0  0  0  0  0  0  0  0  0  0  0  0
    0.3958   -0.0840   -0.8195 N   0  0  0  0  0  0  0  0  0  0  0  0
   -0.0223   -0.0793    0.5935 C   0  0  2  0  0  0  0  0  0  0  0  0
    0.1333   -1.4654    1.2617 C   0  0  0  0  0  0  0  0  0  0  0  0
    0.0233   -1.5696    2.4775 O   0  0  0  0  0  0  0  0  0  0  0  0
   -1.4828    0.4097    0.7386 C   0  0  0  0  0  0  0  0  0  0  0  0
   -1.7756    1.8877    0.3698 C   0  0  0  0  0  0  0  0  0  0  0  0
   -3.2922    2.1098    0.4444 C   0  0  0  0  0  0  0  0  0  0  0  0
   -1.3054    2.3278   -1.0246 C   0  0  0  0  0  0  0  0  0  0  0  0
   -0.2623   -0.4464   -1.5098 H   0  0  0  0  0  0  0  0  0  0  0  0
    0.6186    0.6121    1.1522 H   0  0  0  0  0  0  0  0  0  0  0  0
   -1.7914    0.2652    1.7800 H   0  0  0  0  0  0  0  0  0  0  0  0
   -2.1156   -0.2385    0.1232 H   0  0  0  0  0  0  0  0  0  0  0  0
   -1.2878    2.5305    1.1105 H   0  0  0  0  0  0  0  0  0  0  0  0
   -3.8103    1.5056   -0.3074 H   0  0  0  0  0  0  0  0  0  0  0  0
   -3.5346    3.1631    0.2711 H   0  0  0  0  0  0  0  0  0  0  0  0
   -3.6705    1.8332    1.4337 H   0  0  0  0  0  0  0  0  0  0  0  0
   -1.6418    1.6195   -1.7881 H   0  0  0  0  0  0  0  0  0  0  0  0
   -1.7078    3.3158   -1.2692 H   0  0  0  0  0  0  0  0  0  0  0  0
   -0.2149    2.4026   -1.0583 H   0  0  0  0  0  0  0  0  0  0  0  0
    0.3167   -2.5990    0.4853 N   0  0  0  0  0  0  0  0  0  0  0  0
    0.5593   -3.9817    0.9410 C   0  0  2  0  0  0  0  0  0  0  0  0
   -0.6413   -4.6690    1.6294 C   0  0  0  0  0  0  0  0  0  0  0  0
   -0.9329   -5.8180    1.3214 O   0  0  0  0  0  0  0  0  0  0  0  0
    1.8111   -4.0524    1.8255 C   0  0  0  0  0  0  0  0  0  0  0  0
    0.2731   -2.4409   -0.5232 H   0  0  0  0  0  0  0  0  0  0  0  0
    0.7679   -4.5735    0.0443 H   0  0  0  0  0  0  0  0  0  0  0  0
    1.6395   -3.5713    2.7928 H   0  0  0  0  0  0  0  0  0  0  0  0
    2.0832   -5.0967    2.0079 H   0  0  0  0  0  0  0  0  0  0  0  0
    2.6525   -3.5549    1.3335 H   0  0  0  0  0  0  0  0  0  0  0  0
   -1.3762   -4.0241    2.6032 N   0  0  0  0  0  0  0  0  0  0  0  0
   -2.4759   -4.6325    3.3371 C   0  0  0  0  0  0  0  0  0  0  0  0
   -1.0480   -3.0905    2.8663 H   0  0  0  0  0  0  0  0  0  0  0  0
   -2.1267   -5.5079    3.8943 H   0  0  0  0  0  0  0  0  0  0  0  0
   -2.8963   -3.9138    4.0471 H   0  0  0  0  0  0  0  0  0  0  0  0
   -3.2691   -4.9445    2.6498 H   0  0  0  0  0  0  0  0  0  0  0  0
  1  2  2  0  0  0  0
  1  3  1  0  0  0  0
  1  7  1  0  0  0  0
  3  4  1  0  0  0  0
  3  5  1  0  0  0  0
  3  6  1  0  0  0  0
  7  8  1  0  0  0  0
  7 12  1  0  0  0  0
  8  9  1  0  0  0  0
  8 11  1  0  0  0  0
  8 13  1  0  0  0  0
  9 10  2  0  0  0  0
  9 17  1  0  0  0  0
 11 14  1  0  0  0  0
 11 15  1  0  0  0  0
 11 16  1  0  0  0  0
 17 18  1  0  0  0  0
 17 25  1  0  0  0  0
 18 19  1  0  0  0  0
 18 21  1  0  0  0  0
 18 26  1  0  0  0  0
 19 20  2  0  0  0  0
 19 36  1  0  0  0  0
 21 22  1  0  0  0  0
 21 27  1  0  0  0  0
 21 28  1  0  0  0  0
 22 23  1  0  0  0  0
 22 24  1  0  0  0  0
 22 29  1  0  0  0  0
 23 30  1  0  0  0  0
 23 31  1  0  0  0  0
 23 32  1  0  0  0  0
 24 33  1  0  0  0  0
 24 34  1  0  0  0  0
 24 35  1  0  0  0  0
 36 37  1  0  0  0  0
 36 41  1  0  0  0  0
 37 38  1  0  0  0  0
 37 40  1  0  0  0  0
 37 42  1  0  0  0  0
 38 39  2  0  0  0  0
 38 46  1  0  0  0  0
 40 43  1  0  0  0  0
 40 44  1  0  0  0  0
 40 45  1  0  0  0  0
 46 47  1  0  0  0  0
 46 48  1  0  0  0  0
 47 49  1  0  0  0  0
 47 50  1  0  0  0  0
 47 51  1  0  0  0  0
M  END
$$$$

  -OEChem-05262216553D

 51 50  0     1  0  0  0  0  0999 V2000
    1.3413   -2.7895   -2.9278 C   0  0  0  0  0  0  0  0  0  0  0  0
    0.2545   -2.5571   -2.4191 O   0  0  0  0  0  0  0  0  0  0  0  0
    1.7375   -4.2170   -3.2528 C   0  0  0  0  0  0  0  0  0  0  0  0
    2.6060   -4.5090   -2.6569 H   0  0  0  0  0  0  0  0  0  0  0  0
    0.9125   -4.8994   -3.0273 H   0  0  0  0  0  0  0  0  0  0  0  0
    1.9856   -4.3052   -4.3135 H   0  0  0  0  0  0  0  0  0  0  0  0
    2.2410   -1.7606   -3.1253 N   0  0  0  0  0  0  0  0  0  0  0  0
    2.0123   -0.3461   -2.7748 C   0  0  2  0  0  0  0  0  0  0  0  0
    1.6721   -0.1329   -1.2806 C   0  0  0  0  0  0  0  0  0  0  0  0
    2.5817   -0.0502   -0.4685 O   0  0  0  0  0  0  0  0  0  0  0  0
    0.9613    0.2682   -3.7134 C   0  0  0  0  0  0  0  0  0  0  0  0
    3.1678   -2.0265   -3.4476 H   0  0  0  0  0  0  0  0  0  0  0  0
    2.9490    0.1946   -2.9455 H   0  0  0  0  0  0  0  0  0  0  0  0
   -0.0114   -0.2195   -3.6009 H   0  0  0  0  0  0  0  0  0  0  0  0
    0.8396    1.3343   -3.4973 H   0  0  0  0  0  0  0  0  0  0  0  0
    1.2796    0.1626   -4.7550 H   0  0  0  0  0  0  0  0  0  0  0  0
    0.3619   -0.0981   -0.8342 N   0  0  0  0  0  0  0  0  0  0  0  0
   -0.0094   -0.1150    0.5932 C   0  0  2  0  0  0  0  0  0  0  0  0
    0.1451   -1.5130    1.2439 C   0  0  0  0  0  0  0  0  0  0  0  0
   -0.1372   -1.6725    2.4258 O   0  0  0  0  0  0  0  0  0  0  0  0
   -1.4527    0.4137    0.7825 C   0  0  0  0  0  0  0  0  0  0  0  0
   -1.7094    1.9072    0.4485 C   0  0  0  0  0  0  0  0  0  0  0  0
   -3.2165    2.1720    0.5631 C   0  0  0  0  0  0  0  0  0  0  0  0
   -1.2542    2.3674   -0.9446 C   0  0  0  0  0  0  0  0  0  0  0  0
   -0.3277   -0.4314   -1.5067 H   0  0  0  0  0  0  0  0  0  0  0  0
    0.6628    0.5545    1.1410 H   0  0  0  0  0  0  0  0  0  0  0  0
   -1.7433    0.2629    1.8280 H   0  0  0  0  0  0  0  0  0  0  0  0
   -2.1185   -0.2053    0.1719 H   0  0  0  0  0  0  0  0  0  0  0  0
   -1.1876    2.5191    1.1923 H   0  0  0  0  0  0  0  0  0  0  0  0
   -3.7699    1.5939   -0.1840 H   0  0  0  0  0  0  0  0  0  0  0  0
   -3.4326    3.2341    0.4103 H   0  0  0  0  0  0  0  0  0  0  0  0
   -3.5786    1.8921    1.5574 H   0  0  0  0  0  0  0  0  0  0  0  0
   -1.6254    1.6877   -1.7178 H   0  0  0  0  0  0  0  0  0  0  0  0
   -1.6321    3.3722   -1.1581 H   0  0  0  0  0  0  0  0  0  0  0  0
   -0.1628    2.4125   -0.9982 H   0  0  0  0  0  0  0  0  0  0  0  0
    0.5897   -2.5912    0.4967 N   0  0  0  0  0  0  0  0  0  0  0  0
    0.9035   -3.9557    0.9619 C   0  0  2  0  0  0  0  0  0  0  0  0
   -0.3159   -4.7923    1.4076 C   0  0  0  0  0  0  0  0  0  0  0  0
   -0.4339   -5.9442    1.0079 O   0  0  0  0  0  0  0  0  0  0  0  0
    1.9778   -3.9263    2.0573 C   0  0  0  0  0  0  0  0  0  0  0  0
    0.6312   -2.4214   -0.5092 H   0  0  0  0  0  0  0  0  0  0  0  0
    1.3347   -4.4857    0.1070 H   0  0  0  0  0  0  0  0  0  0  0  0
    1.5842   -3.5033    2.9860 H   0  0  0  0  0  0  0  0  0  0  0  0
    2.3279   -4.9415    2.2676 H   0  0  0  0  0  0  0  0  0  0  0  0
    2.8325   -3.3239    1.7350 H   0  0  0  0  0  0  0  0  0  0  0  0
   -1.2606   -4.2755    2.2706 N   0  0  0  0  0  0  0  0  0  0  0  0
   -2.4040   -5.0212    2.7754 C   0  0  0  0  0  0  0  0  0  0  0  0
   -1.0871   -3.3241    2.6068 H   0  0  0  0  0  0  0  0  0  0  0  0
   -2.9802   -4.4019    3.4696 H   0  0  0  0  0  0  0  0  0  0  0  0
   -3.0596   -5.3202    1.9509 H   0  0  0  0  0  0  0  0  0  0  0  0
   -2.0713   -5.9192    3.3064 H   0  0  0  0  0  0  0  0  0  0  0  0
  1  2  2  0  0  0  0
  1  3  1  0  0  0  0
  1  7  1  0  0  0  0
  3  4  1  0  0  0  0
  3  5  1  0  0  0  0
  3  6  1  0  0  0  0
  7  8  1  0  0  0  0
  7 12  1  0  0  0  0
  8  9  1  0  0  0  0
  8 11  1  0  0  0  0
  8 13  1  0  0  0  0
  9 10  2  0  0  0  0
  9 17  1  0  0  0  0
 11 14  1  0  0  0  0
 11 15  1  0  0  0  0
 11 16  1  0  0  0  0
 17 18  1  0  0  0  0
 17 25  1  0  0  0  0
 18 19  1  0  0  0  0
 18 21  1  0  0  0  0
 18 26  1  0  0  0  0
 19 20  2  0  0  0  0
 19 36  1  0  0  0  0
 21 22  1  0  0  0  0
 21 27  1  0  0  0  0
 21 28  1  0  0  0  0
 22 23  1  0  0  0  0
 22 24  1  0  0  0  0
 22 29  1  0  0  0  0
 23 30  1  0  0  0  0
 23 31  1  0  0  0  0
 23 32  1  0  0  0  0
 24 33  1  0  0  0  0
 24 34  1  0  0  0  0
 24 35  1  0  0  0  0
 36 37  1  0  0  0  0
 36 41  1  0  0  0  0
 37 38  1  0  0  0  0
 37 40  1  0  0  0  0
 37 42  1  0  0  0  0
 38 39  2  0  0  0  0
 38 46  1  0  0  0  0
 40 43  1  0  0  0  0
 40 44  1  0  0  0  0
 40 45  1  0  0  0  0
 46 47  1  0  0  0  0
 46 48  1  0  0  0  0
 47 49  1  0  0  0  0
 47 50  1  0  0  0  0
 47 51  1  0  0  0  0
M  END
$$$$

  -OEChem-05262216553D

 51 50  0     1  0  0  0  0  0999 V2000
    0.5549   -2.6440   -2.8104 C   0  0  0  0  0  0  0  0  0  0  0  0
   -0.4574   -1.9957   -2.5915 O   0  0  0  0  0  0  0  0  0  0  0  0
    0.4675   -4.1501   -2.9640 C   0  0  0  0  0  0  0  0  0  0  0  0
    1.1682   -4.6383   -2.2817 H   0  0  0  0  0  0  0  0  0  0  0  0
   -0.5426   -4.4966   -2.7273 H   0  0  0  0  0  0  0  0  0  0  0  0
    0.7089   -4.4375   -3.9901 H   0  0  0  0  0  0  0  0  0  0  0  0
    1.7901   -2.0215   -2.8776 N   0  0  0  0  0  0  0  0  0  0  0  0
    2.0726   -0.5807   -2.6906 C   0  0  2  0  0  0  0  0  0  0  0  0
    1.8027   -0.0891   -1.2514 C   0  0  0  0  0  0  0  0  0  0  0  0
    2.7391    0.1304   -0.4971 O   0  0  0  0  0  0  0  0  0  0  0  0
    1.3304    0.2773   -3.7257 C   0  0  0  0  0  0  0  0  0  0  0  0
    2.5828   -2.6386   -3.0351 H   0  0  0  0  0  0  0  0  0  0  0  0
    3.1431   -0.4336   -2.8681 H   0  0  0  0  0  0  0  0  0  0  0  0
    0.2492    0.2620   -3.5609 H   0  0  0  0  0  0  0  0  0  0  0  0
    1.6680    1.3166   -3.6626 H   0  0  0  0  0  0  0  0  0  0  0  0
    1.5322   -0.0911   -4.7360 H   0  0  0  0  0  0  0  0  0  0  0  0
    0.5384   -0.1858   -0.7118 N   0  0  0  0  0  0  0  0  0  0  0  0
    0.1792   -0.0398    0.7096 C   0  0  2  0  0  0  0  0  0  0  0  0
    0.5847   -1.2929    1.5357 C   0  0  0  0  0  0  0  0  0  0  0  0
   -0.0440   -1.6175    2.5368 O   0  0  0  0  0  0  0  0  0  0  0  0
   -1.3308    0.2866    0.8454 C   0  0  0  0  0  0  0  0  0  0  0  0
   -1.8147    1.6534    0.2914 C   0  0  0  0  0  0  0  0  0  0  0  0
   -3.3450    1.6980    0.3964 C   0  0  0  0  0  0  0  0  0  0  0  0
   -1.4356    1.9537   -1.1668 C   0  0  0  0  0  0  0  0  0  0  0  0
   -0.1573   -0.6143   -1.3314 H   0  0  0  0  0  0  0  0  0  0  0  0
    0.7391    0.8020    1.1301 H   0  0  0  0  0  0  0  0  0  0  0  0
   -1.5988    0.2618    1.9069 H   0  0  0  0  0  0  0  0  0  0  0  0
   -1.8913   -0.5151    0.3518 H   0  0  0  0  0  0  0  0  0  0  0  0
   -1.3959    2.4467    0.9195 H   0  0  0  0  0  0  0  0  0  0  0  0
   -3.8001    0.9387   -0.2476 H   0  0  0  0  0  0  0  0  0  0  0  0
   -3.7220    2.6803    0.0950 H   0  0  0  0  0  0  0  0  0  0  0  0
   -3.6624    1.5142    1.4277 H   0  0  0  0  0  0  0  0  0  0  0  0
   -1.6957    1.1113   -1.8157 H   0  0  0  0  0  0  0  0  0  0  0  0
   -1.9659    2.8414   -1.5251 H   0  0  0  0  0  0  0  0  0  0  0  0
   -0.3648    2.1578   -1.2532 H   0  0  0  0  0  0  0  0  0  0  0  0
    1.4726   -2.2024    0.9841 N   0  0  0  0  0  0  0  0  0  0  0  0
    1.7588   -3.5824    1.4129 C   0  0  2  0  0  0  0  0  0  0  0  0
    0.5773   -4.5390    1.1501 C   0  0  0  0  0  0  0  0  0  0  0  0
    0.7090   -5.4490    0.3398 O   0  0  0  0  0  0  0  0  0  0  0  0
    2.2349   -3.6477    2.8710 C   0  0  0  0  0  0  0  0  0  0  0  0
    2.0220   -1.8216    0.2156 H   0  0  0  0  0  0  0  0  0  0  0  0
    2.5892   -3.9421    0.7971 H   0  0  0  0  0  0  0  0  0  0  0  0
    1.4257   -3.4135    3.5680 H   0  0  0  0  0  0  0  0  0  0  0  0
    2.5988   -4.6537    3.1007 H   0  0  0  0  0  0  0  0  0  0  0  0
    3.0512   -2.9377    3.0349 H   0  0  0  0  0  0  0  0  0  0  0  0
   -0.6509   -4.3183    1.7398 N   0  0  0  0  0  0  0  0  0  0  0  0
   -1.8607   -5.0441    1.3802 C   0  0  0  0  0  0  0  0  0  0  0  0
   -0.7318   -3.4464    2.2712 H   0  0  0  0  0  0  0  0  0  0  0  0
   -1.7119   -6.1221    1.5013 H   0  0  0  0  0  0  0  0  0  0  0  0
   -2.6894   -4.7372    2.0256 H   0  0  0  0  0  0  0  0  0  0  0  0
   -2.1338   -4.8394    0.3397 H   0  0  0  0  0  0  0  0  0  0  0  0
  1  2  2  0  0  0  0
  1  3  1  0  0  0  0
  1  7  1  0  0  0  0
  3  4  1  0  0  0  0
  3  5  1  0  0  0  0
  3  6  1  0  0  0  0
  7  8  1  0  0  0  0
  7 12  1  0  0  0  0
  8  9  1  0  0  0  0
  8 11  1  0  0  0  0
  8 13  1  0  0  0  0
  9 10  2  0  0  0  0
  9 17  1  0  0  0  0
 11 14  1  0  0  0  0
 11 15  1  0  0  0  0
 11 16  1  0  0  0  0
 17 18  1  0  0  0  0
 17 25  1  0  0  0  0
 18 19  1  0  0  0  0
 18 21  1  0  0  0  0
 18 26  1  0  0  0  0
 19 20  2  0  0  0  0
 19 36  1  0  0  0  0
 21 22  1  0  0  0  0
 21 27  1  0  0  0  0
 21 28  1  0  0  0  0
 22 23  1  0  0  0  0
 22 24  1  0  0  0  0
 22 29  1  0  0  0  0
 23 30  1  0  0  0  0
 23 31  1  0  0  0  0
 23 32  1  0  0  0  0
 24 33  1  0  0  0  0
 24 34  1  0  0  0  0
 24 35  1  0  0  0  0
 36 37  1  0  0  0  0
 36 41  1  0  0  0  0
 37 38  1  0  0  0  0
 37 40  1  0  0  0  0
 37 42  1  0  0  0  0
 38 39  2  0  0  0  0
 38 46  1  0  0  0  0
 40 43  1  0  0  0  0
 40 44  1  0  0  0  0
 40 45  1  0  0  0  0
 46 47  1  0  0  0  0
 46 48  1  0  0  0  0
 47 49  1  0  0  0  0
 47 50  1  0  0  0  0
 47 51  1  0  0  0  0
M  END
$$$$

  -OEChem-05262216553D

 51 50  0     1  0  0  0  0  0999 V2000
    2.2808   -2.8744   -2.9478 C   0  0  0  0  0  0  0  0  0  0  0  0
    1.3471   -3.1861   -2.2251 O   0  0  0  0  0  0  0  0  0  0  0  0
    3.3813   -3.8765   -3.2387 C   0  0  0  0  0  0  0  0  0  0  0  0
    4.3280   -3.5222   -2.8230 H   0  0  0  0  0  0  0  0  0  0  0  0
    3.1394   -4.8436   -2.7881 H   0  0  0  0  0  0  0  0  0  0  0  0
    3.4909   -4.0095   -4.3177 H   0  0  0  0  0  0  0  0  0  0  0  0
    2.3658   -1.5912   -3.4550 N   0  0  0  0  0  0  0  0  0  0  0  0
    1.4531   -0.4949   -3.0812 C   0  0  2  0  0  0  0  0  0  0  0  0
    1.3597   -0.2955   -1.5472 C   0  0  0  0  0  0  0  0  0  0  0  0
    2.3844   -0.2803   -0.8781 O   0  0  0  0  0  0  0  0  0  0  0  0
    0.0865   -0.7136   -3.7514 C   0  0  0  0  0  0  0  0  0  0  0  0
    3.2424   -1.3494   -3.9083 H   0  0  0  0  0  0  0  0  0  0  0  0
    1.8652    0.4373   -3.4794 H   0  0  0  0  0  0  0  0  0  0  0  0
   -0.4160   -1.5966   -3.3438 H   0  0  0  0  0  0  0  0  0  0  0  0
   -0.5590    0.1569   -3.5984 H   0  0  0  0  0  0  0  0  0  0  0  0
    0.2147   -0.8585   -4.8285 H   0  0  0  0  0  0  0  0  0  0  0  0
    0.1475   -0.1662   -0.8920 N   0  0  0  0  0  0  0  0  0  0  0  0
   -0.0033   -0.1405    0.5754 C   0  0  2  0  0  0  0  0  0  0  0  0
    0.1549   -1.5424    1.2331 C   0  0  0  0  0  0  0  0  0  0  0  0
   -0.4560   -1.8163    2.2600 O   0  0  0  0  0  0  0  0  0  0  0  0
   -1.3410    0.5461    0.9609 C   0  0  0  0  0  0  0  0  0  0  0  0
   -1.4819    2.0579    0.6373 C   0  0  0  0  0  0  0  0  0  0  0  0
   -2.9191    2.4857    0.9634 C   0  0  0  0  0  0  0  0  0  0  0  0
   -1.1881    2.4638   -0.8151 C   0  0  0  0  0  0  0  0  0  0  0  0
   -0.6842   -0.3387   -1.4495 H   0  0  0  0  0  0  0  0  0  0  0  0
    0.8009    0.4728    0.9960 H   0  0  0  0  0  0  0  0  0  0  0  0
   -1.4888    0.4430    2.0412 H   0  0  0  0  0  0  0  0  0  0  0  0
   -2.1534   -0.0018    0.4719 H   0  0  0  0  0  0  0  0  0  0  0  0
   -0.7950    2.6118    1.2863 H   0  0  0  0  0  0  0  0  0  0  0  0
   -3.6344    1.9724    0.3130 H   0  0  0  0  0  0  0  0  0  0  0  0
   -3.0385    3.5653    0.8280 H   0  0  0  0  0  0  0  0  0  0  0  0
   -3.1613    2.2459    2.0037 H   0  0  0  0  0  0  0  0  0  0  0  0
   -1.7406    1.8291   -1.5147 H   0  0  0  0  0  0  0  0  0  0  0  0
   -1.4822    3.5040   -0.9876 H   0  0  0  0  0  0  0  0  0  0  0  0
   -0.1179    2.3893   -1.0278 H   0  0  0  0  0  0  0  0  0  0  0  0
    0.9690   -2.5088    0.6659 N   0  0  0  0  0  0  0  0  0  0  0  0
    1.3006   -3.8515    1.1855 C   0  0  2  0  0  0  0  0  0  0  0  0
    0.1347   -4.8663    1.2306 C   0  0  0  0  0  0  0  0  0  0  0  0
    0.3512   -6.0470    0.9835 O   0  0  0  0  0  0  0  0  0  0  0  0
    1.9836   -3.7490    2.5553 C   0  0  0  0  0  0  0  0  0  0  0  0
    1.4036   -2.2444   -0.2199 H   0  0  0  0  0  0  0  0  0  0  0  0
    2.0323   -4.2771    0.4914 H   0  0  0  0  0  0  0  0  0  0  0  0
    1.2784   -3.4207    3.3244 H   0  0  0  0  0  0  0  0  0  0  0  0
    2.3807   -4.7253    2.8500 H   0  0  0  0  0  0  0  0  0  0  0  0
    2.8126   -3.0363    2.5132 H   0  0  0  0  0  0  0  0  0  0  0  0
   -1.1322   -4.4884    1.6288 N   0  0  0  0  0  0  0  0  0  0  0  0
   -2.2243   -5.4236    1.8563 C   0  0  0  0  0  0  0  0  0  0  0  0
   -1.2132   -3.5292    1.9753 H   0  0  0  0  0  0  0  0  0  0  0  0
   -3.1302   -4.8810    2.1426 H   0  0  0  0  0  0  0  0  0  0  0  0
   -2.4363   -5.9935    0.9457 H   0  0  0  0  0  0  0  0  0  0  0  0
   -1.9683   -6.1226    2.6592 H   0  0  0  0  0  0  0  0  0  0  0  0
  1  2  2  0  0  0  0
  1  3  1  0  0  0  0
  1  7  1  0  0  0  0
  3  4  1  0  0  0  0
  3  5  1  0  0  0  0
  3  6  1  0  0  0  0
  7  8  1  0  0  0  0
  7 12  1  0  0  0  0
  8  9  1  0  0  0  0
  8 11  1  0  0  0  0
  8 13  1  0  0  0  0
  9 10  2  0  0  0  0
  9 17  1  0  0  0  0
 11 14  1  0  0  0  0
 11 15  1  0  0  0  0
 11 16  1  0  0  0  0
 17 18  1  0  0  0  0
 17 25  1  0  0  0  0
 18 19  1  0  0  0  0
 18 21  1  0  0  0  0
 18 26  1  0  0  0  0
 19 20  2  0  0  0  0
 19 36  1  0  0  0  0
 21 22  1  0  0  0  0
 21 27  1  0  0  0  0
 21 28  1  0  0  0  0
 22 23  1  0  0  0  0
 22 24  1  0  0  0  0
 22 29  1  0  0  0  0
 23 30  1  0  0  0  0
 23 31  1  0  0  0  0
 23 32  1  0  0  0  0
 24 33  1  0  0  0  0
 24 34  1  0  0  0  0
 24 35  1  0  0  0  0
 36 37  1  0  0  0  0
 36 41  1  0  0  0  0
 37 38  1  0  0  0  0
 37 40  1  0  0  0  0
 37 42  1  0  0  0  0
 38 39  2  0  0  0  0
 38 46  1  0  0  0  0
 40 43  1  0  0  0  0
 40 44  1  0  0  0  0
 40 45  1  0  0  0  0
 46 47  1  0  0  0  0
 46 48  1  0  0  0  0
 47 49  1  0  0  0  0
 47 50  1  0  0  0  0
 47 51  1  0  0  0  0
M  END
$$$$

  -OEChem-05262216553D

 51 50  0     1  0  0  0  0  0999 V2000
    2.8579   -2.8824   -2.7667 C   0  0  0  0  0  0  0  0  0  0  0  0
    2.3737   -3.4158   -1.7805 O   0  0  0  0  0  0  0  0  0  0  0  0
    4.2110   -3.3455   -3.2732 C   0  0  0  0  0  0  0  0  0  0  0  0
    4.9203   -2.5144   -3.2545 H   0  0  0  0  0  0  0  0  0  0  0  0
    4.5962   -4.1492   -2.6393 H   0  0  0  0  0  0  0  0  0  0  0  0
    4.1202   -3.7170   -4.2968 H   0  0  0  0  0  0  0  0  0  0  0  0
    2.2107   -1.8494   -3.4217 N   0  0  0  0  0  0  0  0  0  0  0  0
    0.9912   -1.1778   -2.9310 C   0  0  2  0  0  0  0  0  0  0  0  0
    1.1496   -0.5638   -1.5151 C   0  0  0  0  0  0  0  0  0  0  0  0
    2.2622   -0.2479   -1.1045 O   0  0  0  0  0  0  0  0  0  0  0  0
   -0.2078   -2.1300   -3.0579 C   0  0  0  0  0  0  0  0  0  0  0  0
    2.7595   -1.3691   -4.1277 H   0  0  0  0  0  0  0  0  0  0  0  0
    0.7924   -0.3302   -3.5931 H   0  0  0  0  0  0  0  0  0  0  0  0
   -0.0960   -2.9945   -2.3990 H   0  0  0  0  0  0  0  0  0  0  0  0
   -1.1399   -1.6181   -2.8016 H   0  0  0  0  0  0  0  0  0  0  0  0
   -0.2905   -2.4945   -4.0860 H   0  0  0  0  0  0  0  0  0  0  0  0
    0.0590   -0.2384   -0.7264 N   0  0  0  0  0  0  0  0  0  0  0  0
    0.1860    0.1901    0.6828 C   0  0  2  0  0  0  0  0  0  0  0  0
    0.5033   -1.0198    1.6011 C   0  0  0  0  0  0  0  0  0  0  0  0
   -0.1745   -1.2549    2.5958 O   0  0  0  0  0  0  0  0  0  0  0  0
   -1.0774    0.9639    1.1398 C   0  0  0  0  0  0  0  0  0  0  0  0
   -1.3547    2.3340    0.4675 C   0  0  0  0  0  0  0  0  0  0  0  0
   -2.7168    2.8421    0.9589 C   0  0  0  0  0  0  0  0  0  0  0  0
   -1.3801    2.3262   -1.0678 C   0  0  0  0  0  0  0  0  0  0  0  0
   -0.7923   -0.7466   -0.9604 H   0  0  0  0  0  0  0  0  0  0  0  0
    1.0311    0.8796    0.7776 H   0  0  0  0  0  0  0  0  0  0  0  0
   -0.9989    1.1439    2.2174 H   0  0  0  0  0  0  0  0  0  0  0  0
   -1.9430    0.3107    0.9846 H   0  0  0  0  0  0  0  0  0  0  0  0
   -0.5795    3.0378    0.7890 H   0  0  0  0  0  0  0  0  0  0  0  0
   -3.5202    2.1749    0.6301 H   0  0  0  0  0  0  0  0  0  0  0  0
   -2.9164    3.8451    0.5690 H   0  0  0  0  0  0  0  0  0  0  0  0
   -2.7333    2.8931    2.0521 H   0  0  0  0  0  0  0  0  0  0  0  0
   -2.0281    1.5263   -1.4394 H   0  0  0  0  0  0  0  0  0  0  0  0
   -1.7563    3.2807   -1.4492 H   0  0  0  0  0  0  0  0  0  0  0  0
   -0.3723    2.1890   -1.4694 H   0  0  0  0  0  0  0  0  0  0  0  0
    1.4652   -1.9337    1.2045 N   0  0  0  0  0  0  0  0  0  0  0  0
    1.2947   -3.3830    1.4031 C   0  0  2  0  0  0  0  0  0  0  0  0
   -0.0745   -3.9215    0.8973 C   0  0  0  0  0  0  0  0  0  0  0  0
   -0.7421   -3.3078    0.0662 O   0  0  0  0  0  0  0  0  0  0  0  0
    1.5803   -3.7573    2.8668 C   0  0  0  0  0  0  0  0  0  0  0  0
    1.9431   -1.6615    0.3422 H   0  0  0  0  0  0  0  0  0  0  0  0
    2.0545   -3.8808    0.7938 H   0  0  0  0  0  0  0  0  0  0  0  0
    0.7629   -3.4405    3.5214 H   0  0  0  0  0  0  0  0  0  0  0  0
    1.7040   -4.8390    2.9685 H   0  0  0  0  0  0  0  0  0  0  0  0
    2.5023   -3.2746    3.2052 H   0  0  0  0  0  0  0  0  0  0  0  0
   -0.5462   -5.1486    1.3316 N   0  0  0  0  0  0  0  0  0  0  0  0
   -1.8377   -5.6981    0.9379 C   0  0  0  0  0  0  0  0  0  0  0  0
   -0.0224   -5.6068    2.0703 H   0  0  0  0  0  0  0  0  0  0  0  0
   -1.9793   -6.6870    1.3839 H   0  0  0  0  0  0  0  0  0  0  0  0
   -2.6498   -5.0455    1.2751 H   0  0  0  0  0  0  0  0  0  0  0  0
   -1.8956   -5.8001   -0.1509 H   0  0  0  0  0  0  0  0  0  0  0  0
  1  2  2  0  0  0  0
  1  3  1  0  0  0  0
  1  7  1  0  0  0  0
  3  4  1  0  0  0  0
  3  5  1  0  0  0  0
  3  6  1  0  0  0  0
  7  8  1  0  0  0  0
  7 12  1  0  0  0  0
  8  9  1  0  0  0  0
  8 11  1  0  0  0  0
  8 13  1  0  0  0  0
  9 10  2  0  0  0  0
  9 17  1  0  0  0  0
 11 14  1  0  0  0  0
 11 15  1  0  0  0  0
 11 16  1  0  0  0  0
 17 18  1  0  0  0  0
 17 25  1  0  0  0  0
 18 19  1  0  0  0  0
 18 21  1  0  0  0  0
 18 26  1  0  0  0  0
 19 20  2  0  0  0  0
 19 36  1  0  0  0  0
 21 22  1  0  0  0  0
 21 27  1  0  0  0  0
 21 28  1  0  0  0  0
 22 23  1  0  0  0  0
 22 24  1  0  0  0  0
 22 29  1  0  0  0  0
 23 30  1  0  0  0  0
 23 31  1  0  0  0  0
 23 32  1  0  0  0  0
 24 33  1  0  0  0  0
 24 34  1  0  0  0  0
 24 35  1  0  0  0  0
 36 37  1  0  0  0  0
 36 41  1  0  0  0  0
 37 38  1  0  0  0  0
 37 40  1  0  0  0  0
 37 42  1  0  0  0  0
 38 39  2  0  0  0  0
 38 46  1  0  0  0  0
 40 43  1  0  0  0  0
 40 44  1  0  0  0  0
 40 45  1  0  0  0  0
 46 47  1  0  0  0  0
 46 48  1  0  0  0  0
 47 49  1  0  0  0  0
 47 50  1  0  0  0  0
 47 51  1  0  0  0  0
M  END
$$$$

  -OEChem-05262216553D

 51 50  0     1  0  0  0  0  0999 V2000
    3.0421   -2.7624   -2.7298 C   0  0  0  0  0  0  0  0  0  0  0  0
    2.5813   -3.3106   -1.7408 O   0  0  0  0  0  0  0  0  0  0  0  0
    4.4092   -3.1804   -3.2386 C   0  0  0  0  0  0  0  0  0  0  0  0
    5.1010   -2.3362   -3.1874 H   0  0  0  0  0  0  0  0  0  0  0  0
    4.8052   -3.9964   -2.6277 H   0  0  0  0  0  0  0  0  0  0  0  0
    4.3348   -3.5213   -4.2739 H   0  0  0  0  0  0  0  0  0  0  0  0
    2.3561   -1.7574   -3.3904 N   0  0  0  0  0  0  0  0  0  0  0  0
    1.0904   -1.1520   -2.9293 C   0  0  2  0  0  0  0  0  0  0  0  0
    1.1650   -0.5514   -1.5012 C   0  0  0  0  0  0  0  0  0  0  0  0
    2.2505   -0.2417   -1.0174 O   0  0  0  0  0  0  0  0  0  0  0  0
   -0.0517   -2.1645   -3.0998 C   0  0  0  0  0  0  0  0  0  0  0  0
    2.8774   -1.2709   -4.1125 H   0  0  0  0  0  0  0  0  0  0  0  0
    0.8698   -0.3071   -3.5880 H   0  0  0  0  0  0  0  0  0  0  0  0
    0.0897   -3.0284   -2.4457 H   0  0  0  0  0  0  0  0  0  0  0  0
   -1.0167   -1.7071   -2.8639 H   0  0  0  0  0  0  0  0  0  0  0  0
   -0.0867   -2.5221   -4.1331 H   0  0  0  0  0  0  0  0  0  0  0  0
    0.0270   -0.2121   -0.7856 N   0  0  0  0  0  0  0  0  0  0  0  0
    0.0858    0.1456    0.6458 C   0  0  2  0  0  0  0  0  0  0  0  0
    0.2896   -1.1331    1.4939 C   0  0  0  0  0  0  0  0  0  0  0  0
   -0.5306   -1.4780    2.3389 O   0  0  0  0  0  0  0  0  0  0  0  0
   -1.1744    0.9385    1.0740 C   0  0  0  0  0  0  0  0  0  0  0  0
   -1.3702    2.3475    0.4568 C   0  0  0  0  0  0  0  0  0  0  0  0
   -2.7399    2.8779    0.9009 C   0  0  0  0  0  0  0  0  0  0  0  0
   -1.3135    2.4108   -1.0766 C   0  0  0  0  0  0  0  0  0  0  0  0
   -0.8259   -0.6674   -1.1018 H   0  0  0  0  0  0  0  0  0  0  0  0
    0.9476    0.7945    0.8335 H   0  0  0  0  0  0  0  0  0  0  0  0
   -1.1487    1.0589    2.1627 H   0  0  0  0  0  0  0  0  0  0  0  0
   -2.0512    0.3253    0.8386 H   0  0  0  0  0  0  0  0  0  0  0  0
   -0.5911    3.0082    0.8519 H   0  0  0  0  0  0  0  0  0  0  0  0
   -3.5456    2.2556    0.4981 H   0  0  0  0  0  0  0  0  0  0  0  0
   -2.8856    3.9049    0.5518 H   0  0  0  0  0  0  0  0  0  0  0  0
   -2.8133    2.8770    1.9930 H   0  0  0  0  0  0  0  0  0  0  0  0
   -1.9630    1.6492   -1.5193 H   0  0  0  0  0  0  0  0  0  0  0  0
   -1.6411    3.3929   -1.4318 H   0  0  0  0  0  0  0  0  0  0  0  0
   -0.2898    2.2605   -1.4308 H   0  0  0  0  0  0  0  0  0  0  0  0
    1.4186   -1.9038    1.2782 N   0  0  0  0  0  0  0  0  0  0  0  0
    1.4269   -3.3566    1.5172 C   0  0  2  0  0  0  0  0  0  0  0  0
    0.1668   -4.0925    0.9747 C   0  0  0  0  0  0  0  0  0  0  0  0
   -0.4250   -3.6919   -0.0246 O   0  0  0  0  0  0  0  0  0  0  0  0
    1.6834   -3.6168    3.0099 C   0  0  0  0  0  0  0  0  0  0  0  0
    1.9847   -1.5772    0.4899 H   0  0  0  0  0  0  0  0  0  0  0  0
    2.2735   -3.7721    0.9619 H   0  0  0  0  0  0  0  0  0  0  0  0
    0.8161   -3.3273    3.6110 H   0  0  0  0  0  0  0  0  0  0  0  0
    1.8926   -4.6758    3.1853 H   0  0  0  0  0  0  0  0  0  0  0  0
    2.5480   -3.0378    3.3490 H   0  0  0  0  0  0  0  0  0  0  0  0
   -0.3049   -5.2377    1.5940 N   0  0  0  0  0  0  0  0  0  0  0  0
   -1.5457   -5.8968    1.2060 C   0  0  0  0  0  0  0  0  0  0  0  0
    0.1102   -5.4706    2.4901 H   0  0  0  0  0  0  0  0  0  0  0  0
   -1.7042   -6.7928    1.8137 H   0  0  0  0  0  0  0  0  0  0  0  0
   -2.3970   -5.2233    1.3508 H   0  0  0  0  0  0  0  0  0  0  0  0
   -1.5084   -6.1969    0.1534 H   0  0  0  0  0  0  0  0  0  0  0  0
  1  2  2  0  0  0  0
  1  3  1  0  0  0  0
  1  7  1  0  0  0  0
  3  4  1  0  0  0  0
  3  5  1  0  0  0  0
  3  6  1  0  0  0  0
  7  8  1  0  0  0  0
  7 12  1  0  0  0  0
  8  9  1  0  0  0  0
  8 11  1  0  0  0  0
  8 13  1  0  0  0  0
  9 10  2  0  0  0  0
  9 17  1  0  0  0  0
 11 14  1  0  0  0  0
 11 15  1  0  0  0  0
 11 16  1  0  0  0  0
 17 18  1  0  0  0  0
 17 25  1  0  0  0  0
 18 19  1  0  0  0  0
 18 21  1  0  0  0  0
 18 26  1  0  0  0  0
 19 20  2  0  0  0  0
 19 36  1  0  0  0  0
 21 22  1  0  0  0  0
 21 27  1  0  0  0  0
 21 28  1  0  0  0  0
 22 23  1  0  0  0  0
 22 24  1  0  0  0  0
 22 29  1  0  0  0  0
 23 30  1  0  0  0  0
 23 31  1  0  0  0  0
 23 32  1  0  0  0  0
 24 33  1  0  0  0  0
 24 34  1  0  0  0  0
 24 35  1  0  0  0  0
 36 37  1  0  0  0  0
 36 41  1  0  0  0  0
 37 38  1  0  0  0  0
 37 40  1  0  0  0  0
 37 42  1  0  0  0  0
 38 39  2  0  0  0  0
 38 46  1  0  0  0  0
 40 43  1  0  0  0  0
 40 44  1  0  0  0  0
 40 45  1  0  0  0  0
 46 47  1  0  0  0  0
 46 48  1  0  0  0  0
 47 49  1  0  0  0  0
 47 50  1  0  0  0  0
 47 51  1  0  0  0  0
M  END
$$$$

  -OEChem-05262216553D

 51 50  0     1  0  0  0  0  0999 V2000
    3.2536   -2.5112   -3.1343 C   0  0  0  0  0  0  0  0  0  0  0  0
    2.9919   -3.3941   -2.3352 O   0  0  0  0  0  0  0  0  0  0  0  0
    4.6450   -2.4525   -3.7375 C   0  0  0  0  0  0  0  0  0  0  0  0
    5.1364   -1.5204   -3.4480 H   0  0  0  0  0  0  0  0  0  0  0  0
    5.2470   -3.2924   -3.3796 H   0  0  0  0  0  0  0  0  0  0  0  0
    4.5842   -2.5031   -4.8272 H   0  0  0  0  0  0  0  0  0  0  0  0
    2.3271   -1.5527   -3.5085 N   0  0  0  0  0  0  0  0  0  0  0  0
    1.0226   -1.3162   -2.8554 C   0  0  2  0  0  0  0  0  0  0  0  0
    1.1254   -0.7976   -1.3985 C   0  0  0  0  0  0  0  0  0  0  0  0
    2.2136   -0.6010   -0.8627 O   0  0  0  0  0  0  0  0  0  0  0  0
    0.1121   -2.5492   -2.9613 C   0  0  0  0  0  0  0  0  0  0  0  0
    2.7045   -0.7969   -4.0705 H   0  0  0  0  0  0  0  0  0  0  0  0
    0.5318   -0.5171   -3.4183 H   0  0  0  0  0  0  0  0  0  0  0  0
    0.4779   -3.3661   -2.3339 H   0  0  0  0  0  0  0  0  0  0  0  0
   -0.9041   -2.3060   -2.6377 H   0  0  0  0  0  0  0  0  0  0  0  0
    0.0699   -2.9023   -3.9958 H   0  0  0  0  0  0  0  0  0  0  0  0
   -0.0019   -0.3357   -0.7361 N   0  0  0  0  0  0  0  0  0  0  0  0
    0.0390    0.0653    0.6813 C   0  0  2  0  0  0  0  0  0  0  0  0
    0.1015   -1.1994    1.5657 C   0  0  0  0  0  0  0  0  0  0  0  0
   -0.8642   -1.5631    2.2290 O   0  0  0  0  0  0  0  0  0  0  0  0
   -1.1565    0.9809    1.0430 C   0  0  0  0  0  0  0  0  0  0  0  0
   -1.2017    2.3810    0.3758 C   0  0  0  0  0  0  0  0  0  0  0  0
   -2.5290    3.0524    0.7527 C   0  0  0  0  0  0  0  0  0  0  0  0
   -1.0871    2.3878   -1.1557 C   0  0  0  0  0  0  0  0  0  0  0  0
   -0.8921   -0.6659   -1.0993 H   0  0  0  0  0  0  0  0  0  0  0  0
    0.9472    0.6439    0.8801 H   0  0  0  0  0  0  0  0  0  0  0  0
   -1.1540    1.1295    2.1284 H   0  0  0  0  0  0  0  0  0  0  0  0
   -2.0785    0.4439    0.7942 H   0  0  0  0  0  0  0  0  0  0  0  0
   -0.3782    2.9804    0.7786 H   0  0  0  0  0  0  0  0  0  0  0  0
   -3.3759    2.4930    0.3424 H   0  0  0  0  0  0  0  0  0  0  0  0
   -2.5666    4.0746    0.3630 H   0  0  0  0  0  0  0  0  0  0  0  0
   -2.6383    3.0995    1.8408 H   0  0  0  0  0  0  0  0  0  0  0  0
   -1.7925    1.6784   -1.5995 H   0  0  0  0  0  0  0  0  0  0  0  0
   -1.3052    3.3847   -1.5516 H   0  0  0  0  0  0  0  0  0  0  0  0
   -0.0716    2.1285   -1.4676 H   0  0  0  0  0  0  0  0  0  0  0  0
    1.2987   -1.8896    1.6339 N   0  0  0  0  0  0  0  0  0  0  0  0
    1.3697   -3.3036    2.0404 C   0  0  2  0  0  0  0  0  0  0  0  0
    0.3324   -4.2112    1.3200 C   0  0  0  0  0  0  0  0  0  0  0  0
   -0.0207   -3.9672    0.1705 O   0  0  0  0  0  0  0  0  0  0  0  0
    1.2986   -3.3996    3.5732 C   0  0  0  0  0  0  0  0  0  0  0  0
    1.9616   -1.5960    0.9100 H   0  0  0  0  0  0  0  0  0  0  0  0
    2.3516   -3.6794    1.7367 H   0  0  0  0  0  0  0  0  0  0  0  0
    0.2981   -3.1462    3.9371 H   0  0  0  0  0  0  0  0  0  0  0  0
    1.5444   -4.4121    3.9061 H   0  0  0  0  0  0  0  0  0  0  0  0
    2.0157   -2.7082    4.0262 H   0  0  0  0  0  0  0  0  0  0  0  0
   -0.1726   -5.3455    1.9327 N   0  0  0  0  0  0  0  0  0  0  0  0
   -1.1933   -6.1895    1.3242 C   0  0  0  0  0  0  0  0  0  0  0  0
    0.0394   -5.4670    2.9176 H   0  0  0  0  0  0  0  0  0  0  0  0
   -1.4332   -7.0289    1.9835 H   0  0  0  0  0  0  0  0  0  0  0  0
   -2.1082   -5.6147    1.1461 H   0  0  0  0  0  0  0  0  0  0  0  0
   -0.8379   -6.5917    0.3697 H   0  0  0  0  0  0  0  0  0  0  0  0
  1  2  2  0  0  0  0
  1  3  1  0  0  0  0
  1  7  1  0  0  0  0
  3  4  1  0  0  0  0
  3  5  1  0  0  0  0
  3  6  1  0  0  0  0
  7  8  1  0  0  0  0
  7 12  1  0  0  0  0
  8  9  1  0  0  0  0
  8 11  1  0  0  0  0
  8 13  1  0  0  0  0
  9 10  2  0  0  0  0
  9 17  1  0  0  0  0
 11 14  1  0  0  0  0
 11 15  1  0  0  0  0
 11 16  1  0  0  0  0
 17 18  1  0  0  0  0
 17 25  1  0  0  0  0
 18 19  1  0  0  0  0
 18 21  1  0  0  0  0
 18 26  1  0  0  0  0
 19 20  2  0  0  0  0
 19 36  1  0  0  0  0
 21 22  1  0  0  0  0
 21 27  1  0  0  0  0
 21 28  1  0  0  0  0
 22 23  1  0  0  0  0
 22 24  1  0  0  0  0
 22 29  1  0  0  0  0
 23 30  1  0  0  0  0
 23 31  1  0  0  0  0
 23 32  1  0  0  0  0
 24 33  1  0  0  0  0
 24 34  1  0  0  0  0
 24 35  1  0  0  0  0
 36 37  1  0  0  0  0
 36 41  1  0  0  0  0
 37 38  1  0  0  0  0
 37 40  1  0  0  0  0
 37 42  1  0  0  0  0
 38 39  2  0  0  0  0
 38 46  1  0  0  0  0
 40 43  1  0  0  0  0
 40 44  1  0  0  0  0
 40 45  1  0  0  0  0
 46 47  1  0  0  0  0
 46 48  1  0  0  0  0
 47 49  1  0  0  0  0
 47 50  1  0  0  0  0
 47 51  1  0  0  0  0
M  END
$$$$

  -OEChem-05262216553D

 51 50  0     1  0  0  0  0  0999 V2000
    3.2751   -2.4774   -3.3157 C   0  0  0  0  0  0  0  0  0  0  0  0
    2.9987   -3.5272   -2.7640 O   0  0  0  0  0  0  0  0  0  0  0  0
    4.6879   -2.2734   -3.8312 C   0  0  0  0  0  0  0  0  0  0  0  0
    5.1507   -1.4249   -3.3215 H   0  0  0  0  0  0  0  0  0  0  0  0
    5.2902   -3.1668   -3.6432 H   0  0  0  0  0  0  0  0  0  0  0  0
    4.6702   -2.0817   -4.9065 H   0  0  0  0  0  0  0  0  0  0  0  0
    2.3477   -1.4683   -3.5116 N   0  0  0  0  0  0  0  0  0  0  0  0
    1.0344   -1.3441   -2.8421 C   0  0  2  0  0  0  0  0  0  0  0  0
    1.1260   -0.8493   -1.3781 C   0  0  0  0  0  0  0  0  0  0  0  0
    2.2085   -0.6920   -0.8174 O   0  0  0  0  0  0  0  0  0  0  0  0
    0.1809   -2.6182   -2.9442 C   0  0  0  0  0  0  0  0  0  0  0  0
    2.7503   -0.6083   -3.8692 H   0  0  0  0  0  0  0  0  0  0  0  0
    0.4902   -0.5681   -3.3878 H   0  0  0  0  0  0  0  0  0  0  0  0
    0.5382   -3.3879   -2.2530 H   0  0  0  0  0  0  0  0  0  0  0  0
   -0.8615   -2.4015   -2.6933 H   0  0  0  0  0  0  0  0  0  0  0  0
    0.2156   -3.0203   -3.9612 H   0  0  0  0  0  0  0  0  0  0  0  0
   -0.0034   -0.3544   -0.7439 N   0  0  0  0  0  0  0  0  0  0  0  0
    0.0248    0.0459    0.6705 C   0  0  2  0  0  0  0  0  0  0  0  0
    0.0353   -1.2234    1.5468 C   0  0  0  0  0  0  0  0  0  0  0  0
   -1.0074   -1.6822    2.0016 O   0  0  0  0  0  0  0  0  0  0  0  0
   -1.1565    0.9821    1.0233 C   0  0  0  0  0  0  0  0  0  0  0  0
   -1.1704    2.3841    0.3597 C   0  0  0  0  0  0  0  0  0  0  0  0
   -2.4891    3.0775    0.7277 C   0  0  0  0  0  0  0  0  0  0  0  0
   -1.0466    2.3908   -1.1711 C   0  0  0  0  0  0  0  0  0  0  0  0
   -0.8972   -0.6454   -1.1304 H   0  0  0  0  0  0  0  0  0  0  0  0
    0.9421    0.6046    0.8848 H   0  0  0  0  0  0  0  0  0  0  0  0
   -1.1630    1.1246    2.1095 H   0  0  0  0  0  0  0  0  0  0  0  0
   -2.0857    0.4638    0.7620 H   0  0  0  0  0  0  0  0  0  0  0  0
   -0.3391    2.9681    0.7692 H   0  0  0  0  0  0  0  0  0  0  0  0
   -3.3432    2.5319    0.3135 H   0  0  0  0  0  0  0  0  0  0  0  0
   -2.5077    4.0996    0.3367 H   0  0  0  0  0  0  0  0  0  0  0  0
   -2.6038    3.1281    1.8150 H   0  0  0  0  0  0  0  0  0  0  0  0
   -1.7657    1.6989   -1.6204 H   0  0  0  0  0  0  0  0  0  0  0  0
   -1.2392    3.3933   -1.5662 H   0  0  0  0  0  0  0  0  0  0  0  0
   -0.0357    2.1087   -1.4779 H   0  0  0  0  0  0  0  0  0  0  0  0
    1.2579   -1.7718    1.8907 N   0  0  0  0  0  0  0  0  0  0  0  0
    1.3852   -3.1333    2.4403 C   0  0  2  0  0  0  0  0  0  0  0  0
    0.6342   -4.2070    1.6052 C   0  0  0  0  0  0  0  0  0  0  0  0
    0.5752   -4.1092    0.3850 O   0  0  0  0  0  0  0  0  0  0  0  0
    0.9880   -3.1302    3.9259 C   0  0  0  0  0  0  0  0  0  0  0  0
    2.0049   -1.4721    1.2592 H   0  0  0  0  0  0  0  0  0  0  0  0
    2.4433   -3.4075    2.3905 H   0  0  0  0  0  0  0  0  0  0  0  0
   -0.0895   -2.9811    4.0451 H   0  0  0  0  0  0  0  0  0  0  0  0
    1.2617   -4.0784    4.3979 H   0  0  0  0  0  0  0  0  0  0  0  0
    1.5087   -2.3242    4.4520 H   0  0  0  0  0  0  0  0  0  0  0  0
    0.0739   -5.3223    2.2045 N   0  0  0  0  0  0  0  0  0  0  0  0
   -0.6937   -6.3173    1.4652 C   0  0  0  0  0  0  0  0  0  0  0  0
    0.0198   -5.3181    3.2178 H   0  0  0  0  0  0  0  0  0  0  0  0
   -1.0066   -7.1260    2.1324 H   0  0  0  0  0  0  0  0  0  0  0  0
   -1.5877   -5.8616    1.0263 H   0  0  0  0  0  0  0  0  0  0  0  0
   -0.0878   -6.7496    0.6616 H   0  0  0  0  0  0  0  0  0  0  0  0
  1  2  2  0  0  0  0
  1  3  1  0  0  0  0
  1  7  1  0  0  0  0
  3  4  1  0  0  0  0
  3  5  1  0  0  0  0
  3  6  1  0  0  0  0
  7  8  1  0  0  0  0
  7 12  1  0  0  0  0
  8  9  1  0  0  0  0
  8 11  1  0  0  0  0
  8 13  1  0  0  0  0
  9 10  2  0  0  0  0
  9 17  1  0  0  0  0
 11 14  1  0  0  0  0
 11 15  1  0  0  0  0
 11 16  1  0  0  0  0
 17 18  1  0  0  0  0
 17 25  1  0  0  0  0
 18 19  1  0  0  0  0
 18 21  1  0  0  0  0
 18 26  1  0  0  0  0
 19 20  2  0  0  0  0
 19 36  1  0  0  0  0
 21 22  1  0  0  0  0
 21 27  1  0  0  0  0
 21 28  1  0  0  0  0
 22 23  1  0  0  0  0
 22 24  1  0  0  0  0
 22 29  1  0  0  0  0
 23 30  1  0  0  0  0
 23 31  1  0  0  0  0
 23 32  1  0  0  0  0
 24 33  1  0  0  0  0
 24 34  1  0  0  0  0
 24 35  1  0  0  0  0
 36 37  1  0  0  0  0
 36 41  1  0  0  0  0
 37 38  1  0  0  0  0
 37 40  1  0  0  0  0
 37 42  1  0  0  0  0
 38 39  2  0  0  0  0
 38 46  1  0  0  0  0
 40 43  1  0  0  0  0
 40 44  1  0  0  0  0
 40 45  1  0  0  0  0
 46 47  1  0  0  0  0
 46 48  1  0  0  0  0
 47 49  1  0  0  0  0
 47 50  1  0  0  0  0
 47 51  1  0  0  0  0
M  END
$$$$

  -OEChem-05262216553D

 51 50  0     1  0  0  0  0  0999 V2000
    2.9053   -2.1924   -4.2279 C   0  0  0  0  0  0  0  0  0  0  0  0
    2.0518   -2.1294   -5.0985 O   0  0  0  0  0  0  0  0  0  0  0  0
    4.3565   -2.4381   -4.5958 C   0  0  0  0  0  0  0  0  0  0  0  0
    4.9685   -1.5849   -4.2928 H   0  0  0  0  0  0  0  0  0  0  0  0
    4.7214   -3.3368   -4.0924 H   0  0  0  0  0  0  0  0  0  0  0  0
    4.4537   -2.5764   -5.6762 H   0  0  0  0  0  0  0  0  0  0  0  0
    2.5515   -2.0381   -2.9046 N   0  0  0  0  0  0  0  0  0  0  0  0
    1.1969   -1.7214   -2.4343 C   0  0  2  0  0  0  0  0  0  0  0  0
    1.2239   -0.9404   -1.1044 C   0  0  0  0  0  0  0  0  0  0  0  0
    2.2656   -0.8372   -0.4607 O   0  0  0  0  0  0  0  0  0  0  0  0
    0.4294   -3.0376   -2.2640 C   0  0  0  0  0  0  0  0  0  0  0  0
    3.3028   -1.9986   -2.2167 H   0  0  0  0  0  0  0  0  0  0  0  0
    0.6855   -1.0946   -3.1733 H   0  0  0  0  0  0  0  0  0  0  0  0
    0.9193   -3.6710   -1.5175 H   0  0  0  0  0  0  0  0  0  0  0  0
   -0.5984   -2.8483   -1.9400 H   0  0  0  0  0  0  0  0  0  0  0  0
    0.3948   -3.5821   -3.2132 H   0  0  0  0  0  0  0  0  0  0  0  0
    0.0605   -0.4223   -0.5647 N   0  0  0  0  0  0  0  0  0  0  0  0
   -0.0040    0.0392    0.8275 C   0  0  2  0  0  0  0  0  0  0  0  0
   -0.0469   -1.1922    1.7551 C   0  0  0  0  0  0  0  0  0  0  0  0
   -1.0537   -1.8907    1.8006 O   0  0  0  0  0  0  0  0  0  0  0  0
   -1.2198    0.9599    1.0814 C   0  0  0  0  0  0  0  0  0  0  0  0
   -1.2265    2.3336    0.3620 C   0  0  0  0  0  0  0  0  0  0  0  0
   -2.5764    3.0117    0.6331 C   0  0  0  0  0  0  0  0  0  0  0  0
   -1.0207    2.2813   -1.1592 C   0  0  0  0  0  0  0  0  0  0  0  0
   -0.8112   -0.6779   -1.0214 H   0  0  0  0  0  0  0  0  0  0  0  0
    0.8928    0.6207    1.0677 H   0  0  0  0  0  0  0  0  0  0  0  0
   -1.2876    1.1445    2.1589 H   0  0  0  0  0  0  0  0  0  0  0  0
   -2.1237    0.4120    0.7926 H   0  0  0  0  0  0  0  0  0  0  0  0
   -0.4299    2.9520    0.7896 H   0  0  0  0  0  0  0  0  0  0  0  0
   -3.3967    2.4311    0.1987 H   0  0  0  0  0  0  0  0  0  0  0  0
   -2.5953    4.0167    0.1995 H   0  0  0  0  0  0  0  0  0  0  0  0
   -2.7484    3.1034    1.7104 H   0  0  0  0  0  0  0  0  0  0  0  0
   -1.6981    1.5542   -1.6175 H   0  0  0  0  0  0  0  0  0  0  0  0
   -1.2152    3.2617   -1.6051 H   0  0  0  0  0  0  0  0  0  0  0  0
    0.0115    2.0129   -1.4008 H   0  0  0  0  0  0  0  0  0  0  0  0
    1.0919   -1.5406    2.4606 N   0  0  0  0  0  0  0  0  0  0  0  0
    1.2975   -2.7672    3.2588 C   0  0  2  0  0  0  0  0  0  0  0  0
    1.3074   -4.0791    2.4388 C   0  0  0  0  0  0  0  0  0  0  0  0
    2.2026   -4.8944    2.6169 O   0  0  0  0  0  0  0  0  0  0  0  0
    0.2959   -2.8554    4.4183 C   0  0  0  0  0  0  0  0  0  0  0  0
    1.9333   -1.0561    2.1497 H   0  0  0  0  0  0  0  0  0  0  0  0
    2.2924   -2.6857    3.7086 H   0  0  0  0  0  0  0  0  0  0  0  0
   -0.7180   -3.0501    4.0568 H   0  0  0  0  0  0  0  0  0  0  0  0
    0.5777   -3.6701    5.0930 H   0  0  0  0  0  0  0  0  0  0  0  0
    0.2906   -1.9207    4.9870 H   0  0  0  0  0  0  0  0  0  0  0  0
    0.3156   -4.3595    1.5194 N   0  0  0  0  0  0  0  0  0  0  0  0
    0.2094   -5.6179    0.7942 C   0  0  0  0  0  0  0  0  0  0  0  0
   -0.4537   -3.6860    1.4758 H   0  0  0  0  0  0  0  0  0  0  0  0
   -0.0001   -6.4404    1.4857 H   0  0  0  0  0  0  0  0  0  0  0  0
   -0.6016   -5.5635    0.0619 H   0  0  0  0  0  0  0  0  0  0  0  0
    1.1410   -5.8337    0.2607 H   0  0  0  0  0  0  0  0  0  0  0  0
  1  2  2  0  0  0  0
  1  3  1  0  0  0  0
  1  7  1  0  0  0  0
  3  4  1  0  0  0  0
  3  5  1  0  0  0  0
  3  6  1  0  0  0  0
  7  8  1  0  0  0  0
  7 12  1  0  0  0  0
  8  9  1  0  0  0  0
  8 11  1  0  0  0  0
  8 13  1  0  0  0  0
  9 10  2  0  0  0  0
  9 17  1  0  0  0  0
 11 14  1  0  0  0  0
 11 15  1  0  0  0  0
 11 16  1  0  0  0  0
 17 18  1  0  0  0  0
 17 25  1  0  0  0  0
 18 19  1  0  0  0  0
 18 21  1  0  0  0  0
 18 26  1  0  0  0  0
 19 20  2  0  0  0  0
 19 36  1  0  0  0  0
 21 22  1  0  0  0  0
 21 27  1  0  0  0  0
 21 28  1  0  0  0  0
 22 23  1  0  0  0  0
 22 24  1  0  0  0  0
 22 29  1  0  0  0  0
 23 30  1  0  0  0  0
 23 31  1  0  0  0  0
 23 32  1  0  0  0  0
 24 33  1  0  0  0  0
 24 34  1  0  0  0  0
 24 35  1  0  0  0  0
 36 37  1  0  0  0  0
 36 41  1  0  0  0  0
 37 38  1  0  0  0  0
 37 40  1  0  0  0  0
 37 42  1  0  0  0  0
 38 39  2  0  0  0  0
 38 46  1  0  0  0  0
 40 43  1  0  0  0  0
 40 44  1  0  0  0  0
 40 45  1  0  0  0  0
 46 47  1  0  0  0  0
 46 48  1  0  0  0  0
 47 49  1  0  0  0  0
 47 50  1  0  0  0  0
 47 51  1  0  0  0  0
M  END
$$$$

  -OEChem-05262216553D

 51 50  0     1  0  0  0  0  0999 V2000
    1.9267   -3.2176   -2.3840 C   0  0  0  0  0  0  0  0  0  0  0  0
    0.8178   -3.3054   -1.8817 O   0  0  0  0  0  0  0  0  0  0  0  0
    2.8632   -4.4107   -2.3663 C   0  0  0  0  0  0  0  0  0  0  0  0
    3.6046   -4.2880   -1.5725 H   0  0  0  0  0  0  0  0  0  0  0  0
    2.2985   -5.3292   -2.1868 H   0  0  0  0  0  0  0  0  0  0  0  0
    3.3783   -4.5012   -3.3256 H   0  0  0  0  0  0  0  0  0  0  0  0
    2.3498   -2.0330   -2.9562 N   0  0  0  0  0  0  0  0  0  0  0  0
    1.6183   -0.7574   -2.8717 C   0  0  2  0  0  0  0  0  0  0  0  0
    1.4373   -0.2870   -1.4100 C   0  0  0  0  0  0  0  0  0  0  0  0
    2.4332   -0.0083   -0.7499 O   0  0  0  0  0  0  0  0  0  0  0  0
    0.3031   -0.8210   -3.6680 C   0  0  0  0  0  0  0  0  0  0  0  0
    3.3358   -1.9919   -3.1980 H   0  0  0  0  0  0  0  0  0  0  0  0
    2.2359    0.0077   -3.3520 H   0  0  0  0  0  0  0  0  0  0  0  0
   -0.4047   -1.5260   -3.2226 H   0  0  0  0  0  0  0  0  0  0  0  0
   -0.1682    0.1663   -3.6981 H   0  0  0  0  0  0  0  0  0  0  0  0
    0.5018   -1.1383   -4.6961 H   0  0  0  0  0  0  0  0  0  0  0  0
    0.1907   -0.1409   -0.8266 N   0  0  0  0  0  0  0  0  0  0  0  0
    0.0544    0.0889    0.6177 C   0  0  2  0  0  0  0  0  0  0  0  0
    0.3130   -1.2204    1.3916 C   0  0  0  0  0  0  0  0  0  0  0  0
   -0.4793   -2.1487    1.2894 O   0  0  0  0  0  0  0  0  0  0  0  0
   -1.3344    0.6636    0.9810 C   0  0  0  0  0  0  0  0  0  0  0  0
   -1.6656    2.0880    0.4640 C   0  0  0  0  0  0  0  0  0  0  0  0
   -3.1290    2.3975    0.8069 C   0  0  0  0  0  0  0  0  0  0  0  0
   -1.4798    2.3005   -1.0458 C   0  0  0  0  0  0  0  0  0  0  0  0
   -0.5503   -0.6744   -1.2771 H   0  0  0  0  0  0  0  0  0  0  0  0
    0.7971    0.8253    0.9411 H   0  0  0  0  0  0  0  0  0  0  0  0
   -1.4237    0.6732    2.0728 H   0  0  0  0  0  0  0  0  0  0  0  0
   -2.0940   -0.0296    0.6030 H   0  0  0  0  0  0  0  0  0  0  0  0
   -1.0226    2.8034    0.9877 H   0  0  0  0  0  0  0  0  0  0  0  0
   -3.8040    1.7195    0.2745 H   0  0  0  0  0  0  0  0  0  0  0  0
   -3.3789    3.4261    0.5283 H   0  0  0  0  0  0  0  0  0  0  0  0
   -3.3016    2.2859    1.8820 H   0  0  0  0  0  0  0  0  0  0  0  0
   -1.9787    1.5080   -1.6122 H   0  0  0  0  0  0  0  0  0  0  0  0
   -1.9029    3.2623   -1.3520 H   0  0  0  0  0  0  0  0  0  0  0  0
   -0.4178    2.3140   -1.3060 H   0  0  0  0  0  0  0  0  0  0  0  0
    1.3463   -1.2839    2.3107 N   0  0  0  0  0  0  0  0  0  0  0  0
    1.6761   -2.4174    3.2003 C   0  0  2  0  0  0  0  0  0  0  0  0
    2.1117   -3.7262    2.4968 C   0  0  0  0  0  0  0  0  0  0  0  0
    3.0256   -4.3834    2.9801 O   0  0  0  0  0  0  0  0  0  0  0  0
    0.5279   -2.6951    4.1803 C   0  0  0  0  0  0  0  0  0  0  0  0
    2.0443   -0.5496    2.2174 H   0  0  0  0  0  0  0  0  0  0  0  0
    2.5362   -2.1030    3.8001 H   0  0  0  0  0  0  0  0  0  0  0  0
   -0.3395   -3.1182    3.6651 H   0  0  0  0  0  0  0  0  0  0  0  0
    0.8516   -3.4109    4.9425 H   0  0  0  0  0  0  0  0  0  0  0  0
    0.2220   -1.7716    4.6802 H   0  0  0  0  0  0  0  0  0  0  0  0
    1.4612   -4.2097    1.3788 N   0  0  0  0  0  0  0  0  0  0  0  0
    1.6794   -5.5377    0.8262 C   0  0  0  0  0  0  0  0  0  0  0  0
    0.6498   -3.6705    1.0601 H   0  0  0  0  0  0  0  0  0  0  0  0
    1.4366   -6.3052    1.5681 H   0  0  0  0  0  0  0  0  0  0  0  0
    1.0404   -5.6879   -0.0492 H   0  0  0  0  0  0  0  0  0  0  0  0
    2.7233   -5.6592    0.5204 H   0  0  0  0  0  0  0  0  0  0  0  0
  1  2  2  0  0  0  0
  1  3  1  0  0  0  0
  1  7  1  0  0  0  0
  3  4  1  0  0  0  0
  3  5  1  0  0  0  0
  3  6  1  0  0  0  0
  7  8  1  0  0  0  0
  7 12  1  0  0  0  0
  8  9  1  0  0  0  0
  8 11  1  0  0  0  0
  8 13  1  0  0  0  0
  9 10  2  0  0  0  0
  9 17  1  0  0  0  0
 11 14  1  0  0  0  0
 11 15  1  0  0  0  0
 11 16  1  0  0  0  0
 17 18  1  0  0  0  0
 17 25  1  0  0  0  0
 18 19  1  0  0  0  0
 18 21  1  0  0  0  0
 18 26  1  0  0  0  0
 19 20  2  0  0  0  0
 19 36  1  0  0  0  0
 21 22  1  0  0  0  0
 21 27  1  0  0  0  0
 21 28  1  0  0  0  0
 22 23  1  0  0  0  0
 22 24  1  0  0  0  0
 22 29  1  0  0  0  0
 23 30  1  0  0  0  0
 23 31  1  0  0  0  0
 23 32  1  0  0  0  0
 24 33  1  0  0  0  0
 24 34  1  0  0  0  0
 24 35  1  0  0  0  0
 36 37  1  0  0  0  0
 36 41  1  0  0  0  0
 37 38  1  0  0  0  0
 37 40  1  0  0  0  0
 37 42  1  0  0  0  0
 38 39  2  0  0  0  0
 38 46  1  0  0  0  0
 40 43  1  0  0  0  0
 40 44  1  0  0  0  0
 40 45  1  0  0  0  0
 46 47  1  0  0  0  0
 46 48  1  0  0  0  0
 47 49  1  0  0  0  0
 47 50  1  0  0  0  0
 47 51  1  0  0  0  0
M  END
$$$$

  -OEChem-05262216553D

 51 50  0     1  0  0  0  0  0999 V2000
    2.2241   -3.2619   -2.3393 C   0  0  0  0  0  0  0  0  0  0  0  0
    1.1863   -3.5447   -1.7640 O   0  0  0  0  0  0  0  0  0  0  0  0
    3.3812   -4.2428   -2.3286 C   0  0  0  0  0  0  0  0  0  0  0  0
    4.1628   -3.8858   -1.6533 H   0  0  0  0  0  0  0  0  0  0  0  0
    3.0413   -5.2245   -1.9884 H   0  0  0  0  0  0  0  0  0  0  0  0
    3.7957   -4.3462   -3.3341 H   0  0  0  0  0  0  0  0  0  0  0  0
    2.3721   -2.0493   -2.9860 N   0  0  0  0  0  0  0  0  0  0  0  0
    1.4299   -0.9225   -2.8641 C   0  0  2  0  0  0  0  0  0  0  0  0
    1.3265   -0.4017   -1.4107 C   0  0  0  0  0  0  0  0  0  0  0  0
    2.3553   -0.1390   -0.7965 O   0  0  0  0  0  0  0  0  0  0  0  0
    0.0689   -1.2641   -3.4966 C   0  0  0  0  0  0  0  0  0  0  0  0
    3.3221   -1.8283   -3.2702 H   0  0  0  0  0  0  0  0  0  0  0  0
    1.8412   -0.0915   -3.4447 H   0  0  0  0  0  0  0  0  0  0  0  0
   -0.4714   -2.0106   -2.9069 H   0  0  0  0  0  0  0  0  0  0  0  0
   -0.5523   -0.3658   -3.5665 H   0  0  0  0  0  0  0  0  0  0  0  0
    0.2124   -1.6610   -4.5062 H   0  0  0  0  0  0  0  0  0  0  0  0
    0.1092   -0.1389   -0.8072 N   0  0  0  0  0  0  0  0  0  0  0  0
    0.0179    0.1332    0.6340 C   0  0  2  0  0  0  0  0  0  0  0  0
    0.1801   -1.1722    1.4400 C   0  0  0  0  0  0  0  0  0  0  0  0
   -0.5135   -2.1410    1.1562 O   0  0  0  0  0  0  0  0  0  0  0  0
   -1.3182    0.8132    1.0097 C   0  0  0  0  0  0  0  0  0  0  0  0
   -1.5595    2.2455    0.4656 C   0  0  0  0  0  0  0  0  0  0  0  0
   -2.9902    2.6640    0.8302 C   0  0  0  0  0  0  0  0  0  0  0  0
   -1.3926    2.4086   -1.0526 C   0  0  0  0  0  0  0  0  0  0  0  0
   -0.6818   -0.6209   -1.2277 H   0  0  0  0  0  0  0  0  0  0  0  0
    0.8237    0.8146    0.9260 H   0  0  0  0  0  0  0  0  0  0  0  0
   -1.3849    0.8546    2.1023 H   0  0  0  0  0  0  0  0  0  0  0  0
   -2.1314    0.1658    0.6633 H   0  0  0  0  0  0  0  0  0  0  0  0
   -0.8572    2.9265    0.9583 H   0  0  0  0  0  0  0  0  0  0  0  0
   -3.7218    2.0215    0.3293 H   0  0  0  0  0  0  0  0  0  0  0  0
   -3.1754    3.7004    0.5304 H   0  0  0  0  0  0  0  0  0  0  0  0
   -3.1457    2.5904    1.9112 H   0  0  0  0  0  0  0  0  0  0  0  0
   -1.9587    1.6407   -1.5889 H   0  0  0  0  0  0  0  0  0  0  0  0
   -1.7532    3.3906   -1.3745 H   0  0  0  0  0  0  0  0  0  0  0  0
   -0.3384    2.3399   -1.3349 H   0  0  0  0  0  0  0  0  0  0  0  0
    1.0031   -1.2040    2.5532 N   0  0  0  0  0  0  0  0  0  0  0  0
    1.2166   -2.3476    3.4650 C   0  0  2  0  0  0  0  0  0  0  0  0
    1.9125   -3.5778    2.8355 C   0  0  0  0  0  0  0  0  0  0  0  0
    2.8159   -4.1283    3.4533 O   0  0  0  0  0  0  0  0  0  0  0  0
   -0.0914   -2.7631    4.1534 C   0  0  0  0  0  0  0  0  0  0  0  0
    1.6380   -0.4156    2.6445 H   0  0  0  0  0  0  0  0  0  0  0  0
    1.8898   -1.9958    4.2532 H   0  0  0  0  0  0  0  0  0  0  0  0
   -0.7799   -3.2362    3.4471 H   0  0  0  0  0  0  0  0  0  0  0  0
    0.1194   -3.4808    4.9524 H   0  0  0  0  0  0  0  0  0  0  0  0
   -0.5854   -1.8913    4.5921 H   0  0  0  0  0  0  0  0  0  0  0  0
    1.5197   -4.0960    1.6176 N   0  0  0  0  0  0  0  0  0  0  0  0
    2.0873   -5.2942    1.0190 C   0  0  0  0  0  0  0  0  0  0  0  0
    0.7506   -3.6174    1.1384 H   0  0  0  0  0  0  0  0  0  0  0  0
    2.0431   -6.1330    1.7213 H   0  0  0  0  0  0  0  0  0  0  0  0
    1.5239   -5.5676    0.1218 H   0  0  0  0  0  0  0  0  0  0  0  0
    3.1308   -5.1214    0.7378 H   0  0  0  0  0  0  0  0  0  0  0  0
  1  2  2  0  0  0  0
  1  3  1  0  0  0  0
  1  7  1  0  0  0  0
  3  4  1  0  0  0  0
  3  5  1  0  0  0  0
  3  6  1  0  0  0  0
  7  8  1  0  0  0  0
  7 12  1  0  0  0  0
  8  9  1  0  0  0  0
  8 11  1  0  0  0  0
  8 13  1  0  0  0  0
  9 10  2  0  0  0  0
  9 17  1  0  0  0  0
 11 14  1  0  0  0  0
 11 15  1  0  0  0  0
 11 16  1  0  0  0  0
 17 18  1  0  0  0  0
 17 25  1  0  0  0  0
 18 19  1  0  0  0  0
 18 21  1  0  0  0  0
 18 26  1  0  0  0  0
 19 20  2  0  0  0  0
 19 36  1  0  0  0  0
 21 22  1  0  0  0  0
 21 27  1  0  0  0  0
 21 28  1  0  0  0  0
 22 23  1  0  0  0  0
 22 24  1  0  0  0  0
 22 29  1  0  0  0  0
 23 30  1  0  0  0  0
 23 31  1  0  0  0  0
 23 32  1  0  0  0  0
 24 33  1  0  0  0  0
 24 34  1  0  0  0  0
 24 35  1  0  0  0  0
 36 37  1  0  0  0  0
 36 41  1  0  0  0  0
 37 38  1  0  0  0  0
 37 40  1  0  0  0  0
 37 42  1  0  0  0  0
 38 39  2  0  0  0  0
 38 46  1  0  0  0  0
 40 43  1  0  0  0  0
 40 44  1  0  0  0  0
 40 45  1  0  0  0  0
 46 47  1  0  0  0  0
 46 48  1  0  0  0  0
 47 49  1  0  0  0  0
 47 50  1  0  0  0  0
 47 51  1  0  0  0  0
M  END
$$$$

  -OEChem-05262216553D

 51 50  0     1  0  0  0  0  0999 V2000
    2.4507   -3.2314   -2.2682 C   0  0  0  0  0  0  0  0  0  0  0  0
    1.5000   -3.6390   -1.6223 O   0  0  0  0  0  0  0  0  0  0  0  0
    3.7462   -4.0209   -2.2701 C   0  0  0  0  0  0  0  0  0  0  0  0
    4.5428   -3.4290   -1.8125 H   0  0  0  0  0  0  0  0  0  0  0  0
    3.6254   -4.9471   -1.7014 H   0  0  0  0  0  0  0  0  0  0  0  0
    4.0298   -4.2728   -3.2947 H   0  0  0  0  0  0  0  0  0  0  0  0
    2.3789   -2.0508   -2.9841 N   0  0  0  0  0  0  0  0  0  0  0  0
    1.2996   -1.0561   -2.8382 C   0  0  2  0  0  0  0  0  0  0  0  0
    1.2401   -0.4574   -1.4115 C   0  0  0  0  0  0  0  0  0  0  0  0
    2.2858   -0.1757   -0.8349 O   0  0  0  0  0  0  0  0  0  0  0  0
   -0.0486   -1.6199   -3.3213 C   0  0  0  0  0  0  0  0  0  0  0  0
    3.2713   -1.7102   -3.3290 H   0  0  0  0  0  0  0  0  0  0  0  0
    1.5411   -0.2190   -3.4999 H   0  0  0  0  0  0  0  0  0  0  0  0
   -0.4437   -2.3637   -2.6225 H   0  0  0  0  0  0  0  0  0  0  0  0
   -0.7844   -0.8158   -3.4181 H   0  0  0  0  0  0  0  0  0  0  0  0
    0.0706   -2.0945   -4.3001 H   0  0  0  0  0  0  0  0  0  0  0  0
    0.0400   -0.1189   -0.8095 N   0  0  0  0  0  0  0  0  0  0  0  0
   -0.0273    0.1561    0.6341 C   0  0  2  0  0  0  0  0  0  0  0  0
    0.0538   -1.1558    1.4434 C   0  0  0  0  0  0  0  0  0  0  0  0
   -0.5083   -2.1575    1.0179 O   0  0  0  0  0  0  0  0  0  0  0  0
   -1.3174    0.9168    1.0150 C   0  0  0  0  0  0  0  0  0  0  0  0
   -1.4698    2.3614    0.4722 C   0  0  0  0  0  0  0  0  0  0  0  0
   -2.8701    2.8696    0.8408 C   0  0  0  0  0  0  0  0  0  0  0  0
   -1.2964    2.5150   -1.0463 C   0  0  0  0  0  0  0  0  0  0  0  0
   -0.7676   -0.5903   -1.2087 H   0  0  0  0  0  0  0  0  0  0  0  0
    0.8221    0.7830    0.9240 H   0  0  0  0  0  0  0  0  0  0  0  0
   -1.3793    0.9629    2.1077 H   0  0  0  0  0  0  0  0  0  0  0  0
   -2.1698    0.3209    0.6699 H   0  0  0  0  0  0  0  0  0  0  0  0
   -0.7242    2.9961    0.9630 H   0  0  0  0  0  0  0  0  0  0  0  0
   -3.6429    2.2734    0.3448 H   0  0  0  0  0  0  0  0  0  0  0  0
   -2.9910    3.9148    0.5387 H   0  0  0  0  0  0  0  0  0  0  0  0
   -3.0256    2.8093    1.9226 H   0  0  0  0  0  0  0  0  0  0  0  0
   -1.9060    1.7807   -1.5819 H   0  0  0  0  0  0  0  0  0  0  0  0
   -1.6008    3.5160   -1.3680 H   0  0  0  0  0  0  0  0  0  0  0  0
   -0.2481    2.3860   -1.3301 H   0  0  0  0  0  0  0  0  0  0  0  0
    0.6182   -1.1594    2.7085 N   0  0  0  0  0  0  0  0  0  0  0  0
    0.7325   -2.3155    3.6222 C   0  0  2  0  0  0  0  0  0  0  0  0
    1.6406   -3.4621    3.1169 C   0  0  0  0  0  0  0  0  0  0  0  0
    2.5212   -3.8884    3.8539 O   0  0  0  0  0  0  0  0  0  0  0  0
   -0.6493   -2.8515    4.0223 C   0  0  0  0  0  0  0  0  0  0  0  0
    1.1354   -0.3213    2.9582 H   0  0  0  0  0  0  0  0  0  0  0  0
    1.2023   -1.9437    4.5386 H   0  0  0  0  0  0  0  0  0  0  0  0
   -1.1411   -3.3511    3.1827 H   0  0  0  0  0  0  0  0  0  0  0  0
   -0.5465   -3.5772    4.8352 H   0  0  0  0  0  0  0  0  0  0  0  0
   -1.2900   -2.0343    4.3660 H   0  0  0  0  0  0  0  0  0  0  0  0
    1.4771   -4.0237    1.8660 N   0  0  0  0  0  0  0  0  0  0  0  0
    2.3291   -5.0699    1.3211 C   0  0  0  0  0  0  0  0  0  0  0  0
    0.7698   -3.5969    1.2594 H   0  0  0  0  0  0  0  0  0  0  0  0
    2.4387   -5.8917    2.0363 H   0  0  0  0  0  0  0  0  0  0  0  0
    1.8879   -5.4722    0.4043 H   0  0  0  0  0  0  0  0  0  0  0  0
    3.3200   -4.6692    1.0860 H   0  0  0  0  0  0  0  0  0  0  0  0
  1  2  2  0  0  0  0
  1  3  1  0  0  0  0
  1  7  1  0  0  0  0
  3  4  1  0  0  0  0
  3  5  1  0  0  0  0
  3  6  1  0  0  0  0
  7  8  1  0  0  0  0
  7 12  1  0  0  0  0
  8  9  1  0  0  0  0
  8 11  1  0  0  0  0
  8 13  1  0  0  0  0
  9 10  2  0  0  0  0
  9 17  1  0  0  0  0
 11 14  1  0  0  0  0
 11 15  1  0  0  0  0
 11 16  1  0  0  0  0
 17 18  1  0  0  0  0
 17 25  1  0  0  0  0
 18 19  1  0  0  0  0
 18 21  1  0  0  0  0
 18 26  1  0  0  0  0
 19 20  2  0  0  0  0
 19 36  1  0  0  0  0
 21 22  1  0  0  0  0
 21 27  1  0  0  0  0
 21 28  1  0  0  0  0
 22 23  1  0  0  0  0
 22 24  1  0  0  0  0
 22 29  1  0  0  0  0
 23 30  1  0  0  0  0
 23 31  1  0  0  0  0
 23 32  1  0  0  0  0
 24 33  1  0  0  0  0
 24 34  1  0  0  0  0
 24 35  1  0  0  0  0
 36 37  1  0  0  0  0
 36 41  1  0  0  0  0
 37 38  1  0  0  0  0
 37 40  1  0  0  0  0
 37 42  1  0  0  0  0
 38 39  2  0  0  0  0
 38 46  1  0  0  0  0
 40 43  1  0  0  0  0
 40 44  1  0  0  0  0
 40 45  1  0  0  0  0
 46 47  1  0  0  0  0
 46 48  1  0  0  0  0
 47 49  1  0  0  0  0
 47 50  1  0  0  0  0
 47 51  1  0  0  0  0
M  END
$$$$

  -OEChem-05262216553D

 51 50  0     1  0  0  0  0  0999 V2000
    2.6535   -3.1612   -2.1996 C   0  0  0  0  0  0  0  0  0  0  0  0
    1.8286   -3.6529   -1.4479 O   0  0  0  0  0  0  0  0  0  0  0  0
    4.0461   -3.7592   -2.2657 C   0  0  0  0  0  0  0  0  0  0  0  0
    4.7828   -3.0209   -1.9393 H   0  0  0  0  0  0  0  0  0  0  0  0
    4.1124   -4.6341   -1.6129 H   0  0  0  0  0  0  0  0  0  0  0  0
    4.2740   -4.0662   -3.2891 H   0  0  0  0  0  0  0  0  0  0  0  0
    2.3565   -2.0584   -2.9805 N   0  0  0  0  0  0  0  0  0  0  0  0
    1.1676   -1.2033   -2.7947 C   0  0  2  0  0  0  0  0  0  0  0  0
    1.1581   -0.4875   -1.4211 C   0  0  0  0  0  0  0  0  0  0  0  0
    2.2189   -0.1692   -0.8929 O   0  0  0  0  0  0  0  0  0  0  0  0
   -0.1297   -1.9844   -3.0707 C   0  0  0  0  0  0  0  0  0  0  0  0
    3.1640   -1.6261   -3.4189 H   0  0  0  0  0  0  0  0  0  0  0  0
    1.2207   -0.4091   -3.5452 H   0  0  0  0  0  0  0  0  0  0  0  0
   -0.3634   -2.6676   -2.2478 H   0  0  0  0  0  0  0  0  0  0  0  0
   -0.9714   -1.2963   -3.1930 H   0  0  0  0  0  0  0  0  0  0  0  0
   -0.0307   -2.5705   -3.9896 H   0  0  0  0  0  0  0  0  0  0  0  0
   -0.0246   -0.0816   -0.8251 N   0  0  0  0  0  0  0  0  0  0  0  0
   -0.0708    0.1807    0.6228 C   0  0  2  0  0  0  0  0  0  0  0  0
   -0.0708   -1.1446    1.4185 C   0  0  0  0  0  0  0  0  0  0  0  0
   -0.4782   -2.1685    0.8829 O   0  0  0  0  0  0  0  0  0  0  0  0
   -1.3138    1.0176    1.0047 C   0  0  0  0  0  0  0  0  0  0  0  0
   -1.3760    2.4733    0.4732 C   0  0  0  0  0  0  0  0  0  0  0  0
   -2.7443    3.0627    0.8410 C   0  0  0  0  0  0  0  0  0  0  0  0
   -1.1862    2.6335   -1.0424 C   0  0  0  0  0  0  0  0  0  0  0  0
   -0.8464   -0.5402   -1.2090 H   0  0  0  0  0  0  0  0  0  0  0  0
    0.8166    0.7484    0.9224 H   0  0  0  0  0  0  0  0  0  0  0  0
   -1.3798    1.0621    2.0968 H   0  0  0  0  0  0  0  0  0  0  0  0
   -2.1996    0.4780    0.6517 H   0  0  0  0  0  0  0  0  0  0  0  0
   -0.5957    3.0565    0.9741 H   0  0  0  0  0  0  0  0  0  0  0  0
   -3.5487    2.5240    0.3297 H   0  0  0  0  0  0  0  0  0  0  0  0
   -2.7965    4.1179    0.5545 H   0  0  0  0  0  0  0  0  0  0  0  0
   -2.9120    2.9957    1.9205 H   0  0  0  0  0  0  0  0  0  0  0  0
   -1.8417    1.9488   -1.5893 H   0  0  0  0  0  0  0  0  0  0  0  0
   -1.4211    3.6569   -1.3512 H   0  0  0  0  0  0  0  0  0  0  0  0
   -0.1478    2.4385   -1.3245 H   0  0  0  0  0  0  0  0  0  0  0  0
    0.2038   -1.1437    2.7765 N   0  0  0  0  0  0  0  0  0  0  0  0
    0.2019   -2.3158    3.6771 C   0  0  2  0  0  0  0  0  0  0  0  0
    1.2762   -3.3838    3.3595 C   0  0  0  0  0  0  0  0  0  0  0  0
    2.0200   -3.7581    4.2579 O   0  0  0  0  0  0  0  0  0  0  0  0
   -1.1925   -2.9520    3.7670 C   0  0  0  0  0  0  0  0  0  0  0  0
    0.5891   -0.2794    3.1457 H   0  0  0  0  0  0  0  0  0  0  0  0
    0.4397   -1.9411    4.6780 H   0  0  0  0  0  0  0  0  0  0  0  0
   -1.4568   -3.4674    2.8390 H   0  0  0  0  0  0  0  0  0  0  0  0
   -1.2163   -3.6850    4.5796 H   0  0  0  0  0  0  0  0  0  0  0  0
   -1.9476   -2.1864    3.9681 H   0  0  0  0  0  0  0  0  0  0  0  0
    1.4192   -3.9219    2.0955 N   0  0  0  0  0  0  0  0  0  0  0  0
    2.4535   -4.8770    1.7257 C   0  0  0  0  0  0  0  0  0  0  0  0
    0.8174   -3.5377    1.3601 H   0  0  0  0  0  0  0  0  0  0  0  0
    2.4714   -5.7175    2.4271 H   0  0  0  0  0  0  0  0  0  0  0  0
    2.2591   -5.2721    0.7242 H   0  0  0  0  0  0  0  0  0  0  0  0
    3.4355   -4.3937    1.7257 H   0  0  0  0  0  0  0  0  0  0  0  0
  1  2  2  0  0  0  0
  1  3  1  0  0  0  0
  1  7  1  0  0  0  0
  3  4  1  0  0  0  0
  3  5  1  0  0  0  0
  3  6  1  0  0  0  0
  7  8  1  0  0  0  0
  7 12  1  0  0  0  0
  8  9  1  0  0  0  0
  8 11  1  0  0  0  0
  8 13  1  0  0  0  0
  9 10  2  0  0  0  0
  9 17  1  0  0  0  0
 11 14  1  0  0  0  0
 11 15  1  0  0  0  0
 11 16  1  0  0  0  0
 17 18  1  0  0  0  0
 17 25  1  0  0  0  0
 18 19  1  0  0  0  0
 18 21  1  0  0  0  0
 18 26  1  0  0  0  0
 19 20  2  0  0  0  0
 19 36  1  0  0  0  0
 21 22  1  0  0  0  0
 21 27  1  0  0  0  0
 21 28  1  0  0  0  0
 22 23  1  0  0  0  0
 22 24  1  0  0  0  0
 22 29  1  0  0  0  0
 23 30  1  0  0  0  0
 23 31  1  0  0  0  0
 23 32  1  0  0  0  0
 24 33  1  0  0  0  0
 24 34  1  0  0  0  0
 24 35  1  0  0  0  0
 36 37  1  0  0  0  0
 36 41  1  0  0  0  0
 37 38  1  0  0  0  0
 37 40  1  0  0  0  0
 37 42  1  0  0  0  0
 38 39  2  0  0  0  0
 38 46  1  0  0  0  0
 40 43  1  0  0  0  0
 40 44  1  0  0  0  0
 40 45  1  0  0  0  0
 46 47  1  0  0  0  0
 46 48  1  0  0  0  0
 47 49  1  0  0  0  0
 47 50  1  0  0  0  0
 47 51  1  0  0  0  0
M  END
$$$$

  -OEChem-05262216553D

 51 50  0     1  0  0  0  0  0999 V2000
    3.0204   -2.9517   -2.2020 C   0  0  0  0  0  0  0  0  0  0  0  0
    2.3348   -3.5978   -1.4279 O   0  0  0  0  0  0  0  0  0  0  0  0
    4.4972   -3.2768   -2.3238 C   0  0  0  0  0  0  0  0  0  0  0  0
    5.0937   -2.4165   -2.0100 H   0  0  0  0  0  0  0  0  0  0  0  0
    4.7494   -4.1299   -1.6877 H   0  0  0  0  0  0  0  0  0  0  0  0
    4.7419   -3.5255   -3.3591 H   0  0  0  0  0  0  0  0  0  0  0  0
    2.4979   -1.9243   -2.9686 N   0  0  0  0  0  0  0  0  0  0  0  0
    1.1931   -1.2752   -2.7279 C   0  0  2  0  0  0  0  0  0  0  0  0
    1.1487   -0.4963   -1.3900 C   0  0  0  0  0  0  0  0  0  0  0  0
    2.1887   -0.0942   -0.8760 O   0  0  0  0  0  0  0  0  0  0  0  0
    0.0288   -2.2711   -2.8658 C   0  0  0  0  0  0  0  0  0  0  0  0
    3.2019   -1.3586   -3.4323 H   0  0  0  0  0  0  0  0  0  0  0  0
    1.0597   -0.5280   -3.5154 H   0  0  0  0  0  0  0  0  0  0  0  0
   -0.0387   -2.9234   -1.9893 H   0  0  0  0  0  0  0  0  0  0  0  0
   -0.9205   -1.7374   -2.9672 H   0  0  0  0  0  0  0  0  0  0  0  0
    0.1673   -2.8958   -3.7536 H   0  0  0  0  0  0  0  0  0  0  0  0
   -0.0488   -0.0750   -0.8308 N   0  0  0  0  0  0  0  0  0  0  0  0
   -0.1176    0.1505    0.6252 C   0  0  2  0  0  0  0  0  0  0  0  0
    0.1998   -1.1401    1.4275 C   0  0  0  0  0  0  0  0  0  0  0  0
    0.1661   -2.2231    0.8574 O   0  0  0  0  0  0  0  0  0  0  0  0
   -1.5084    0.6994    1.0296 C   0  0  0  0  0  0  0  0  0  0  0  0
   -1.8879    2.1141    0.5183 C   0  0  0  0  0  0  0  0  0  0  0  0
   -3.3465    2.3908    0.9074 C   0  0  0  0  0  0  0  0  0  0  0  0
   -1.7553    2.3312   -0.9966 C   0  0  0  0  0  0  0  0  0  0  0  0
   -0.8591   -0.5328   -1.2360 H   0  0  0  0  0  0  0  0  0  0  0  0
    0.6343    0.8966    0.9032 H   0  0  0  0  0  0  0  0  0  0  0  0
   -1.5735    0.7232    2.1218 H   0  0  0  0  0  0  0  0  0  0  0  0
   -2.2617   -0.0154    0.6804 H   0  0  0  0  0  0  0  0  0  0  0  0
   -1.2450    2.8455    1.0201 H   0  0  0  0  0  0  0  0  0  0  0  0
   -4.0224    1.6940    0.4013 H   0  0  0  0  0  0  0  0  0  0  0  0
   -3.6304    3.4113    0.6315 H   0  0  0  0  0  0  0  0  0  0  0  0
   -3.4806    2.2822    1.9881 H   0  0  0  0  0  0  0  0  0  0  0  0
   -2.2593    1.5320   -1.5488 H   0  0  0  0  0  0  0  0  0  0  0  0
   -2.2039    3.2866   -1.2868 H   0  0  0  0  0  0  0  0  0  0  0  0
   -0.7026    2.3632   -1.2920 H   0  0  0  0  0  0  0  0  0  0  0  0
    0.1933   -1.1308    2.8142 N   0  0  0  0  0  0  0  0  0  0  0  0
    0.3864   -2.2980    3.7025 C   0  0  2  0  0  0  0  0  0  0  0  0
    1.7517   -3.0152    3.5553 C   0  0  0  0  0  0  0  0  0  0  0  0
    2.4545   -3.1585    4.5481 O   0  0  0  0  0  0  0  0  0  0  0  0
   -0.7733   -3.2959    3.5731 C   0  0  0  0  0  0  0  0  0  0  0  0
    0.2315   -0.2123    3.2457 H   0  0  0  0  0  0  0  0  0  0  0  0
    0.3593   -1.9172    4.7286 H   0  0  0  0  0  0  0  0  0  0  0  0
   -0.7519   -3.8092    2.6076 H   0  0  0  0  0  0  0  0  0  0  0  0
   -0.7039   -4.0534    4.3600 H   0  0  0  0  0  0  0  0  0  0  0  0
   -1.7323   -2.7790    3.6722 H   0  0  0  0  0  0  0  0  0  0  0  0
    2.1976   -3.4942    2.3388 N   0  0  0  0  0  0  0  0  0  0  0  0
    3.4928   -4.1221    2.1269 C   0  0  0  0  0  0  0  0  0  0  0  0
    1.6066   -3.2976    1.5239 H   0  0  0  0  0  0  0  0  0  0  0  0
    3.5986   -5.0078    2.7616 H   0  0  0  0  0  0  0  0  0  0  0  0
    3.5905   -4.4322    1.0818 H   0  0  0  0  0  0  0  0  0  0  0  0
    4.3011   -3.4210    2.3583 H   0  0  0  0  0  0  0  0  0  0  0  0
  1  2  2  0  0  0  0
  1  3  1  0  0  0  0
  1  7  1  0  0  0  0
  3  4  1  0  0  0  0
  3  5  1  0  0  0  0
  3  6  1  0  0  0  0
  7  8  1  0  0  0  0
  7 12  1  0  0  0  0
  8  9  1  0  0  0  0
  8 11  1  0  0  0  0
  8 13  1  0  0  0  0
  9 10  2  0  0  0  0
  9 17  1  0  0  0  0
 11 14  1  0  0  0  0
 11 15  1  0  0  0  0
 11 16  1  0  0  0  0
 17 18  1  0  0  0  0
 17 25  1  0  0  0  0
 18 19  1  0  0  0  0
 18 21  1  0  0  0  0
 18 26  1  0  0  0  0
 19 20  2  0  0  0  0
 19 36  1  0  0  0  0
 21 22  1  0  0  0  0
 21 27  1  0  0  0  0
 21 28  1  0  0  0  0
 22 23  1  0  0  0  0
 22 24  1  0  0  0  0
 22 29  1  0  0  0  0
 23 30  1  0  0  0  0
 23 31  1  0  0  0  0
 23 32  1  0  0  0  0
 24 33  1  0  0  0  0
 24 34  1  0  0  0  0
 24 35  1  0  0  0  0
 36 37  1  0  0  0  0
 36 41  1  0  0  0  0
 37 38  1  0  0  0  0
 37 40  1  0  0  0  0
 37 42  1  0  0  0  0
 38 39  2  0  0  0  0
 38 46  1  0  0  0  0
 40 43  1  0  0  0  0
 40 44  1  0  0  0  0
 40 45  1  0  0  0  0
 46 47  1  0  0  0  0
 46 48  1  0  0  0  0
 47 49  1  0  0  0  0
 47 50  1  0  0  0  0
 47 51  1  0  0  0  0
M  END
$$$$

  -OEChem-05262216553D

 51 50  0     1  0  0  0  0  0999 V2000
    0.5579   -2.8429   -2.2311 C   0  0  0  0  0  0  0  0  0  0  0  0
   -0.4764   -2.2031   -2.3628 O   0  0  0  0  0  0  0  0  0  0  0  0
    0.4852   -4.3016   -1.8222 C   0  0  0  0  0  0  0  0  0  0  0  0
   -0.5563   -4.6328   -1.7841 H   0  0  0  0  0  0  0  0  0  0  0  0
    1.0255   -4.9204   -2.5428 H   0  0  0  0  0  0  0  0  0  0  0  0
    0.9317   -4.4308   -0.8326 H   0  0  0  0  0  0  0  0  0  0  0  0
    1.7973   -2.2483   -2.3856 N   0  0  0  0  0  0  0  0  0  0  0  0
    2.0627   -0.8013   -2.5260 C   0  0  2  0  0  0  0  0  0  0  0  0
    1.6754   -0.0009   -1.2645 C   0  0  0  0  0  0  0  0  0  0  0  0
    2.5387    0.5653   -0.6049 O   0  0  0  0  0  0  0  0  0  0  0  0
    1.4122   -0.2152   -3.7877 C   0  0  0  0  0  0  0  0  0  0  0  0
    2.5771   -2.8202   -2.0725 H   0  0  0  0  0  0  0  0  0  0  0  0
    3.1446   -0.6827   -2.6452 H   0  0  0  0  0  0  0  0  0  0  0  0
    0.3218   -0.1978   -3.7068 H   0  0  0  0  0  0  0  0  0  0  0  0
    1.7567    0.8120   -3.9425 H   0  0  0  0  0  0  0  0  0  0  0  0
    1.6863   -0.8079   -4.6655 H   0  0  0  0  0  0  0  0  0  0  0  0
    0.3719   -0.0048   -0.8066 N   0  0  0  0  0  0  0  0  0  0  0  0
    0.0686    0.0348    0.6311 C   0  0  2  0  0  0  0  0  0  0  0  0
    0.6543   -1.1793    1.4172 C   0  0  0  0  0  0  0  0  0  0  0  0
    1.3873   -2.0037    0.8776 O   0  0  0  0  0  0  0  0  0  0  0  0
   -1.4689    0.1360    0.8226 C   0  0  0  0  0  0  0  0  0  0  0  0
   -2.1637    1.4379    0.3395 C   0  0  0  0  0  0  0  0  0  0  0  0
   -3.6804    1.2559    0.4900 C   0  0  0  0  0  0  0  0  0  0  0  0
   -1.8859    1.8424   -1.1166 C   0  0  0  0  0  0  0  0  0  0  0  0
   -0.2291   -0.6151   -1.3677 H   0  0  0  0  0  0  0  0  0  0  0  0
    0.5233    0.9349    1.0579 H   0  0  0  0  0  0  0  0  0  0  0  0
   -1.7069    0.0322    1.8847 H   0  0  0  0  0  0  0  0  0  0  0  0
   -1.9232   -0.7166    0.3049 H   0  0  0  0  0  0  0  0  0  0  0  0
   -1.8409    2.2618    0.9849 H   0  0  0  0  0  0  0  0  0  0  0  0
   -4.0421    0.4580   -0.1667 H   0  0  0  0  0  0  0  0  0  0  0  0
   -4.2050    2.1813    0.2325 H   0  0  0  0  0  0  0  0  0  0  0  0
   -3.9348    0.9983    1.5227 H   0  0  0  0  0  0  0  0  0  0  0  0
   -2.0445    0.9948   -1.7913 H   0  0  0  0  0  0  0  0  0  0  0  0
   -2.5517    2.6554   -1.4228 H   0  0  0  0  0  0  0  0  0  0  0  0
   -0.8592    2.2028   -1.2287 H   0  0  0  0  0  0  0  0  0  0  0  0
    0.2109   -1.4572    2.7028 N   0  0  0  0  0  0  0  0  0  0  0  0
    0.5390   -2.6339    3.5384 C   0  0  2  0  0  0  0  0  0  0  0  0
    2.0170   -2.7430    3.9832 C   0  0  0  0  0  0  0  0  0  0  0  0
    2.2701   -3.0930    5.1285 O   0  0  0  0  0  0  0  0  0  0  0  0
    0.0761   -3.9376    2.8725 C   0  0  0  0  0  0  0  0  0  0  0  0
   -0.3871   -0.7501    3.1198 H   0  0  0  0  0  0  0  0  0  0  0  0
   -0.0392   -2.5299    4.4623 H   0  0  0  0  0  0  0  0  0  0  0  0
    0.6910   -4.1790    2.0009 H   0  0  0  0  0  0  0  0  0  0  0  0
    0.1546   -4.7673    3.5823 H   0  0  0  0  0  0  0  0  0  0  0  0
   -0.9666   -3.8532    2.5522 H   0  0  0  0  0  0  0  0  0  0  0  0
    3.0576   -2.4733    3.1172 N   0  0  0  0  0  0  0  0  0  0  0  0
    4.4654   -2.6083    3.4634 C   0  0  0  0  0  0  0  0  0  0  0  0
    2.7956   -2.2545    2.1523 H   0  0  0  0  0  0  0  0  0  0  0  0
    4.6989   -3.6475    3.7166 H   0  0  0  0  0  0  0  0  0  0  0  0
    5.0917   -2.3073    2.6180 H   0  0  0  0  0  0  0  0  0  0  0  0
    4.7124   -1.9720    4.3196 H   0  0  0  0  0  0  0  0  0  0  0  0
  1  2  2  0  0  0  0
  1  3  1  0  0  0  0
  1  7  1  0  0  0  0
  3  4  1  0  0  0  0
  3  5  1  0  0  0  0
  3  6  1  0  0  0  0
  7  8  1  0  0  0  0
  7 12  1  0  0  0  0
  8  9  1  0  0  0  0
  8 11  1  0  0  0  0
  8 13  1  0  0  0  0
  9 10  2  0  0  0  0
  9 17  1  0  0  0  0
 11 14  1  0  0  0  0
 11 15  1  0  0  0  0
 11 16  1  0  0  0  0
 17 18  1  0  0  0  0
 17 25  1  0  0  0  0
 18 19  1  0  0  0  0
 18 21  1  0  0  0  0
 18 26  1  0  0  0  0
 19 20  2  0  0  0  0
 19 36  1  0  0  0  0
 21 22  1  0  0  0  0
 21 27  1  0  0  0  0
 21 28  1  0  0  0  0
 22 23  1  0  0  0  0
 22 24  1  0  0  0  0
 22 29  1  0  0  0  0
 23 30  1  0  0  0  0
 23 31  1  0  0  0  0
 23 32  1  0  0  0  0
 24 33  1  0  0  0  0
 24 34  1  0  0  0  0
 24 35  1  0  0  0  0
 36 37  1  0  0  0  0
 36 41  1  0  0  0  0
 37 38  1  0  0  0  0
 37 40  1  0  0  0  0
 37 42  1  0  0  0  0
 38 39  2  0  0  0  0
 38 46  1  0  0  0  0
 40 43  1  0  0  0  0
 40 44  1  0  0  0  0
 40 45  1  0  0  0  0
 46 47  1  0  0  0  0
 46 48  1  0  0  0  0
 47 49  1  0  0  0  0
 47 50  1  0  0  0  0
 47 51  1  0  0  0  0
M  END
$$$$

  -OEChem-05262216553D

 51 50  0     1  0  0  0  0  0999 V2000
    0.6340   -2.8668   -2.1405 C   0  0  0  0  0  0  0  0  0  0  0  0
   -0.4346   -2.2774   -2.2273 O   0  0  0  0  0  0  0  0  0  0  0  0
    0.6506   -4.3309   -1.7459 C   0  0  0  0  0  0  0  0  0  0  0  0
    1.2798   -4.4699   -0.8633 H   0  0  0  0  0  0  0  0  0  0  0  0
   -0.3616   -4.6727   -1.5131 H   0  0  0  0  0  0  0  0  0  0  0  0
    1.0469   -4.9339   -2.5665 H   0  0  0  0  0  0  0  0  0  0  0  0
    1.8356   -2.2152   -2.3502 N   0  0  0  0  0  0  0  0  0  0  0  0
    2.0220   -0.7609   -2.5241 C   0  0  2  0  0  0  0  0  0  0  0  0
    1.6267    0.0451   -1.2687 C   0  0  0  0  0  0  0  0  0  0  0  0
    2.4808    0.6506   -0.6329 O   0  0  0  0  0  0  0  0  0  0  0  0
    1.3094   -0.2421   -3.7812 C   0  0  0  0  0  0  0  0  0  0  0  0
    2.6568   -2.7453   -2.0709 H   0  0  0  0  0  0  0  0  0  0  0  0
    3.0927   -0.5881   -2.6742 H   0  0  0  0  0  0  0  0  0  0  0  0
    0.2220   -0.2848   -3.6738 H   0  0  0  0  0  0  0  0  0  0  0  0
    1.5914    0.7987   -3.9678 H   0  0  0  0  0  0  0  0  0  0  0  0
    1.5959   -0.8399   -4.6515 H   0  0  0  0  0  0  0  0  0  0  0  0
    0.3215    0.0484   -0.8140 N   0  0  0  0  0  0  0  0  0  0  0  0
    0.0141    0.0546    0.6250 C   0  0  2  0  0  0  0  0  0  0  0  0
    0.5764   -1.1908    1.3849 C   0  0  0  0  0  0  0  0  0  0  0  0
    1.4998   -1.8621    0.9357 O   0  0  0  0  0  0  0  0  0  0  0  0
   -1.5173    0.2226    0.8215 C   0  0  0  0  0  0  0  0  0  0  0  0
   -2.1477    1.5717    0.3822 C   0  0  0  0  0  0  0  0  0  0  0  0
   -3.6714    1.4570    0.5287 C   0  0  0  0  0  0  0  0  0  0  0  0
   -1.8502    2.0097   -1.0600 C   0  0  0  0  0  0  0  0  0  0  0  0
   -0.2683   -0.5717   -1.3762 H   0  0  0  0  0  0  0  0  0  0  0  0
    0.5005    0.9270    1.0749 H   0  0  0  0  0  0  0  0  0  0  0  0
   -1.7580    0.1094    1.8816 H   0  0  0  0  0  0  0  0  0  0  0  0
   -2.0135   -0.5930    0.2833 H   0  0  0  0  0  0  0  0  0  0  0  0
   -1.7864    2.3581    1.0535 H   0  0  0  0  0  0  0  0  0  0  0  0
   -4.0703    0.6988   -0.1529 H   0  0  0  0  0  0  0  0  0  0  0  0
   -4.1520    2.4140    0.3023 H   0  0  0  0  0  0  0  0  0  0  0  0
   -3.9380    1.1787    1.5531 H   0  0  0  0  0  0  0  0  0  0  0  0
   -2.0511    1.1940   -1.7619 H   0  0  0  0  0  0  0  0  0  0  0  0
   -2.4741    2.8650   -1.3378 H   0  0  0  0  0  0  0  0  0  0  0  0
   -0.8068    2.3216   -1.1619 H   0  0  0  0  0  0  0  0  0  0  0  0
   -0.0733   -1.6843    2.5089 N   0  0  0  0  0  0  0  0  0  0  0  0
    0.2077   -2.9377    3.2440 C   0  0  2  0  0  0  0  0  0  0  0  0
    1.5703   -2.9918    3.9757 C   0  0  0  0  0  0  0  0  0  0  0  0
    1.6254   -3.4822    5.0959 O   0  0  0  0  0  0  0  0  0  0  0  0
    0.0275   -4.1651    2.3402 C   0  0  0  0  0  0  0  0  0  0  0  0
   -0.8473   -1.1211    2.8468 H   0  0  0  0  0  0  0  0  0  0  0  0
   -0.5510   -3.0126    4.0298 H   0  0  0  0  0  0  0  0  0  0  0  0
    0.8329   -4.2366    1.6042 H   0  0  0  0  0  0  0  0  0  0  0  0
    0.0383   -5.0777    2.9447 H   0  0  0  0  0  0  0  0  0  0  0  0
   -0.9282   -4.1118    1.8103 H   0  0  0  0  0  0  0  0  0  0  0  0
    2.7285   -2.5210    3.3900 N   0  0  0  0  0  0  0  0  0  0  0  0
    4.0483   -2.6131    3.9975 C   0  0  0  0  0  0  0  0  0  0  0  0
    2.6433   -2.1983    2.4223 H   0  0  0  0  0  0  0  0  0  0  0  0
    4.3416   -3.6610    4.1177 H   0  0  0  0  0  0  0  0  0  0  0  0
    4.7893   -2.1148    3.3651 H   0  0  0  0  0  0  0  0  0  0  0  0
    4.0529   -2.1298    4.9799 H   0  0  0  0  0  0  0  0  0  0  0  0
  1  2  2  0  0  0  0
  1  3  1  0  0  0  0
  1  7  1  0  0  0  0
  3  4  1  0  0  0  0
  3  5  1  0  0  0  0
  3  6  1  0  0  0  0
  7  8  1  0  0  0  0
  7 12  1  0  0  0  0
  8  9  1  0  0  0  0
  8 11  1  0  0  0  0
  8 13  1  0  0  0  0
  9 10  2  0  0  0  0
  9 17  1  0  0  0  0
 11 14  1  0  0  0  0
 11 15  1  0  0  0  0
 11 16  1  0  0  0  0
 17 18  1  0  0  0  0
 17 25  1  0  0  0  0
 18 19  1  0  0  0  0
 18 21  1  0  0  0  0
 18 26  1  0  0  0  0
 19 20  2  0  0  0  0
 19 36  1  0  0  0  0
 21 22  1  0  0  0  0
 21 27  1  0  0  0  0
 21 28  1  0  0  0  0
 22 23  1  0  0  0  0
 22 24  1  0  0  0  0
 22 29  1  0  0  0  0
 23 30  1  0  0  0  0
 23 31  1  0  0  0  0
 23 32  1  0  0  0  0
 24 33  1  0  0  0  0
 24 34  1  0  0  0  0
 24 35  1  0  0  0  0
 36 37  1  0  0  0  0
 36 41  1  0  0  0  0
 37 38  1  0  0  0  0
 37 40  1  0  0  0  0
 37 42  1  0  0  0  0
 38 39  2  0  0  0  0
 38 46  1  0  0  0  0
 40 43  1  0  0  0  0
 40 44  1  0  0  0  0
 40 45  1  0  0  0  0
 46 47  1  0  0  0  0
 46 48  1  0  0  0  0
 47 49  1  0  0  0  0
 47 50  1  0  0  0  0
 47 51  1  0  0  0  0
M  END
$$$$

  -OEChem-05262216553D

 51 50  0     1  0  0  0  0  0999 V2000
    0.6865   -2.8283   -2.1754 C   0  0  0  0  0  0  0  0  0  0  0  0
   -0.3903   -2.2495   -2.2155 O   0  0  0  0  0  0  0  0  0  0  0  0
    0.7220   -4.3218   -1.9116 C   0  0  0  0  0  0  0  0  0  0  0  0
    1.4256   -4.5433   -1.1057 H   0  0  0  0  0  0  0  0  0  0  0  0
   -0.2697   -4.6783   -1.6195 H   0  0  0  0  0  0  0  0  0  0  0  0
    1.0362   -4.8520   -2.8139 H   0  0  0  0  0  0  0  0  0  0  0  0
    1.8768   -2.1443   -2.3391 N   0  0  0  0  0  0  0  0  0  0  0  0
    2.0434   -0.6828   -2.4691 C   0  0  2  0  0  0  0  0  0  0  0  0
    1.6026    0.0965   -1.2121 C   0  0  0  0  0  0  0  0  0  0  0  0
    2.4234    0.7402   -0.5712 O   0  0  0  0  0  0  0  0  0  0  0  0
    1.3579   -0.1481   -3.7345 C   0  0  0  0  0  0  0  0  0  0  0  0
    2.7140   -2.6814   -2.1296 H   0  0  0  0  0  0  0  0  0  0  0  0
    3.1153   -0.4906   -2.5837 H   0  0  0  0  0  0  0  0  0  0  0  0
    0.2695   -0.2358   -3.6702 H   0  0  0  0  0  0  0  0  0  0  0  0
    1.6065    0.9088   -3.8748 H   0  0  0  0  0  0  0  0  0  0  0  0
    1.7001   -0.7042   -4.6125 H   0  0  0  0  0  0  0  0  0  0  0  0
    0.2861    0.0823   -0.7924 N   0  0  0  0  0  0  0  0  0  0  0  0
   -0.0587    0.0387    0.6375 C   0  0  2  0  0  0  0  0  0  0  0  0
    0.4887   -1.2335    1.3616 C   0  0  0  0  0  0  0  0  0  0  0  0
    1.5849   -1.7108    1.0930 O   0  0  0  0  0  0  0  0  0  0  0  0
   -1.5904    0.2204    0.8134 C   0  0  0  0  0  0  0  0  0  0  0  0
   -2.1926    1.5946    0.4153 C   0  0  0  0  0  0  0  0  0  0  0  0
   -3.7205    1.4997    0.5292 C   0  0  0  0  0  0  0  0  0  0  0  0
   -1.8596    2.0822   -1.0027 C   0  0  0  0  0  0  0  0  0  0  0  0
   -0.2805   -0.5319   -1.3838 H   0  0  0  0  0  0  0  0  0  0  0  0
    0.4248    0.8895    1.1301 H   0  0  0  0  0  0  0  0  0  0  0  0
   -1.8444    0.0731    1.8672 H   0  0  0  0  0  0  0  0  0  0  0  0
   -2.0899   -0.5665    0.2372 H   0  0  0  0  0  0  0  0  0  0  0  0
   -1.8313    2.3481    1.1234 H   0  0  0  0  0  0  0  0  0  0  0  0
   -4.1184    0.7746   -0.1884 H   0  0  0  0  0  0  0  0  0  0  0  0
   -4.1809    2.4727    0.3302 H   0  0  0  0  0  0  0  0  0  0  0  0
   -4.0112    1.1875    1.5371 H   0  0  0  0  0  0  0  0  0  0  0  0
   -2.0576    1.2970   -1.7391 H   0  0  0  0  0  0  0  0  0  0  0  0
   -2.4651    2.9569   -1.2596 H   0  0  0  0  0  0  0  0  0  0  0  0
   -0.8099    2.3818   -1.0712 H   0  0  0  0  0  0  0  0  0  0  0  0
   -0.3182   -1.9543    2.2328 N   0  0  0  0  0  0  0  0  0  0  0  0
   -0.0228   -3.2492    2.8852 C   0  0  2  0  0  0  0  0  0  0  0  0
    1.1265   -3.2311    3.9208 C   0  0  0  0  0  0  0  0  0  0  0  0
    0.9831   -3.8307    4.9784 O   0  0  0  0  0  0  0  0  0  0  0  0
    0.2040   -4.3547    1.8458 C   0  0  0  0  0  0  0  0  0  0  0  0
   -1.2363   -1.5563    2.4042 H   0  0  0  0  0  0  0  0  0  0  0  0
   -0.9209   -3.5247    3.4476 H   0  0  0  0  0  0  0  0  0  0  0  0
    1.1605   -4.2229    1.3329 H   0  0  0  0  0  0  0  0  0  0  0  0
    0.2147   -5.3327    2.3372 H   0  0  0  0  0  0  0  0  0  0  0  0
   -0.5982   -4.3495    1.1019 H   0  0  0  0  0  0  0  0  0  0  0  0
    2.3193   -2.5825    3.6716 N   0  0  0  0  0  0  0  0  0  0  0  0
    3.4630   -2.6022    4.5724 C   0  0  0  0  0  0  0  0  0  0  0  0
    2.4184   -2.1630    2.7427 H   0  0  0  0  0  0  0  0  0  0  0  0
    3.8449   -3.6225    4.6830 H   0  0  0  0  0  0  0  0  0  0  0  0
    4.2649   -1.9715    4.1767 H   0  0  0  0  0  0  0  0  0  0  0  0
    3.1804   -2.2213    5.5594 H   0  0  0  0  0  0  0  0  0  0  0  0
  1  2  2  0  0  0  0
  1  3  1  0  0  0  0
  1  7  1  0  0  0  0
  3  4  1  0  0  0  0
  3  5  1  0  0  0  0
  3  6  1  0  0  0  0
  7  8  1  0  0  0  0
  7 12  1  0  0  0  0
  8  9  1  0  0  0  0
  8 11  1  0  0  0  0
  8 13  1  0  0  0  0
  9 10  2  0  0  0  0
  9 17  1  0  0  0  0
 11 14  1  0  0  0  0
 11 15  1  0  0  0  0
 11 16  1  0  0  0  0
 17 18  1  0  0  0  0
 17 25  1  0  0  0  0
 18 19  1  0  0  0  0
 18 21  1  0  0  0  0
 18 26  1  0  0  0  0
 19 20  2  0  0  0  0
 19 36  1  0  0  0  0
 21 22  1  0  0  0  0
 21 27  1  0  0  0  0
 21 28  1  0  0  0  0
 22 23  1  0  0  0  0
 22 24  1  0  0  0  0
 22 29  1  0  0  0  0
 23 30  1  0  0  0  0
 23 31  1  0  0  0  0
 23 32  1  0  0  0  0
 24 33  1  0  0  0  0
 24 34  1  0  0  0  0
 24 35  1  0  0  0  0
 36 37  1  0  0  0  0
 36 41  1  0  0  0  0
 37 38  1  0  0  0  0
 37 40  1  0  0  0  0
 37 42  1  0  0  0  0
 38 39  2  0  0  0  0
 38 46  1  0  0  0  0
 40 43  1  0  0  0  0
 40 44  1  0  0  0  0
 40 45  1  0  0  0  0
 46 47  1  0  0  0  0
 46 48  1  0  0  0  0
 47 49  1  0  0  0  0
 47 50  1  0  0  0  0
 47 51  1  0  0  0  0
M  END
$$$$

  -OEChem-05262216553D

 51 50  0     1  0  0  0  0  0999 V2000
    0.8085   -2.8163   -2.2884 C   0  0  0  0  0  0  0  0  0  0  0  0
   -0.2883   -2.2806   -2.2101 O   0  0  0  0  0  0  0  0  0  0  0  0
    0.9125   -4.3281   -2.2167 C   0  0  0  0  0  0  0  0  0  0  0  0
    1.5811   -4.6193   -1.4029 H   0  0  0  0  0  0  0  0  0  0  0  0
   -0.0727   -4.7676   -2.0377 H   0  0  0  0  0  0  0  0  0  0  0  0
    1.3057   -4.7193   -3.1581 H   0  0  0  0  0  0  0  0  0  0  0  0
    1.9624   -2.0689   -2.4305 N   0  0  0  0  0  0  0  0  0  0  0  0
    2.0619   -0.5966   -2.4693 C   0  0  2  0  0  0  0  0  0  0  0  0
    1.6050    0.0902   -1.1642 C   0  0  0  0  0  0  0  0  0  0  0  0
    2.4142    0.7153   -0.4925 O   0  0  0  0  0  0  0  0  0  0  0  0
    1.3309   -0.0268   -3.6937 C   0  0  0  0  0  0  0  0  0  0  0  0
    2.8336   -2.5896   -2.3747 H   0  0  0  0  0  0  0  0  0  0  0  0
    3.1218   -0.3467   -2.5859 H   0  0  0  0  0  0  0  0  0  0  0  0
    0.2507   -0.1840   -3.6258 H   0  0  0  0  0  0  0  0  0  0  0  0
    1.5145    1.0495   -3.7708 H   0  0  0  0  0  0  0  0  0  0  0  0
    1.6940   -0.5062   -4.6076 H   0  0  0  0  0  0  0  0  0  0  0  0
    0.2787    0.0707   -0.7758 N   0  0  0  0  0  0  0  0  0  0  0  0
   -0.1062   -0.0022    0.6423 C   0  0  2  0  0  0  0  0  0  0  0  0
    0.4191   -1.2895    1.3458 C   0  0  0  0  0  0  0  0  0  0  0  0
    1.6077   -1.5803    1.3519 O   0  0  0  0  0  0  0  0  0  0  0  0
   -1.6370    0.1885    0.8035 C   0  0  0  0  0  0  0  0  0  0  0  0
   -2.2180    1.5788    0.4324 C   0  0  0  0  0  0  0  0  0  0  0  0
   -3.7484    1.5006    0.5229 C   0  0  0  0  0  0  0  0  0  0  0  0
   -1.8566    2.0961   -0.9679 C   0  0  0  0  0  0  0  0  0  0  0  0
   -0.2738   -0.5276   -1.3956 H   0  0  0  0  0  0  0  0  0  0  0  0
    0.3738    0.8326    1.1651 H   0  0  0  0  0  0  0  0  0  0  0  0
   -1.9015    0.0082    1.8506 H   0  0  0  0  0  0  0  0  0  0  0  0
   -2.1373   -0.5743    0.1963 H   0  0  0  0  0  0  0  0  0  0  0  0
   -1.8579    2.3103    1.1639 H   0  0  0  0  0  0  0  0  0  0  0  0
   -4.1451    0.7981   -0.2172 H   0  0  0  0  0  0  0  0  0  0  0  0
   -4.1945    2.4837    0.3414 H   0  0  0  0  0  0  0  0  0  0  0  0
   -4.0566    1.1678    1.5191 H   0  0  0  0  0  0  0  0  0  0  0  0
   -2.0529    1.3315   -1.7261 H   0  0  0  0  0  0  0  0  0  0  0  0
   -2.4470    2.9847   -1.2125 H   0  0  0  0  0  0  0  0  0  0  0  0
   -0.8021    2.3833   -1.0129 H   0  0  0  0  0  0  0  0  0  0  0  0
   -0.4719   -2.1905    1.9140 N   0  0  0  0  0  0  0  0  0  0  0  0
   -0.1704   -3.5014    2.5285 C   0  0  2  0  0  0  0  0  0  0  0  0
    0.6683   -3.4535    3.8277 C   0  0  0  0  0  0  0  0  0  0  0  0
    0.3070   -4.1123    4.7941 O   0  0  0  0  0  0  0  0  0  0  0  0
    0.4600   -4.4563    1.5072 C   0  0  0  0  0  0  0  0  0  0  0  0
   -1.4512   -1.9312    1.8448 H   0  0  0  0  0  0  0  0  0  0  0  0
   -1.1321   -3.9385    2.8161 H   0  0  0  0  0  0  0  0  0  0  0  0
    1.4704   -4.1370    1.2363 H   0  0  0  0  0  0  0  0  0  0  0  0
    0.5230   -5.4651    1.9273 H   0  0  0  0  0  0  0  0  0  0  0  0
   -0.1517   -4.4964    0.6015 H   0  0  0  0  0  0  0  0  0  0  0  0
    1.8251   -2.7062    3.9182 N   0  0  0  0  0  0  0  0  0  0  0  0
    2.6782   -2.6550    5.0966 C   0  0  0  0  0  0  0  0  0  0  0  0
    2.1027   -2.1996    3.0722 H   0  0  0  0  0  0  0  0  0  0  0  0
    3.0927   -3.6453    5.3115 H   0  0  0  0  0  0  0  0  0  0  0  0
    3.5071   -1.9601    4.9311 H   0  0  0  0  0  0  0  0  0  0  0  0
    2.1092   -2.3130    5.9674 H   0  0  0  0  0  0  0  0  0  0  0  0
  1  2  2  0  0  0  0
  1  3  1  0  0  0  0
  1  7  1  0  0  0  0
  3  4  1  0  0  0  0
  3  5  1  0  0  0  0
  3  6  1  0  0  0  0
  7  8  1  0  0  0  0
  7 12  1  0  0  0  0
  8  9  1  0  0  0  0
  8 11  1  0  0  0  0
  8 13  1  0  0  0  0
  9 10  2  0  0  0  0
  9 17  1  0  0  0  0
 11 14  1  0  0  0  0
 11 15  1  0  0  0  0
 11 16  1  0  0  0  0
 17 18  1  0  0  0  0
 17 25  1  0  0  0  0
 18 19  1  0  0  0  0
 18 21  1  0  0  0  0
 18 26  1  0  0  0  0
 19 20  2  0  0  0  0
 19 36  1  0  0  0  0
 21 22  1  0  0  0  0
 21 27  1  0  0  0  0
 21 28  1  0  0  0  0
 22 23  1  0  0  0  0
 22 24  1  0  0  0  0
 22 29  1  0  0  0  0
 23 30  1  0  0  0  0
 23 31  1  0  0  0  0
 23 32  1  0  0  0  0
 24 33  1  0  0  0  0
 24 34  1  0  0  0  0
 24 35  1  0  0  0  0
 36 37  1  0  0  0  0
 36 41  1  0  0  0  0
 37 38  1  0  0  0  0
 37 40  1  0  0  0  0
 37 42  1  0  0  0  0
 38 39  2  0  0  0  0
 38 46  1  0  0  0  0
 40 43  1  0  0  0  0
 40 44  1  0  0  0  0
 40 45  1  0  0  0  0
 46 47  1  0  0  0  0
 46 48  1  0  0  0  0
 47 49  1  0  0  0  0
 47 50  1  0  0  0  0
 47 51  1  0  0  0  0
M  END
$$$$

  -OEChem-05262216553D

 51 50  0     1  0  0  0  0  0999 V2000
    0.8581   -2.7658   -2.4879 C   0  0  0  0  0  0  0  0  0  0  0  0
   -0.2320   -2.2420   -2.3069 O   0  0  0  0  0  0  0  0  0  0  0  0
    0.9567   -4.2755   -2.5996 C   0  0  0  0  0  0  0  0  0  0  0  0
    1.7040   -4.6556   -1.8987 H   0  0  0  0  0  0  0  0  0  0  0  0
   -0.0078   -4.7365   -2.3685 H   0  0  0  0  0  0  0  0  0  0  0  0
    1.2465   -4.5551   -3.6156 H   0  0  0  0  0  0  0  0  0  0  0  0
    2.0104   -2.0076   -2.5771 N   0  0  0  0  0  0  0  0  0  0  0  0
    2.1135   -0.5376   -2.4847 C   0  0  2  0  0  0  0  0  0  0  0  0
    1.6712    0.0371   -1.1217 C   0  0  0  0  0  0  0  0  0  0  0  0
    2.4956    0.5703   -0.3945 O   0  0  0  0  0  0  0  0  0  0  0  0
    1.3683    0.1347   -3.6468 C   0  0  0  0  0  0  0  0  0  0  0  0
    2.8796   -2.5300   -2.6453 H   0  0  0  0  0  0  0  0  0  0  0  0
    3.1721   -0.2781   -2.5906 H   0  0  0  0  0  0  0  0  0  0  0  0
    0.2899   -0.0375   -3.5855 H   0  0  0  0  0  0  0  0  0  0  0  0
    1.5430    1.2150   -3.6276 H   0  0  0  0  0  0  0  0  0  0  0  0
    1.7276   -0.2570   -4.6030 H   0  0  0  0  0  0  0  0  0  0  0  0
    0.3400    0.0226   -0.7538 N   0  0  0  0  0  0  0  0  0  0  0  0
   -0.0914   -0.0584    0.6487 C   0  0  2  0  0  0  0  0  0  0  0  0
    0.4068   -1.3527    1.3475 C   0  0  0  0  0  0  0  0  0  0  0  0
    1.5673   -1.4735    1.7123 O   0  0  0  0  0  0  0  0  0  0  0  0
   -1.6256    0.1207    0.7689 C   0  0  0  0  0  0  0  0  0  0  0  0
   -2.2031    1.5092    0.3889 C   0  0  0  0  0  0  0  0  0  0  0  0
   -3.7346    1.4237    0.4359 C   0  0  0  0  0  0  0  0  0  0  0  0
   -1.8031    2.0345   -0.9982 C   0  0  0  0  0  0  0  0  0  0  0  0
   -0.2216   -0.5251   -1.4108 H   0  0  0  0  0  0  0  0  0  0  0  0
    0.3720    0.7720    1.1932 H   0  0  0  0  0  0  0  0  0  0  0  0
   -1.9142   -0.0784    1.8067 H   0  0  0  0  0  0  0  0  0  0  0  0
   -2.1053   -0.6371    0.1398 H   0  0  0  0  0  0  0  0  0  0  0  0
   -1.8677    2.2381    1.1347 H   0  0  0  0  0  0  0  0  0  0  0  0
   -4.1078    0.7241   -0.3190 H   0  0  0  0  0  0  0  0  0  0  0  0
   -4.1791    2.4061    0.2476 H   0  0  0  0  0  0  0  0  0  0  0  0
   -4.0684    1.0833    1.4211 H   0  0  0  0  0  0  0  0  0  0  0  0
   -1.9721    1.2725   -1.7656 H   0  0  0  0  0  0  0  0  0  0  0  0
   -2.3910    2.9208   -1.2565 H   0  0  0  0  0  0  0  0  0  0  0  0
   -0.7495    2.3279   -1.0103 H   0  0  0  0  0  0  0  0  0  0  0  0
   -0.4787   -2.3932    1.5926 N   0  0  0  0  0  0  0  0  0  0  0  0
   -0.1850   -3.7052    2.2064 C   0  0  2  0  0  0  0  0  0  0  0  0
    0.2302   -3.6600    3.6959 C   0  0  0  0  0  0  0  0  0  0  0  0
   -0.3739   -4.3520    4.5052 O   0  0  0  0  0  0  0  0  0  0  0  0
    0.8411   -4.4853    1.3747 C   0  0  0  0  0  0  0  0  0  0  0  0
   -1.4223   -2.2473    1.2463 H   0  0  0  0  0  0  0  0  0  0  0  0
   -1.1167   -4.2797    2.1770 H   0  0  0  0  0  0  0  0  0  0  0  0
    1.8269   -4.0130    1.4117 H   0  0  0  0  0  0  0  0  0  0  0  0
    0.9372   -5.5049    1.7606 H   0  0  0  0  0  0  0  0  0  0  0  0
    0.5171   -4.5389    0.3323 H   0  0  0  0  0  0  0  0  0  0  0  0
    1.2752   -2.8705    4.1313 N   0  0  0  0  0  0  0  0  0  0  0  0
    1.6981   -2.7611    5.5200 C   0  0  0  0  0  0  0  0  0  0  0  0
    1.7127   -2.2727    3.4234 H   0  0  0  0  0  0  0  0  0  0  0  0
    2.5910   -2.1328    5.5921 H   0  0  0  0  0  0  0  0  0  0  0  0
    0.9058   -2.3111    6.1268 H   0  0  0  0  0  0  0  0  0  0  0  0
    1.9381   -3.7487    5.9274 H   0  0  0  0  0  0  0  0  0  0  0  0
  1  2  2  0  0  0  0
  1  3  1  0  0  0  0
  1  7  1  0  0  0  0
  3  4  1  0  0  0  0
  3  5  1  0  0  0  0
  3  6  1  0  0  0  0
  7  8  1  0  0  0  0
  7 12  1  0  0  0  0
  8  9  1  0  0  0  0
  8 11  1  0  0  0  0
  8 13  1  0  0  0  0
  9 10  2  0  0  0  0
  9 17  1  0  0  0  0
 11 14  1  0  0  0  0
 11 15  1  0  0  0  0
 11 16  1  0  0  0  0
 17 18  1  0  0  0  0
 17 25  1  0  0  0  0
 18 19  1  0  0  0  0
 18 21  1  0  0  0  0
 18 26  1  0  0  0  0
 19 20  2  0  0  0  0
 19 36  1  0  0  0  0
 21 22  1  0  0  0  0
 21 27  1  0  0  0  0
 21 28  1  0  0  0  0
 22 23  1  0  0  0  0
 22 24  1  0  0  0  0
 22 29  1  0  0  0  0
 23 30  1  0  0  0  0
 23 31  1  0  0  0  0
 23 32  1  0  0  0  0
 24 33  1  0  0  0  0
 24 34  1  0  0  0  0
 24 35  1  0  0  0  0
 36 37  1  0  0  0  0
 36 41  1  0  0  0  0
 37 38  1  0  0  0  0
 37 40  1  0  0  0  0
 37 42  1  0  0  0  0
 38 39  2  0  0  0  0
 38 46  1  0  0  0  0
 40 43  1  0  0  0  0
 40 44  1  0  0  0  0
 40 45  1  0  0  0  0
 46 47  1  0  0  0  0
 46 48  1  0  0  0  0
 47 49  1  0  0  0  0
 47 50  1  0  0  0  0
 47 51  1  0  0  0  0
M  END
$$$$

  -OEChem-05262216553D

 51 50  0     1  0  0  0  0  0999 V2000
    0.8709   -2.6904   -2.6605 C   0  0  0  0  0  0  0  0  0  0  0  0
   -0.2135   -2.2014   -2.3754 O   0  0  0  0  0  0  0  0  0  0  0  0
    0.9838   -4.1895   -2.8653 C   0  0  0  0  0  0  0  0  0  0  0  0
    1.7671   -4.5993   -2.2228 H   0  0  0  0  0  0  0  0  0  0  0  0
    0.0367   -4.6780   -2.6195 H   0  0  0  0  0  0  0  0  0  0  0  0
    1.2295   -4.4050   -3.9080 H   0  0  0  0  0  0  0  0  0  0  0  0
    2.0045   -1.9058   -2.7743 N   0  0  0  0  0  0  0  0  0  0  0  0
    2.0924   -0.4406   -2.6028 C   0  0  2  0  0  0  0  0  0  0  0  0
    1.7111    0.0464   -1.1875 C   0  0  0  0  0  0  0  0  0  0  0  0
    2.5793    0.4460   -0.4283 O   0  0  0  0  0  0  0  0  0  0  0  0
    1.2791    0.2818   -3.6873 C   0  0  0  0  0  0  0  0  0  0  0  0
    2.8741   -2.4059   -2.9401 H   0  0  0  0  0  0  0  0  0  0  0  0
    3.1403   -0.1567   -2.7462 H   0  0  0  0  0  0  0  0  0  0  0  0
    0.2089    0.0781   -3.5888 H   0  0  0  0  0  0  0  0  0  0  0  0
    1.4303    1.3633   -3.6107 H   0  0  0  0  0  0  0  0  0  0  0  0
    1.6022   -0.0418   -4.6813 H   0  0  0  0  0  0  0  0  0  0  0  0
    0.3951   -0.0009   -0.7751 N   0  0  0  0  0  0  0  0  0  0  0  0
   -0.0122   -0.1095    0.6313 C   0  0  2  0  0  0  0  0  0  0  0  0
    0.5337   -1.4032    1.2840 C   0  0  0  0  0  0  0  0  0  0  0  0
    1.5175   -1.3690    2.0095 O   0  0  0  0  0  0  0  0  0  0  0  0
   -1.5475    0.0062    0.7920 C   0  0  0  0  0  0  0  0  0  0  0  0
   -2.1901    1.3729    0.4407 C   0  0  0  0  0  0  0  0  0  0  0  0
   -3.7152    1.2250    0.5258 C   0  0  0  0  0  0  0  0  0  0  0  0
   -1.8475    1.9214   -0.9528 C   0  0  0  0  0  0  0  0  0  0  0  0
   -0.1961   -0.4999   -1.4443 H   0  0  0  0  0  0  0  0  0  0  0  0
    0.4370    0.7259    1.1807 H   0  0  0  0  0  0  0  0  0  0  0  0
   -1.7994   -0.2215    1.8337 H   0  0  0  0  0  0  0  0  0  0  0  0
   -2.0141   -0.7617    0.1660 H   0  0  0  0  0  0  0  0  0  0  0  0
   -1.8647    2.1091    1.1837 H   0  0  0  0  0  0  0  0  0  0  0  0
   -4.0805    0.5262   -0.2337 H   0  0  0  0  0  0  0  0  0  0  0  0
   -4.2031    2.1924    0.3703 H   0  0  0  0  0  0  0  0  0  0  0  0
   -4.0088    0.8518    1.5120 H   0  0  0  0  0  0  0  0  0  0  0  0
   -2.0039    1.1562   -1.7197 H   0  0  0  0  0  0  0  0  0  0  0  0
   -2.4788    2.7833   -1.1911 H   0  0  0  0  0  0  0  0  0  0  0  0
   -0.8079    2.2592   -0.9899 H   0  0  0  0  0  0  0  0  0  0  0  0
   -0.2229   -2.5649    1.2319 N   0  0  0  0  0  0  0  0  0  0  0  0
    0.0879   -3.8710    1.8492 C   0  0  2  0  0  0  0  0  0  0  0  0
   -0.0126   -3.9012    3.3916 C   0  0  0  0  0  0  0  0  0  0  0  0
   -0.6555   -4.7920    3.9324 O   0  0  0  0  0  0  0  0  0  0  0  0
    1.4511   -4.4000    1.3825 C   0  0  0  0  0  0  0  0  0  0  0  0
   -1.0248   -2.5258    0.6085 H   0  0  0  0  0  0  0  0  0  0  0  0
   -0.6667   -4.5763    1.4866 H   0  0  0  0  0  0  0  0  0  0  0  0
    2.2714   -3.8097    1.8019 H   0  0  0  0  0  0  0  0  0  0  0  0
    1.5798   -5.4375    1.7066 H   0  0  0  0  0  0  0  0  0  0  0  0
    1.5193   -4.3654    0.2922 H   0  0  0  0  0  0  0  0  0  0  0  0
    0.6110   -2.9488    4.1716 N   0  0  0  0  0  0  0  0  0  0  0  0
    0.5595   -2.9182    5.6260 C   0  0  0  0  0  0  0  0  0  0  0  0
    1.1474   -2.2351    3.6690 H   0  0  0  0  0  0  0  0  0  0  0  0
    0.9539   -3.8504    6.0434 H   0  0  0  0  0  0  0  0  0  0  0  0
    1.1612   -2.0873    6.0063 H   0  0  0  0  0  0  0  0  0  0  0  0
   -0.4719   -2.7862    5.9688 H   0  0  0  0  0  0  0  0  0  0  0  0
  1  2  2  0  0  0  0
  1  3  1  0  0  0  0
  1  7  1  0  0  0  0
  3  4  1  0  0  0  0
  3  5  1  0  0  0  0
  3  6  1  0  0  0  0
  7  8  1  0  0  0  0
  7 12  1  0  0  0  0
  8  9  1  0  0  0  0
  8 11  1  0  0  0  0
  8 13  1  0  0  0  0
  9 10  2  0  0  0  0
  9 17  1  0  0  0  0
 11 14  1  0  0  0  0
 11 15  1  0  0  0  0
 11 16  1  0  0  0  0
 17 18  1  0  0  0  0
 17 25  1  0  0  0  0
 18 19  1  0  0  0  0
 18 21  1  0  0  0  0
 18 26  1  0  0  0  0
 19 20  2  0  0  0  0
 19 36  1  0  0  0  0
 21 22  1  0  0  0  0
 21 27  1  0  0  0  0
 21 28  1  0  0  0  0
 22 23  1  0  0  0  0
 22 24  1  0  0  0  0
 22 29  1  0  0  0  0
 23 30  1  0  0  0  0
 23 31  1  0  0  0  0
 23 32  1  0  0  0  0
 24 33  1  0  0  0  0
 24 34  1  0  0  0  0
 24 35  1  0  0  0  0
 36 37  1  0  0  0  0
 36 41  1  0  0  0  0
 37 38  1  0  0  0  0
 37 40  1  0  0  0  0
 37 42  1  0  0  0  0
 38 39  2  0  0  0  0
 38 46  1  0  0  0  0
 40 43  1  0  0  0  0
 40 44  1  0  0  0  0
 40 45  1  0  0  0  0
 46 47  1  0  0  0  0
 46 48  1  0  0  0  0
 47 49  1  0  0  0  0
 47 50  1  0  0  0  0
 47 51  1  0  0  0  0
M  END
$$$$

  -OEChem-05262216553D

 51 50  0     1  0  0  0  0  0999 V2000
    0.9476   -2.7524   -2.5501 C   0  0  0  0  0  0  0  0  0  0  0  0
   -0.1319   -2.3033   -2.1875 O   0  0  0  0  0  0  0  0  0  0  0  0
    1.1093   -4.2519   -2.7152 C   0  0  0  0  0  0  0  0  0  0  0  0
    1.9909   -4.5990   -2.1707 H   0  0  0  0  0  0  0  0  0  0  0  0
    0.2301   -4.7732   -2.3258 H   0  0  0  0  0  0  0  0  0  0  0  0
    1.2246   -4.4991   -3.7734 H   0  0  0  0  0  0  0  0  0  0  0  0
    2.0324   -1.9243   -2.7804 N   0  0  0  0  0  0  0  0  0  0  0  0
    2.0686   -0.4510   -2.6636 C   0  0  2  0  0  0  0  0  0  0  0  0
    1.7344    0.0698   -1.2479 C   0  0  0  0  0  0  0  0  0  0  0  0
    2.6343    0.3930   -0.4891 O   0  0  0  0  0  0  0  0  0  0  0  0
    1.1742    0.1919   -3.7342 C   0  0  0  0  0  0  0  0  0  0  0  0
    2.9071   -2.3932   -3.0016 H   0  0  0  0  0  0  0  0  0  0  0  0
    3.0954   -0.1283   -2.8660 H   0  0  0  0  0  0  0  0  0  0  0  0
    0.1230   -0.0758   -3.5923 H   0  0  0  0  0  0  0  0  0  0  0  0
    1.2600    1.2824   -3.6899 H   0  0  0  0  0  0  0  0  0  0  0  0
    1.4825   -0.1373   -4.7311 H   0  0  0  0  0  0  0  0  0  0  0  0
    0.4279    0.0449   -0.8055 N   0  0  0  0  0  0  0  0  0  0  0  0
    0.0547   -0.0627    0.6100 C   0  0  2  0  0  0  0  0  0  0  0  0
    0.6027   -1.3701    1.2240 C   0  0  0  0  0  0  0  0  0  0  0  0
    1.3615   -1.3274    2.1832 O   0  0  0  0  0  0  0  0  0  0  0  0
   -1.4732    0.0454    0.8246 C   0  0  0  0  0  0  0  0  0  0  0  0
   -2.1337    1.4085    0.4952 C   0  0  0  0  0  0  0  0  0  0  0  0
   -3.6544    1.2537    0.6342 C   0  0  0  0  0  0  0  0  0  0  0  0
   -1.8434    1.9561   -0.9103 C   0  0  0  0  0  0  0  0  0  0  0  0
   -0.1883   -0.4420   -1.4593 H   0  0  0  0  0  0  0  0  0  0  0  0
    0.5254    0.7649    1.1535 H   0  0  0  0  0  0  0  0  0  0  0  0
   -1.6847   -0.1832    1.8753 H   0  0  0  0  0  0  0  0  0  0  0  0
   -1.9585   -0.7281    0.2198 H   0  0  0  0  0  0  0  0  0  0  0  0
   -1.7853    2.1468    1.2256 H   0  0  0  0  0  0  0  0  0  0  0  0
   -4.0418    0.5443   -0.1042 H   0  0  0  0  0  0  0  0  0  0  0  0
   -4.1529    2.2168    0.4847 H   0  0  0  0  0  0  0  0  0  0  0  0
   -3.9116    0.8900    1.6341 H   0  0  0  0  0  0  0  0  0  0  0  0
   -2.0300    1.1912   -1.6705 H   0  0  0  0  0  0  0  0  0  0  0  0
   -2.4830    2.8183   -1.1241 H   0  0  0  0  0  0  0  0  0  0  0  0
   -0.8058    2.2929   -0.9872 H   0  0  0  0  0  0  0  0  0  0  0  0
   -0.0169   -2.5682    0.9024 N   0  0  0  0  0  0  0  0  0  0  0  0
    0.2863   -3.9073    1.4472 C   0  0  2  0  0  0  0  0  0  0  0  0
   -0.1650   -4.1316    2.9085 C   0  0  0  0  0  0  0  0  0  0  0  0
   -0.7378   -5.1721    3.2063 O   0  0  0  0  0  0  0  0  0  0  0  0
    1.7721   -4.2552    1.2783 C   0  0  0  0  0  0  0  0  0  0  0  0
   -0.5893   -2.5303    0.0590 H   0  0  0  0  0  0  0  0  0  0  0  0
   -0.2805   -4.6247    0.8455 H   0  0  0  0  0  0  0  0  0  0  0  0
    2.3954   -3.6695    1.9608 H   0  0  0  0  0  0  0  0  0  0  0  0
    1.9353   -5.3157    1.4948 H   0  0  0  0  0  0  0  0  0  0  0  0
    2.0976   -4.0558    0.2542 H   0  0  0  0  0  0  0  0  0  0  0  0
    0.0768   -3.1893    3.8873 N   0  0  0  0  0  0  0  0  0  0  0  0
   -0.2677   -3.3597    5.2913 C   0  0  0  0  0  0  0  0  0  0  0  0
    0.6225   -2.3726    3.5969 H   0  0  0  0  0  0  0  0  0  0  0  0
    0.0240   -2.4720    5.8605 H   0  0  0  0  0  0  0  0  0  0  0  0
   -1.3470   -3.5043    5.4063 H   0  0  0  0  0  0  0  0  0  0  0  0
    0.2521   -4.2273    5.7103 H   0  0  0  0  0  0  0  0  0  0  0  0
  1  2  2  0  0  0  0
  1  3  1  0  0  0  0
  1  7  1  0  0  0  0
  3  4  1  0  0  0  0
  3  5  1  0  0  0  0
  3  6  1  0  0  0  0
  7  8  1  0  0  0  0
  7 12  1  0  0  0  0
  8  9  1  0  0  0  0
  8 11  1  0  0  0  0
  8 13  1  0  0  0  0
  9 10  2  0  0  0  0
  9 17  1  0  0  0  0
 11 14  1  0  0  0  0
 11 15  1  0  0  0  0
 11 16  1  0  0  0  0
 17 18  1  0  0  0  0
 17 25  1  0  0  0  0
 18 19  1  0  0  0  0
 18 21  1  0  0  0  0
 18 26  1  0  0  0  0
 19 20  2  0  0  0  0
 19 36  1  0  0  0  0
 21 22  1  0  0  0  0
 21 27  1  0  0  0  0
 21 28  1  0  0  0  0
 22 23  1  0  0  0  0
 22 24  1  0  0  0  0
 22 29  1  0  0  0  0
 23 30  1  0  0  0  0
 23 31  1  0  0  0  0
 23 32  1  0  0  0  0
 24 33  1  0  0  0  0
 24 34  1  0  0  0  0
 24 35  1  0  0  0  0
 36 37  1  0  0  0  0
 36 41  1  0  0  0  0
 37 38  1  0  0  0  0
 37 40  1  0  0  0  0
 37 42  1  0  0  0  0
 38 39  2  0  0  0  0
 38 46  1  0  0  0  0
 40 43  1  0  0  0  0
 40 44  1  0  0  0  0
 40 45  1  0  0  0  0
 46 47  1  0  0  0  0
 46 48  1  0  0  0  0
 47 49  1  0  0  0  0
 47 50  1  0  0  0  0
 47 51  1  0  0  0  0
M  END
$$$$

  -OEChem-05262216553D

 51 50  0     1  0  0  0  0  0999 V2000
    1.0378   -2.7790   -2.5911 C   0  0  0  0  0  0  0  0  0  0  0  0
   -0.0505   -2.3830   -2.1938 O   0  0  0  0  0  0  0  0  0  0  0  0
    1.2730   -4.2681   -2.7603 C   0  0  0  0  0  0  0  0  0  0  0  0
    2.0664   -4.6012   -2.0867 H   0  0  0  0  0  0  0  0  0  0  0  0
    0.3601   -4.8249   -2.5302 H   0  0  0  0  0  0  0  0  0  0  0  0
    1.5651   -4.4857   -3.7906 H   0  0  0  0  0  0  0  0  0  0  0  0
    2.0740   -1.8955   -2.8343 N   0  0  0  0  0  0  0  0  0  0  0  0
    2.0341   -0.4271   -2.6790 C   0  0  2  0  0  0  0  0  0  0  0  0
    1.6983    0.0330   -1.2428 C   0  0  0  0  0  0  0  0  0  0  0  0
    2.6009    0.2974   -0.4642 O   0  0  0  0  0  0  0  0  0  0  0  0
    1.0874    0.1920   -3.7188 C   0  0  0  0  0  0  0  0  0  0  0  0
    2.9675   -2.3143   -3.0800 H   0  0  0  0  0  0  0  0  0  0  0  0
    3.0380   -0.0430   -2.8886 H   0  0  0  0  0  0  0  0  0  0  0  0
    0.0550   -0.1368   -3.5679 H   0  0  0  0  0  0  0  0  0  0  0  0
    1.1141    1.2841   -3.6486 H   0  0  0  0  0  0  0  0  0  0  0  0
    1.3955   -0.0963   -4.7285 H   0  0  0  0  0  0  0  0  0  0  0  0
    0.3894    0.0201   -0.8040 N   0  0  0  0  0  0  0  0  0  0  0  0
    0.0106   -0.0513    0.6138 C   0  0  2  0  0  0  0  0  0  0  0  0
    0.5498   -1.3380    1.2728 C   0  0  0  0  0  0  0  0  0  0  0  0
    1.0970   -1.2841    2.3665 O   0  0  0  0  0  0  0  0  0  0  0  0
   -1.5190    0.0440    0.8121 C   0  0  0  0  0  0  0  0  0  0  0  0
   -2.1930    1.3886    0.4371 C   0  0  0  0  0  0  0  0  0  0  0  0
   -3.7125    1.2181    0.5675 C   0  0  0  0  0  0  0  0  0  0  0  0
   -1.8943    1.9027   -0.9793 C   0  0  0  0  0  0  0  0  0  0  0  0
   -0.2412   -0.4417   -1.4608 H   0  0  0  0  0  0  0  0  0  0  0  0
    0.4724    0.7931    1.1383 H   0  0  0  0  0  0  0  0  0  0  0  0
   -1.7375   -0.1569    1.8670 H   0  0  0  0  0  0  0  0  0  0  0  0
   -1.9876   -0.7547    0.2273 H   0  0  0  0  0  0  0  0  0  0  0  0
   -1.8613    2.1505    1.1509 H   0  0  0  0  0  0  0  0  0  0  0  0
   -4.0855    0.4916   -0.1616 H   0  0  0  0  0  0  0  0  0  0  0  0
   -4.2212    2.1723    0.3977 H   0  0  0  0  0  0  0  0  0  0  0  0
   -3.9730    0.8681    1.5715 H   0  0  0  0  0  0  0  0  0  0  0  0
   -2.0595    1.1149   -1.7207 H   0  0  0  0  0  0  0  0  0  0  0  0
   -2.5443    2.7485   -1.2241 H   0  0  0  0  0  0  0  0  0  0  0  0
   -0.8610    2.2539   -1.0523 H   0  0  0  0  0  0  0  0  0  0  0  0
    0.1513   -2.5636    0.7617 N   0  0  0  0  0  0  0  0  0  0  0  0
    0.5566   -3.9010    1.2376 C   0  0  2  0  0  0  0  0  0  0  0  0
   -0.0620   -4.3376    2.5851 C   0  0  0  0  0  0  0  0  0  0  0  0
   -0.4591   -5.4889    2.7145 O   0  0  0  0  0  0  0  0  0  0  0  0
    2.0860   -4.0282    1.2738 C   0  0  0  0  0  0  0  0  0  0  0  0
   -0.2730   -2.5140   -0.1668 H   0  0  0  0  0  0  0  0  0  0  0  0
    0.1915   -4.6193    0.4966 H   0  0  0  0  0  0  0  0  0  0  0  0
    2.5118   -3.4342    2.0880 H   0  0  0  0  0  0  0  0  0  0  0  0
    2.3715   -5.0730    1.4304 H   0  0  0  0  0  0  0  0  0  0  0  0
    2.5212   -3.6859    0.3305 H   0  0  0  0  0  0  0  0  0  0  0  0
   -0.1541   -3.4673    3.6522 N   0  0  0  0  0  0  0  0  0  0  0  0
   -0.6400   -3.8421    4.9721 C   0  0  0  0  0  0  0  0  0  0  0  0
    0.2875   -2.5527    3.5201 H   0  0  0  0  0  0  0  0  0  0  0  0
    0.0208   -4.5883    5.4252 H   0  0  0  0  0  0  0  0  0  0  0  0
   -0.6729   -2.9640    5.6243 H   0  0  0  0  0  0  0  0  0  0  0  0
   -1.6504   -4.2587    4.9045 H   0  0  0  0  0  0  0  0  0  0  0  0
  1  2  2  0  0  0  0
  1  3  1  0  0  0  0
  1  7  1  0  0  0  0
  3  4  1  0  0  0  0
  3  5  1  0  0  0  0
  3  6  1  0  0  0  0
  7  8  1  0  0  0  0
  7 12  1  0  0  0  0
  8  9  1  0  0  0  0
  8 11  1  0  0  0  0
  8 13  1  0  0  0  0
  9 10  2  0  0  0  0
  9 17  1  0  0  0  0
 11 14  1  0  0  0  0
 11 15  1  0  0  0  0
 11 16  1  0  0  0  0
 17 18  1  0  0  0  0
 17 25  1  0  0  0  0
 18 19  1  0  0  0  0
 18 21  1  0  0  0  0
 18 26  1  0  0  0  0
 19 20  2  0  0  0  0
 19 36  1  0  0  0  0
 21 22  1  0  0  0  0
 21 27  1  0  0  0  0
 21 28  1  0  0  0  0
 22 23  1  0  0  0  0
 22 24  1  0  0  0  0
 22 29  1  0  0  0  0
 23 30  1  0  0  0  0
 23 31  1  0  0  0  0
 23 32  1  0  0  0  0
 24 33  1  0  0  0  0
 24 34  1  0  0  0  0
 24 35  1  0  0  0  0
 36 37  1  0  0  0  0
 36 41  1  0  0  0  0
 37 38  1  0  0  0  0
 37 40  1  0  0  0  0
 37 42  1  0  0  0  0
 38 39  2  0  0  0  0
 38 46  1  0  0  0  0
 40 43  1  0  0  0  0
 40 44  1  0  0  0  0
 40 45  1  0  0  0  0
 46 47  1  0  0  0  0
 46 48  1  0  0  0  0
 47 49  1  0  0  0  0
 47 50  1  0  0  0  0
 47 51  1  0  0  0  0
M  END
$$$$

  -OEChem-05262216553D

 51 50  0     1  0  0  0  0  0999 V2000
    1.0905   -2.7861   -2.7143 C   0  0  0  0  0  0  0  0  0  0  0  0
    0.0096   -2.4261   -2.2671 O   0  0  0  0  0  0  0  0  0  0  0  0
    1.3533   -4.2623   -2.9405 C   0  0  0  0  0  0  0  0  0  0  0  0
    2.1614   -4.6026   -2.2883 H   0  0  0  0  0  0  0  0  0  0  0  0
    0.4547   -4.8456   -2.7196 H   0  0  0  0  0  0  0  0  0  0  0  0
    1.6366   -4.4360   -3.9815 H   0  0  0  0  0  0  0  0  0  0  0  0
    2.0983   -1.8697   -2.9484 N   0  0  0  0  0  0  0  0  0  0  0  0
    2.0222   -0.4131   -2.7212 C   0  0  2  0  0  0  0  0  0  0  0  0
    1.6952   -0.0344   -1.2584 C   0  0  0  0  0  0  0  0  0  0  0  0
    2.6063    0.1642   -0.4693 O   0  0  0  0  0  0  0  0  0  0  0  0
    1.0463    0.2296   -3.7192 C   0  0  0  0  0  0  0  0  0  0  0  0
    2.9963   -2.2544   -3.2305 H   0  0  0  0  0  0  0  0  0  0  0  0
    3.0129    0.0073   -2.9238 H   0  0  0  0  0  0  0  0  0  0  0  0
    0.0266   -0.1409   -3.5792 H   0  0  0  0  0  0  0  0  0  0  0  0
    1.0374    1.3168   -3.5907 H   0  0  0  0  0  0  0  0  0  0  0  0
    1.3549    0.0065   -4.7449 H   0  0  0  0  0  0  0  0  0  0  0  0
    0.3871   -0.0208   -0.8117 N   0  0  0  0  0  0  0  0  0  0  0  0
    0.0185   -0.0692    0.6121 C   0  0  2  0  0  0  0  0  0  0  0  0
    0.5348   -1.3517    1.2985 C   0  0  0  0  0  0  0  0  0  0  0  0
    0.8836   -1.3213    2.4720 O   0  0  0  0  0  0  0  0  0  0  0  0
   -1.5104    0.0321    0.8118 C   0  0  0  0  0  0  0  0  0  0  0  0
   -2.1872    1.3698    0.4171 C   0  0  0  0  0  0  0  0  0  0  0  0
   -3.7059    1.1981    0.5558 C   0  0  0  0  0  0  0  0  0  0  0  0
   -1.8965    1.8601   -1.0095 C   0  0  0  0  0  0  0  0  0  0  0  0
   -0.2704   -0.4385   -1.4708 H   0  0  0  0  0  0  0  0  0  0  0  0
    0.4883    0.7788    1.1225 H   0  0  0  0  0  0  0  0  0  0  0  0
   -1.7261   -0.1482    1.8710 H   0  0  0  0  0  0  0  0  0  0  0  0
   -1.9792   -0.7793    0.2444 H   0  0  0  0  0  0  0  0  0  0  0  0
   -1.8541    2.1445    1.1164 H   0  0  0  0  0  0  0  0  0  0  0  0
   -4.0788    0.4515   -0.1529 H   0  0  0  0  0  0  0  0  0  0  0  0
   -4.2186    2.1458    0.3635 H   0  0  0  0  0  0  0  0  0  0  0  0
   -3.9620    0.8732    1.5692 H   0  0  0  0  0  0  0  0  0  0  0  0
   -2.0714    1.0615   -1.7373 H   0  0  0  0  0  0  0  0  0  0  0  0
   -2.5448    2.7050   -1.2625 H   0  0  0  0  0  0  0  0  0  0  0  0
   -0.8625    2.2053   -1.0966 H   0  0  0  0  0  0  0  0  0  0  0  0
    0.3784   -2.5677    0.6512 N   0  0  0  0  0  0  0  0  0  0  0  0
    0.8350   -3.8940    1.1101 C   0  0  2  0  0  0  0  0  0  0  0  0
    0.0549   -4.4890    2.3046 C   0  0  0  0  0  0  0  0  0  0  0  0
   -0.2527   -5.6744    2.2850 O   0  0  0  0  0  0  0  0  0  0  0  0
    2.3425   -3.8796    1.3959 C   0  0  0  0  0  0  0  0  0  0  0  0
    0.0453   -2.4979   -0.3129 H   0  0  0  0  0  0  0  0  0  0  0  0
    0.6725   -4.5853    0.2771 H   0  0  0  0  0  0  0  0  0  0  0  0
    2.5689   -3.2862    2.2868 H   0  0  0  0  0  0  0  0  0  0  0  0
    2.7021   -4.8993    1.5653 H   0  0  0  0  0  0  0  0  0  0  0  0
    2.8873   -3.4548    0.5476 H   0  0  0  0  0  0  0  0  0  0  0  0
   -0.2763   -3.7250    3.4052 N   0  0  0  0  0  0  0  0  0  0  0  0
   -0.9204   -4.2523    4.5994 C   0  0  0  0  0  0  0  0  0  0  0  0
    0.0826   -2.7658    3.4073 H   0  0  0  0  0  0  0  0  0  0  0  0
   -0.2789   -4.9960    5.0832 H   0  0  0  0  0  0  0  0  0  0  0  0
   -1.1142   -3.4443    5.3112 H   0  0  0  0  0  0  0  0  0  0  0  0
   -1.8752   -4.7226    4.3431 H   0  0  0  0  0  0  0  0  0  0  0  0
  1  2  2  0  0  0  0
  1  3  1  0  0  0  0
  1  7  1  0  0  0  0
  3  4  1  0  0  0  0
  3  5  1  0  0  0  0
  3  6  1  0  0  0  0
  7  8  1  0  0  0  0
  7 12  1  0  0  0  0
  8  9  1  0  0  0  0
  8 11  1  0  0  0  0
  8 13  1  0  0  0  0
  9 10  2  0  0  0  0
  9 17  1  0  0  0  0
 11 14  1  0  0  0  0
 11 15  1  0  0  0  0
 11 16  1  0  0  0  0
 17 18  1  0  0  0  0
 17 25  1  0  0  0  0
 18 19  1  0  0  0  0
 18 21  1  0  0  0  0
 18 26  1  0  0  0  0
 19 20  2  0  0  0  0
 19 36  1  0  0  0  0
 21 22  1  0  0  0  0
 21 27  1  0  0  0  0
 21 28  1  0  0  0  0
 22 23  1  0  0  0  0
 22 24  1  0  0  0  0
 22 29  1  0  0  0  0
 23 30  1  0  0  0  0
 23 31  1  0  0  0  0
 23 32  1  0  0  0  0
 24 33  1  0  0  0  0
 24 34  1  0  0  0  0
 24 35  1  0  0  0  0
 36 37  1  0  0  0  0
 36 41  1  0  0  0  0
 37 38  1  0  0  0  0
 37 40  1  0  0  0  0
 37 42  1  0  0  0  0
 38 39  2  0  0  0  0
 38 46  1  0  0  0  0
 40 43  1  0  0  0  0
 40 44  1  0  0  0  0
 40 45  1  0  0  0  0
 46 47  1  0  0  0  0
 46 48  1  0  0  0  0
 47 49  1  0  0  0  0
 47 50  1  0  0  0  0
 47 51  1  0  0  0  0
M  END
$$$$

  -OEChem-05262216553D

 51 50  0     1  0  0  0  0  0999 V2000
    1.1806   -2.7994   -2.8268 C   0  0  0  0  0  0  0  0  0  0  0  0
    0.1144   -2.5057   -2.3039 O   0  0  0  0  0  0  0  0  0  0  0  0
    1.4924   -4.2504   -3.1386 C   0  0  0  0  0  0  0  0  0  0  0  0
    2.3616   -4.5783   -2.5630 H   0  0  0  0  0  0  0  0  0  0  0  0
    0.6401   -4.8851   -2.8787 H   0  0  0  0  0  0  0  0  0  0  0  0
    1.7046   -4.3673   -4.2043 H   0  0  0  0  0  0  0  0  0  0  0  0
    2.1296   -1.8255   -3.0708 N   0  0  0  0  0  0  0  0  0  0  0  0
    1.9851   -0.3852   -2.7838 C   0  0  2  0  0  0  0  0  0  0  0  0
    1.6798   -0.0772   -1.2994 C   0  0  0  0  0  0  0  0  0  0  0  0
    2.6043    0.0977   -0.5198 O   0  0  0  0  0  0  0  0  0  0  0  0
    0.9508    0.2394   -3.7333 C   0  0  0  0  0  0  0  0  0  0  0  0
    3.0277   -2.1496   -3.4204 H   0  0  0  0  0  0  0  0  0  0  0  0
    2.9464    0.0952   -2.9944 H   0  0  0  0  0  0  0  0  0  0  0  0
   -0.0422   -0.1952   -3.5864 H   0  0  0  0  0  0  0  0  0  0  0  0
    0.8839    1.3185   -3.5608 H   0  0  0  0  0  0  0  0  0  0  0  0
    1.2473    0.0745   -4.7735 H   0  0  0  0  0  0  0  0  0  0  0  0
    0.3790   -0.0626   -0.8290 N   0  0  0  0  0  0  0  0  0  0  0  0
    0.0355   -0.0996    0.6027 C   0  0  2  0  0  0  0  0  0  0  0  0
    0.5576   -1.3702    1.3110 C   0  0  0  0  0  0  0  0  0  0  0  0
    0.7128   -1.3711    2.5263 O   0  0  0  0  0  0  0  0  0  0  0  0
   -1.4927   -0.0023    0.8129 C   0  0  0  0  0  0  0  0  0  0  0  0
   -2.1804    1.3279    0.4105 C   0  0  0  0  0  0  0  0  0  0  0  0
   -3.6969    1.1490    0.5637 C   0  0  0  0  0  0  0  0  0  0  0  0
   -1.9078    1.8025   -1.0249 C   0  0  0  0  0  0  0  0  0  0  0  0
   -0.2990   -0.4614   -1.4783 H   0  0  0  0  0  0  0  0  0  0  0  0
    0.5080    0.7566    1.0968 H   0  0  0  0  0  0  0  0  0  0  0  0
   -1.7013   -0.1716    1.8752 H   0  0  0  0  0  0  0  0  0  0  0  0
   -1.9610   -0.8231    0.2585 H   0  0  0  0  0  0  0  0  0  0  0  0
   -1.8451    2.1122    1.0974 H   0  0  0  0  0  0  0  0  0  0  0  0
   -4.0713    0.3911   -0.1321 H   0  0  0  0  0  0  0  0  0  0  0  0
   -4.2164    2.0913    0.3633 H   0  0  0  0  0  0  0  0  0  0  0  0
   -3.9431    0.8363    1.5834 H   0  0  0  0  0  0  0  0  0  0  0  0
   -2.0823    0.9927   -1.7403 H   0  0  0  0  0  0  0  0  0  0  0  0
   -2.5661    2.6378   -1.2828 H   0  0  0  0  0  0  0  0  0  0  0  0
   -0.8780    2.1562   -1.1257 H   0  0  0  0  0  0  0  0  0  0  0  0
    0.6853   -2.5489    0.5930 N   0  0  0  0  0  0  0  0  0  0  0  0
    1.1980   -3.8472    1.0707 C   0  0  2  0  0  0  0  0  0  0  0  0
    0.2740   -4.5938    2.0586 C   0  0  0  0  0  0  0  0  0  0  0  0
    0.0633   -5.7892    1.8951 O   0  0  0  0  0  0  0  0  0  0  0  0
    2.6111   -3.6961    1.6497 C   0  0  0  0  0  0  0  0  0  0  0  0
    0.4247   -2.4809   -0.3928 H   0  0  0  0  0  0  0  0  0  0  0  0
    1.2801   -4.4936    0.1916 H   0  0  0  0  0  0  0  0  0  0  0  0
    2.5945   -3.1437    2.5938 H   0  0  0  0  0  0  0  0  0  0  0  0
    3.0455   -4.6823    1.8402 H   0  0  0  0  0  0  0  0  0  0  0  0
    3.2564   -3.1613    0.9460 H   0  0  0  0  0  0  0  0  0  0  0  0
   -0.3009   -3.9475    3.1341 N   0  0  0  0  0  0  0  0  0  0  0  0
   -1.1274   -4.6036    4.1369 C   0  0  0  0  0  0  0  0  0  0  0  0
   -0.0448   -2.9632    3.2544 H   0  0  0  0  0  0  0  0  0  0  0  0
   -0.5592   -5.3879    4.6476 H   0  0  0  0  0  0  0  0  0  0  0  0
   -1.4622   -3.8764    4.8828 H   0  0  0  0  0  0  0  0  0  0  0  0
   -2.0104   -5.0530    3.6708 H   0  0  0  0  0  0  0  0  0  0  0  0
  1  2  2  0  0  0  0
  1  3  1  0  0  0  0
  1  7  1  0  0  0  0
  3  4  1  0  0  0  0
  3  5  1  0  0  0  0
  3  6  1  0  0  0  0
  7  8  1  0  0  0  0
  7 12  1  0  0  0  0
  8  9  1  0  0  0  0
  8 11  1  0  0  0  0
  8 13  1  0  0  0  0
  9 10  2  0  0  0  0
  9 17  1  0  0  0  0
 11 14  1  0  0  0  0
 11 15  1  0  0  0  0
 11 16  1  0  0  0  0
 17 18  1  0  0  0  0
 17 25  1  0  0  0  0
 18 19  1  0  0  0  0
 18 21  1  0  0  0  0
 18 26  1  0  0  0  0
 19 20  2  0  0  0  0
 19 36  1  0  0  0  0
 21 22  1  0  0  0  0
 21 27  1  0  0  0  0
 21 28  1  0  0  0  0
 22 23  1  0  0  0  0
 22 24  1  0  0  0  0
 22 29  1  0  0  0  0
 23 30  1  0  0  0  0
 23 31  1  0  0  0  0
 23 32  1  0  0  0  0
 24 33  1  0  0  0  0
 24 34  1  0  0  0  0
 24 35  1  0  0  0  0
 36 37  1  0  0  0  0
 36 41  1  0  0  0  0
 37 38  1  0  0  0  0
 37 40  1  0  0  0  0
 37 42  1  0  0  0  0
 38 39  2  0  0  0  0
 38 46  1  0  0  0  0
 40 43  1  0  0  0  0
 40 44  1  0  0  0  0
 40 45  1  0  0  0  0
 46 47  1  0  0  0  0
 46 48  1  0  0  0  0
 47 49  1  0  0  0  0
 47 50  1  0  0  0  0
 47 51  1  0  0  0  0
M  END
$$$$

  -OEChem-05262216553D

 51 50  0     1  0  0  0  0  0999 V2000
    1.2786   -2.8140   -2.8724 C   0  0  0  0  0  0  0  0  0  0  0  0
    0.2079   -2.5634   -2.3383 O   0  0  0  0  0  0  0  0  0  0  0  0
    1.6446   -4.2493   -3.1977 C   0  0  0  0  0  0  0  0  0  0  0  0
    2.5388   -4.5431   -2.6423 H   0  0  0  0  0  0  0  0  0  0  0  0
    0.8254   -4.9203   -2.9223 H   0  0  0  0  0  0  0  0  0  0  0  0
    1.8384   -4.3533   -4.2682 H   0  0  0  0  0  0  0  0  0  0  0  0
    2.1870   -1.7994   -3.1023 N   0  0  0  0  0  0  0  0  0  0  0  0
    1.9809   -0.3736   -2.7832 C   0  0  2  0  0  0  0  0  0  0  0  0
    1.6572   -0.1152   -1.2928 C   0  0  0  0  0  0  0  0  0  0  0  0
    2.5756    0.0137   -0.4968 O   0  0  0  0  0  0  0  0  0  0  0  0
    0.9268    0.2293   -3.7251 C   0  0  0  0  0  0  0  0  0  0  0  0
    3.0982   -2.0798   -3.4559 H   0  0  0  0  0  0  0  0  0  0  0  0
    2.9227    0.1506   -2.9763 H   0  0  0  0  0  0  0  0  0  0  0  0
   -0.0487   -0.2483   -3.5937 H   0  0  0  0  0  0  0  0  0  0  0  0
    0.8160    1.3008   -3.5300 H   0  0  0  0  0  0  0  0  0  0  0  0
    1.2350    0.0996   -4.7670 H   0  0  0  0  0  0  0  0  0  0  0  0
    0.3507   -0.0789   -0.8341 N   0  0  0  0  0  0  0  0  0  0  0  0
   -0.0067   -0.1484    0.5953 C   0  0  2  0  0  0  0  0  0  0  0  0
    0.4638   -1.4486    1.2937 C   0  0  0  0  0  0  0  0  0  0  0  0
    0.4367   -1.5268    2.5163 O   0  0  0  0  0  0  0  0  0  0  0  0
   -1.5345    0.0089    0.7841 C   0  0  0  0  0  0  0  0  0  0  0  0
   -2.1584    1.3805    0.4146 C   0  0  0  0  0  0  0  0  0  0  0  0
   -3.6838    1.2621    0.5376 C   0  0  0  0  0  0  0  0  0  0  0  0
   -1.8406    1.8946   -0.9982 C   0  0  0  0  0  0  0  0  0  0  0  0
   -0.3330   -0.4391   -1.4988 H   0  0  0  0  0  0  0  0  0  0  0  0
    0.4887    0.6789    1.1146 H   0  0  0  0  0  0  0  0  0  0  0  0
   -1.7723   -0.1848    1.8361 H   0  0  0  0  0  0  0  0  0  0  0  0
   -2.0270   -0.7724    0.1952 H   0  0  0  0  0  0  0  0  0  0  0  0
   -1.8028    2.1255    1.1345 H   0  0  0  0  0  0  0  0  0  0  0  0
   -4.0776    0.5454   -0.1903 H   0  0  0  0  0  0  0  0  0  0  0  0
   -4.1598    2.2320    0.3626 H   0  0  0  0  0  0  0  0  0  0  0  0
   -3.9605    0.9252    1.5417 H   0  0  0  0  0  0  0  0  0  0  0  0
   -2.0408    1.1214   -1.7465 H   0  0  0  0  0  0  0  0  0  0  0  0
   -2.4553    2.7691   -1.2338 H   0  0  0  0  0  0  0  0  0  0  0  0
   -0.7940    2.2035   -1.0710 H   0  0  0  0  0  0  0  0  0  0  0  0
    0.8655   -2.5401    0.5412 N   0  0  0  0  0  0  0  0  0  0  0  0
    1.4921   -3.7890    1.0128 C   0  0  2  0  0  0  0  0  0  0  0  0
    0.5640   -4.7345    1.8070 C   0  0  0  0  0  0  0  0  0  0  0  0
    0.5705   -5.9330    1.5536 O   0  0  0  0  0  0  0  0  0  0  0  0
    2.7741   -3.4903    1.8008 C   0  0  0  0  0  0  0  0  0  0  0  0
    0.7125   -2.4418   -0.4634 H   0  0  0  0  0  0  0  0  0  0  0  0
    1.7906   -4.3448    0.1189 H   0  0  0  0  0  0  0  0  0  0  0  0
    2.5461   -3.0271    2.7653 H   0  0  0  0  0  0  0  0  0  0  0  0
    3.3231   -4.4182    1.9890 H   0  0  0  0  0  0  0  0  0  0  0  0
    3.4202   -2.8132    1.2334 H   0  0  0  0  0  0  0  0  0  0  0  0
   -0.2513   -4.2616    2.8151 N   0  0  0  0  0  0  0  0  0  0  0  0
   -1.0810   -5.1082    3.6601 C   0  0  0  0  0  0  0  0  0  0  0  0
   -0.1676   -3.2628    3.0257 H   0  0  0  0  0  0  0  0  0  0  0  0
   -0.4573   -5.7869    4.2511 H   0  0  0  0  0  0  0  0  0  0  0  0
   -1.6713   -4.4928    4.3456 H   0  0  0  0  0  0  0  0  0  0  0  0
   -1.7690   -5.7021    3.0496 H   0  0  0  0  0  0  0  0  0  0  0  0
  1  2  2  0  0  0  0
  1  3  1  0  0  0  0
  1  7  1  0  0  0  0
  3  4  1  0  0  0  0
  3  5  1  0  0  0  0
  3  6  1  0  0  0  0
  7  8  1  0  0  0  0
  7 12  1  0  0  0  0
  8  9  1  0  0  0  0
  8 11  1  0  0  0  0
  8 13  1  0  0  0  0
  9 10  2  0  0  0  0
  9 17  1  0  0  0  0
 11 14  1  0  0  0  0
 11 15  1  0  0  0  0
 11 16  1  0  0  0  0
 17 18  1  0  0  0  0
 17 25  1  0  0  0  0
 18 19  1  0  0  0  0
 18 21  1  0  0  0  0
 18 26  1  0  0  0  0
 19 20  2  0  0  0  0
 19 36  1  0  0  0  0
 21 22  1  0  0  0  0
 21 27  1  0  0  0  0
 21 28  1  0  0  0  0
 22 23  1  0  0  0  0
 22 24  1  0  0  0  0
 22 29  1  0  0  0  0
 23 30  1  0  0  0  0
 23 31  1  0  0  0  0
 23 32  1  0  0  0  0
 24 33  1  0  0  0  0
 24 34  1  0  0  0  0
 24 35  1  0  0  0  0
 36 37  1  0  0  0  0
 36 41  1  0  0  0  0
 37 38  1  0  0  0  0
 37 40  1  0  0  0  0
 37 42  1  0  0  0  0
 38 39  2  0  0  0  0
 38 46  1  0  0  0  0
 40 43  1  0  0  0  0
 40 44  1  0  0  0  0
 40 45  1  0  0  0  0
 46 47  1  0  0  0  0
 46 48  1  0  0  0  0
 47 49  1  0  0  0  0
 47 50  1  0  0  0  0
 47 51  1  0  0  0  0
M  END
$$$$

  -OEChem-05262216553D

 51 50  0     1  0  0  0  0  0999 V2000
    1.6533   -2.8600   -2.9453 C   0  0  0  0  0  0  0  0  0  0  0  0
    0.5917   -2.8155   -2.3415 O   0  0  0  0  0  0  0  0  0  0  0  0
    2.2982   -4.1985   -3.2509 C   0  0  0  0  0  0  0  0  0  0  0  0
    3.2808   -4.2576   -2.7765 H   0  0  0  0  0  0  0  0  0  0  0  0
    1.6760   -5.0136   -2.8696 H   0  0  0  0  0  0  0  0  0  0  0  0
    2.4143   -4.3208   -4.3305 H   0  0  0  0  0  0  0  0  0  0  0  0
    2.3000   -1.6860   -3.2793 N   0  0  0  0  0  0  0  0  0  0  0  0
    1.8248   -0.3345   -2.9294 C   0  0  2  0  0  0  0  0  0  0  0  0
    1.5733   -0.1597   -1.4121 C   0  0  0  0  0  0  0  0  0  0  0  0
    2.5321   -0.0885   -0.6575 O   0  0  0  0  0  0  0  0  0  0  0  0
    0.6033    0.0290   -3.7894 C   0  0  0  0  0  0  0  0  0  0  0  0
    3.2387   -1.7794   -3.6586 H   0  0  0  0  0  0  0  0  0  0  0  0
    2.6187    0.3762   -3.1808 H   0  0  0  0  0  0  0  0  0  0  0  0
   -0.2373   -0.6439   -3.5946 H   0  0  0  0  0  0  0  0  0  0  0  0
    0.2836    1.0544   -3.5783 H   0  0  0  0  0  0  0  0  0  0  0  0
    0.8575   -0.0390   -4.8515 H   0  0  0  0  0  0  0  0  0  0  0  0
    0.2937   -0.1046   -0.8838 N   0  0  0  0  0  0  0  0  0  0  0  0
   -0.0103   -0.1971    0.5580 C   0  0  2  0  0  0  0  0  0  0  0  0
    0.4402   -1.5152    1.2461 C   0  0  0  0  0  0  0  0  0  0  0  0
    0.2508   -1.6593    2.4488 O   0  0  0  0  0  0  0  0  0  0  0  0
   -1.5266    0.0244    0.7906 C   0  0  0  0  0  0  0  0  0  0  0  0
   -2.0976    1.4316    0.4703 C   0  0  0  0  0  0  0  0  0  0  0  0
   -3.6230    1.3775    0.6301 C   0  0  0  0  0  0  0  0  0  0  0  0
   -1.7918    1.9746   -0.9338 C   0  0  0  0  0  0  0  0  0  0  0  0
   -0.4464   -0.3671   -1.5299 H   0  0  0  0  0  0  0  0  0  0  0  0
    0.5307    0.6059    1.0697 H   0  0  0  0  0  0  0  0  0  0  0  0
   -1.7503   -0.1782    1.8436 H   0  0  0  0  0  0  0  0  0  0  0  0
   -2.0685   -0.7219    0.1995 H   0  0  0  0  0  0  0  0  0  0  0  0
   -1.6921    2.1401    1.2009 H   0  0  0  0  0  0  0  0  0  0  0  0
   -4.0662    0.6974   -0.1043 H   0  0  0  0  0  0  0  0  0  0  0  0
   -4.0593    2.3716    0.4910 H   0  0  0  0  0  0  0  0  0  0  0  0
   -3.8895    1.0279    1.6325 H   0  0  0  0  0  0  0  0  0  0  0  0
   -2.0445    1.2346   -1.6993 H   0  0  0  0  0  0  0  0  0  0  0  0
   -2.3728    2.8818   -1.1269 H   0  0  0  0  0  0  0  0  0  0  0  0
   -0.7347    2.2402   -1.0235 H   0  0  0  0  0  0  0  0  0  0  0  0
    1.0756   -2.5204    0.5368 N   0  0  0  0  0  0  0  0  0  0  0  0
    1.7301   -3.7350    1.0586 C   0  0  2  0  0  0  0  0  0  0  0  0
    0.7830   -4.7962    1.6625 C   0  0  0  0  0  0  0  0  0  0  0  0
    0.9564   -5.9788    1.3932 O   0  0  0  0  0  0  0  0  0  0  0  0
    2.8419   -3.3656    2.0489 C   0  0  0  0  0  0  0  0  0  0  0  0
    1.0651   -2.3981   -0.4765 H   0  0  0  0  0  0  0  0  0  0  0  0
    2.2123   -4.2190    0.2039 H   0  0  0  0  0  0  0  0  0  0  0  0
    2.4265   -2.9609    2.9762 H   0  0  0  0  0  0  0  0  0  0  0  0
    3.4327   -4.2524    2.2977 H   0  0  0  0  0  0  0  0  0  0  0  0
    3.5074   -2.6158    1.6098 H   0  0  0  0  0  0  0  0  0  0  0  0
   -0.2247   -4.4464    2.5385 N   0  0  0  0  0  0  0  0  0  0  0  0
   -1.0710   -5.4041    3.2352 C   0  0  0  0  0  0  0  0  0  0  0  0
   -0.2708   -3.4549    2.7897 H   0  0  0  0  0  0  0  0  0  0  0  0
   -0.4679   -6.0367    3.8945 H   0  0  0  0  0  0  0  0  0  0  0  0
   -1.8139   -4.8783    3.8425 H   0  0  0  0  0  0  0  0  0  0  0  0
   -1.5990   -6.0419    2.5187 H   0  0  0  0  0  0  0  0  0  0  0  0
  1  2  2  0  0  0  0
  1  3  1  0  0  0  0
  1  7  1  0  0  0  0
  3  4  1  0  0  0  0
  3  5  1  0  0  0  0
  3  6  1  0  0  0  0
  7  8  1  0  0  0  0
  7 12  1  0  0  0  0
  8  9  1  0  0  0  0
  8 11  1  0  0  0  0
  8 13  1  0  0  0  0
  9 10  2  0  0  0  0
  9 17  1  0  0  0  0
 11 14  1  0  0  0  0
 11 15  1  0  0  0  0
 11 16  1  0  0  0  0
 17 18  1  0  0  0  0
 17 25  1  0  0  0  0
 18 19  1  0  0  0  0
 18 21  1  0  0  0  0
 18 26  1  0  0  0  0
 19 20  2  0  0  0  0
 19 36  1  0  0  0  0
 21 22  1  0  0  0  0
 21 27  1  0  0  0  0
 21 28  1  0  0  0  0
 22 23  1  0  0  0  0
 22 24  1  0  0  0  0
 22 29  1  0  0  0  0
 23 30  1  0  0  0  0
 23 31  1  0  0  0  0
 23 32  1  0  0  0  0
 24 33  1  0  0  0  0
 24 34  1  0  0  0  0
 24 35  1  0  0  0  0
 36 37  1  0  0  0  0
 36 41  1  0  0  0  0
 37 38  1  0  0  0  0
 37 40  1  0  0  0  0
 37 42  1  0  0  0  0
 38 39  2  0  0  0  0
 38 46  1  0  0  0  0
 40 43  1  0  0  0  0
 40 44  1  0  0  0  0
 40 45  1  0  0  0  0
 46 47  1  0  0  0  0
 46 48  1  0  0  0  0
 47 49  1  0  0  0  0
 47 50  1  0  0  0  0
 47 51  1  0  0  0  0
M  END
$$$$

  -OEChem-05262216553D

 51 50  0     1  0  0  0  0  0999 V2000
    2.1262   -2.8411   -3.0208 C   0  0  0  0  0  0  0  0  0  0  0  0
    1.1639   -3.0751   -2.3063 O   0  0  0  0  0  0  0  0  0  0  0  0
    3.1257   -3.9391   -3.3304 C   0  0  0  0  0  0  0  0  0  0  0  0
    4.1046   -3.6814   -2.9184 H   0  0  0  0  0  0  0  0  0  0  0  0
    2.7963   -4.8837   -2.8874 H   0  0  0  0  0  0  0  0  0  0  0  0
    3.2152   -4.0707   -4.4114 H   0  0  0  0  0  0  0  0  0  0  0  0
    2.3371   -1.5583   -3.4899 N   0  0  0  0  0  0  0  0  0  0  0  0
    1.5252   -0.3909   -3.0986 C   0  0  2  0  0  0  0  0  0  0  0  0
    1.4305   -0.2226   -1.5615 C   0  0  0  0  0  0  0  0  0  0  0  0
    2.4608   -0.1718   -0.9048 O   0  0  0  0  0  0  0  0  0  0  0  0
    0.1542   -0.4591   -3.7915 C   0  0  0  0  0  0  0  0  0  0  0  0
    3.2308   -1.3890   -3.9429 H   0  0  0  0  0  0  0  0  0  0  0  0
    2.0292    0.5085   -3.4657 H   0  0  0  0  0  0  0  0  0  0  0  0
   -0.4296   -1.3125   -3.4326 H   0  0  0  0  0  0  0  0  0  0  0  0
   -0.4143    0.4569   -3.6027 H   0  0  0  0  0  0  0  0  0  0  0  0
    0.2844   -0.5635   -4.8730 H   0  0  0  0  0  0  0  0  0  0  0  0
    0.2171   -0.1316   -0.9015 N   0  0  0  0  0  0  0  0  0  0  0  0
    0.0422   -0.2078    0.5633 C   0  0  2  0  0  0  0  0  0  0  0  0
    0.5140   -1.5334    1.2360 C   0  0  0  0  0  0  0  0  0  0  0  0
    0.1726   -1.7782    2.3878 O   0  0  0  0  0  0  0  0  0  0  0  0
   -1.4390    0.0977    0.9167 C   0  0  0  0  0  0  0  0  0  0  0  0
   -1.9588    1.5331    0.6343 C   0  0  0  0  0  0  0  0  0  0  0  0
   -3.4671    1.5599    0.9182 C   0  0  0  0  0  0  0  0  0  0  0  0
   -1.7423    2.0587   -0.7930 C   0  0  0  0  0  0  0  0  0  0  0  0
   -0.6019   -0.3185   -1.4727 H   0  0  0  0  0  0  0  0  0  0  0  0
    0.6588    0.5775    1.0131 H   0  0  0  0  0  0  0  0  0  0  0  0
   -1.5913   -0.0814    1.9863 H   0  0  0  0  0  0  0  0  0  0  0  0
   -2.0661   -0.6221    0.3799 H   0  0  0  0  0  0  0  0  0  0  0  0
   -1.4587    2.2204    1.3252 H   0  0  0  0  0  0  0  0  0  0  0  0
   -4.0047    0.9047    0.2252 H   0  0  0  0  0  0  0  0  0  0  0  0
   -3.8604    2.5760    0.8117 H   0  0  0  0  0  0  0  0  0  0  0  0
   -3.6691    1.2244    1.9404 H   0  0  0  0  0  0  0  0  0  0  0  0
   -2.0967    1.3329   -1.5314 H   0  0  0  0  0  0  0  0  0  0  0  0
   -2.2887    2.9956   -0.9420 H   0  0  0  0  0  0  0  0  0  0  0  0
   -0.6838    2.2681   -0.9712 H   0  0  0  0  0  0  0  0  0  0  0  0
    1.3256   -2.4464    0.5837 N   0  0  0  0  0  0  0  0  0  0  0  0
    1.9481   -3.6737    1.1186 C   0  0  2  0  0  0  0  0  0  0  0  0
    0.9739   -4.8174    1.4830 C   0  0  0  0  0  0  0  0  0  0  0  0
    1.2943   -5.9778    1.2539 O   0  0  0  0  0  0  0  0  0  0  0  0
    2.8709   -3.3459    2.2990 C   0  0  0  0  0  0  0  0  0  0  0  0
    1.5219   -2.2260   -0.3930 H   0  0  0  0  0  0  0  0  0  0  0  0
    2.5807   -4.0701    0.3183 H   0  0  0  0  0  0  0  0  0  0  0  0
    2.2959   -3.0321    3.1749 H   0  0  0  0  0  0  0  0  0  0  0  0
    3.4562   -4.2289    2.5732 H   0  0  0  0  0  0  0  0  0  0  0  0
    3.5616   -2.5417    2.0280 H   0  0  0  0  0  0  0  0  0  0  0  0
   -0.2232   -4.5664    2.1234 N   0  0  0  0  0  0  0  0  0  0  0  0
   -1.1117   -5.6037    2.6270 C   0  0  0  0  0  0  0  0  0  0  0  0
   -0.3697   -3.5961    2.4134 H   0  0  0  0  0  0  0  0  0  0  0  0
   -2.0234   -5.1537    3.0310 H   0  0  0  0  0  0  0  0  0  0  0  0
   -1.3939   -6.2912    1.8230 H   0  0  0  0  0  0  0  0  0  0  0  0
   -0.6215   -6.1731    3.4229 H   0  0  0  0  0  0  0  0  0  0  0  0
  1  2  2  0  0  0  0
  1  3  1  0  0  0  0
  1  7  1  0  0  0  0
  3  4  1  0  0  0  0
  3  5  1  0  0  0  0
  3  6  1  0  0  0  0
  7  8  1  0  0  0  0
  7 12  1  0  0  0  0
  8  9  1  0  0  0  0
  8 11  1  0  0  0  0
  8 13  1  0  0  0  0
  9 10  2  0  0  0  0
  9 17  1  0  0  0  0
 11 14  1  0  0  0  0
 11 15  1  0  0  0  0
 11 16  1  0  0  0  0
 17 18  1  0  0  0  0
 17 25  1  0  0  0  0
 18 19  1  0  0  0  0
 18 21  1  0  0  0  0
 18 26  1  0  0  0  0
 19 20  2  0  0  0  0
 19 36  1  0  0  0  0
 21 22  1  0  0  0  0
 21 27  1  0  0  0  0
 21 28  1  0  0  0  0
 22 23  1  0  0  0  0
 22 24  1  0  0  0  0
 22 29  1  0  0  0  0
 23 30  1  0  0  0  0
 23 31  1  0  0  0  0
 23 32  1  0  0  0  0
 24 33  1  0  0  0  0
 24 34  1  0  0  0  0
 24 35  1  0  0  0  0
 36 37  1  0  0  0  0
 36 41  1  0  0  0  0
 37 38  1  0  0  0  0
 37 40  1  0  0  0  0
 37 42  1  0  0  0  0
 38 39  2  0  0  0  0
 38 46  1  0  0  0  0
 40 43  1  0  0  0  0
 40 44  1  0  0  0  0
 40 45  1  0  0  0  0
 46 47  1  0  0  0  0
 46 48  1  0  0  0  0
 47 49  1  0  0  0  0
 47 50  1  0  0  0  0
 47 51  1  0  0  0  0
M  END
$$$$

  -OEChem-05262216553D

 51 50  0     1  0  0  0  0  0999 V2000
    3.1661   -2.5143   -3.0787 C   0  0  0  0  0  0  0  0  0  0  0  0
    2.8312   -3.1217   -2.0742 O   0  0  0  0  0  0  0  0  0  0  0  0
    4.5417   -2.7536   -3.6719 C   0  0  0  0  0  0  0  0  0  0  0  0
    5.1361   -1.8384   -3.6143 H   0  0  0  0  0  0  0  0  0  0  0  0
    5.0587   -3.5438   -3.1201 H   0  0  0  0  0  0  0  0  0  0  0  0
    4.4503   -3.0576   -4.7173 H   0  0  0  0  0  0  0  0  0  0  0  0
    2.3251   -1.5906   -3.6734 N   0  0  0  0  0  0  0  0  0  0  0  0
    1.0477   -1.1261   -3.0978 C   0  0  2  0  0  0  0  0  0  0  0  0
    1.1923   -0.4968   -1.6888 C   0  0  0  0  0  0  0  0  0  0  0  0
    2.2780   -0.0913   -1.2897 O   0  0  0  0  0  0  0  0  0  0  0  0
    0.0161   -2.2658   -3.1257 C   0  0  0  0  0  0  0  0  0  0  0  0
    2.7443   -1.0278   -4.4069 H   0  0  0  0  0  0  0  0  0  0  0  0
    0.6671   -0.3296   -3.7437 H   0  0  0  0  0  0  0  0  0  0  0  0
    0.2731   -3.0473   -2.4045 H   0  0  0  0  0  0  0  0  0  0  0  0
   -0.9821   -1.8909   -2.8819 H   0  0  0  0  0  0  0  0  0  0  0  0
   -0.0230   -2.7168   -4.1218 H   0  0  0  0  0  0  0  0  0  0  0  0
    0.0919   -0.2618   -0.8854 N   0  0  0  0  0  0  0  0  0  0  0  0
    0.1696    0.0034    0.5668 C   0  0  2  0  0  0  0  0  0  0  0  0
    0.8105   -1.1548    1.3926 C   0  0  0  0  0  0  0  0  0  0  0  0
    0.3571   -1.4483    2.4944 O   0  0  0  0  0  0  0  0  0  0  0  0
   -1.2335    0.4008    1.1005 C   0  0  0  0  0  0  0  0  0  0  0  0
   -1.8348    1.7406    0.5973 C   0  0  0  0  0  0  0  0  0  0  0  0
   -3.2692    1.8532    1.1313 C   0  0  0  0  0  0  0  0  0  0  0  0
   -1.8856    1.9235   -0.9270 C   0  0  0  0  0  0  0  0  0  0  0  0
   -0.7592   -0.7199   -1.1999 H   0  0  0  0  0  0  0  0  0  0  0  0
    0.8279    0.8649    0.7177 H   0  0  0  0  0  0  0  0  0  0  0  0
   -1.1844    0.4739    2.1922 H   0  0  0  0  0  0  0  0  0  0  0  0
   -1.9248   -0.4151    0.8636 H   0  0  0  0  0  0  0  0  0  0  0  0
   -1.2391    2.5596    1.0145 H   0  0  0  0  0  0  0  0  0  0  0  0
   -3.9036    1.0671    0.7094 H   0  0  0  0  0  0  0  0  0  0  0  0
   -3.7002    2.8249    0.8706 H   0  0  0  0  0  0  0  0  0  0  0  0
   -3.2788    1.7594    2.2217 H   0  0  0  0  0  0  0  0  0  0  0  0
   -2.3458    1.0543   -1.4070 H   0  0  0  0  0  0  0  0  0  0  0  0
   -2.4724    2.8106   -1.1853 H   0  0  0  0  0  0  0  0  0  0  0  0
   -0.8803    2.0690   -1.3321 H   0  0  0  0  0  0  0  0  0  0  0  0
    1.7705   -1.9923    0.8479 N   0  0  0  0  0  0  0  0  0  0  0  0
    1.8542   -3.4276    1.1604 C   0  0  2  0  0  0  0  0  0  0  0  0
    0.4732   -4.1309    1.0664 C   0  0  0  0  0  0  0  0  0  0  0  0
   -0.2529   -3.9376    0.0943 O   0  0  0  0  0  0  0  0  0  0  0  0
    2.5730   -3.6312    2.5041 C   0  0  0  0  0  0  0  0  0  0  0  0
    2.1173   -1.7081   -0.0707 H   0  0  0  0  0  0  0  0  0  0  0  0
    2.4778   -3.8973    0.3941 H   0  0  0  0  0  0  0  0  0  0  0  0
    1.9705   -3.2585    3.3376 H   0  0  0  0  0  0  0  0  0  0  0  0
    2.7787   -4.6930    2.6688 H   0  0  0  0  0  0  0  0  0  0  0  0
    3.5264   -3.0939    2.5018 H   0  0  0  0  0  0  0  0  0  0  0  0
    0.0223   -4.9664    2.0739 N   0  0  0  0  0  0  0  0  0  0  0  0
   -1.3325   -5.5019    2.1066 C   0  0  0  0  0  0  0  0  0  0  0  0
    0.5484   -4.9343    2.9418 H   0  0  0  0  0  0  0  0  0  0  0  0
   -1.4585   -6.1582    2.9731 H   0  0  0  0  0  0  0  0  0  0  0  0
   -2.0623   -4.6884    2.1765 H   0  0  0  0  0  0  0  0  0  0  0  0
   -1.5378   -6.0839    1.2019 H   0  0  0  0  0  0  0  0  0  0  0  0
  1  2  2  0  0  0  0
  1  3  1  0  0  0  0
  1  7  1  0  0  0  0
  3  4  1  0  0  0  0
  3  5  1  0  0  0  0
  3  6  1  0  0  0  0
  7  8  1  0  0  0  0
  7 12  1  0  0  0  0
  8  9  1  0  0  0  0
  8 11  1  0  0  0  0
  8 13  1  0  0  0  0
  9 10  2  0  0  0  0
  9 17  1  0  0  0  0
 11 14  1  0  0  0  0
 11 15  1  0  0  0  0
 11 16  1  0  0  0  0
 17 18  1  0  0  0  0
 17 25  1  0  0  0  0
 18 19  1  0  0  0  0
 18 21  1  0  0  0  0
 18 26  1  0  0  0  0
 19 20  2  0  0  0  0
 19 36  1  0  0  0  0
 21 22  1  0  0  0  0
 21 27  1  0  0  0  0
 21 28  1  0  0  0  0
 22 23  1  0  0  0  0
 22 24  1  0  0  0  0
 22 29  1  0  0  0  0
 23 30  1  0  0  0  0
 23 31  1  0  0  0  0
 23 32  1  0  0  0  0
 24 33  1  0  0  0  0
 24 34  1  0  0  0  0
 24 35  1  0  0  0  0
 36 37  1  0  0  0  0
 36 41  1  0  0  0  0
 37 38  1  0  0  0  0
 37 40  1  0  0  0  0
 37 42  1  0  0  0  0
 38 39  2  0  0  0  0
 38 46  1  0  0  0  0
 40 43  1  0  0  0  0
 40 44  1  0  0  0  0
 40 45  1  0  0  0  0
 46 47  1  0  0  0  0
 46 48  1  0  0  0  0
 47 49  1  0  0  0  0
 47 50  1  0  0  0  0
 47 51  1  0  0  0  0
M  END
$$$$

  -OEChem-05262216553D

 51 50  0     1  0  0  0  0  0999 V2000
    3.2051   -2.5470   -2.9674 C   0  0  0  0  0  0  0  0  0  0  0  0
    2.9042   -3.1438   -1.9459 O   0  0  0  0  0  0  0  0  0  0  0  0
    4.5797   -2.7612   -3.5726 C   0  0  0  0  0  0  0  0  0  0  0  0
    5.1412   -1.8237   -3.5640 H   0  0  0  0  0  0  0  0  0  0  0  0
    5.1336   -3.5075   -2.9962 H   0  0  0  0  0  0  0  0  0  0  0  0
    4.4838   -3.1134   -4.6022 H   0  0  0  0  0  0  0  0  0  0  0  0
    2.3331   -1.6602   -3.5753 N   0  0  0  0  0  0  0  0  0  0  0  0
    1.0429   -1.2198   -3.0077 C   0  0  2  0  0  0  0  0  0  0  0  0
    1.1654   -0.5571   -1.6110 C   0  0  0  0  0  0  0  0  0  0  0  0
    2.2448   -0.1230   -1.2203 O   0  0  0  0  0  0  0  0  0  0  0  0
    0.0432   -2.3859   -3.0276 C   0  0  0  0  0  0  0  0  0  0  0  0
    2.7280   -1.1098   -4.3310 H   0  0  0  0  0  0  0  0  0  0  0  0
    0.6426   -0.4438   -3.6665 H   0  0  0  0  0  0  0  0  0  0  0  0
    0.3626   -3.1886   -2.3581 H   0  0  0  0  0  0  0  0  0  0  0  0
   -0.9501   -2.0529   -2.7138 H   0  0  0  0  0  0  0  0  0  0  0  0
   -0.0371   -2.7961   -4.0387 H   0  0  0  0  0  0  0  0  0  0  0  0
    0.0508   -0.2464   -0.8503 N   0  0  0  0  0  0  0  0  0  0  0  0
    0.1127    0.0848    0.5903 C   0  0  2  0  0  0  0  0  0  0  0  0
    0.6976   -1.0654    1.4641 C   0  0  0  0  0  0  0  0  0  0  0  0
    0.1146   -1.4362    2.4782 O   0  0  0  0  0  0  0  0  0  0  0  0
   -1.2792    0.5529    1.0924 C   0  0  0  0  0  0  0  0  0  0  0  0
   -1.8305    1.8875    0.5245 C   0  0  0  0  0  0  0  0  0  0  0  0
   -3.2642    2.0722    1.0400 C   0  0  0  0  0  0  0  0  0  0  0  0
   -1.8627    1.9977   -1.0069 C   0  0  0  0  0  0  0  0  0  0  0  0
   -0.7997   -0.7138   -1.1524 H   0  0  0  0  0  0  0  0  0  0  0  0
    0.7987    0.9287    0.7163 H   0  0  0  0  0  0  0  0  0  0  0  0
   -1.2324    0.6701    2.1804 H   0  0  0  0  0  0  0  0  0  0  0  0
   -1.9969   -0.2484    0.8860 H   0  0  0  0  0  0  0  0  0  0  0  0
   -1.2107    2.7049    0.9087 H   0  0  0  0  0  0  0  0  0  0  0  0
   -3.9216    1.2902    0.6469 H   0  0  0  0  0  0  0  0  0  0  0  0
   -3.6600    3.0455    0.7336 H   0  0  0  0  0  0  0  0  0  0  0  0
   -3.2858    2.0263    2.1334 H   0  0  0  0  0  0  0  0  0  0  0  0
   -2.3395    1.1175   -1.4490 H   0  0  0  0  0  0  0  0  0  0  0  0
   -2.4249    2.8850   -1.3146 H   0  0  0  0  0  0  0  0  0  0  0  0
   -0.8501    2.0981   -1.4075 H   0  0  0  0  0  0  0  0  0  0  0  0
    1.8336   -1.7540    1.0731 N   0  0  0  0  0  0  0  0  0  0  0  0
    2.0364   -3.1820    1.3685 C   0  0  2  0  0  0  0  0  0  0  0  0
    0.7850   -4.0565    1.0700 C   0  0  0  0  0  0  0  0  0  0  0  0
    0.0278   -3.7828    0.1417 O   0  0  0  0  0  0  0  0  0  0  0  0
    2.5651   -3.3404    2.8033 C   0  0  0  0  0  0  0  0  0  0  0  0
    2.2411   -1.4145    0.1981 H   0  0  0  0  0  0  0  0  0  0  0  0
    2.8189   -3.5453    0.6955 H   0  0  0  0  0  0  0  0  0  0  0  0
    1.7872   -3.1072    3.5365 H   0  0  0  0  0  0  0  0  0  0  0  0
    2.9099   -4.3644    2.9733 H   0  0  0  0  0  0  0  0  0  0  0  0
    3.4096   -2.6643    2.9691 H   0  0  0  0  0  0  0  0  0  0  0  0
    0.5065   -5.1809    1.8287 N   0  0  0  0  0  0  0  0  0  0  0  0
   -0.7117   -5.9648    1.6685 C   0  0  0  0  0  0  0  0  0  0  0  0
    1.0614   -5.3087    2.6686 H   0  0  0  0  0  0  0  0  0  0  0  0
   -0.7171   -6.8032    2.3715 H   0  0  0  0  0  0  0  0  0  0  0  0
   -1.5935   -5.3441    1.8606 H   0  0  0  0  0  0  0  0  0  0  0  0
   -0.7778   -6.3670    0.6521 H   0  0  0  0  0  0  0  0  0  0  0  0
  1  2  2  0  0  0  0
  1  3  1  0  0  0  0
  1  7  1  0  0  0  0
  3  4  1  0  0  0  0
  3  5  1  0  0  0  0
  3  6  1  0  0  0  0
  7  8  1  0  0  0  0
  7 12  1  0  0  0  0
  8  9  1  0  0  0  0
  8 11  1  0  0  0  0
  8 13  1  0  0  0  0
  9 10  2  0  0  0  0
  9 17  1  0  0  0  0
 11 14  1  0  0  0  0
 11 15  1  0  0  0  0
 11 16  1  0  0  0  0
 17 18  1  0  0  0  0
 17 25  1  0  0  0  0
 18 19  1  0  0  0  0
 18 21  1  0  0  0  0
 18 26  1  0  0  0  0
 19 20  2  0  0  0  0
 19 36  1  0  0  0  0
 21 22  1  0  0  0  0
 21 27  1  0  0  0  0
 21 28  1  0  0  0  0
 22 23  1  0  0  0  0
 22 24  1  0  0  0  0
 22 29  1  0  0  0  0
 23 30  1  0  0  0  0
 23 31  1  0  0  0  0
 23 32  1  0  0  0  0
 24 33  1  0  0  0  0
 24 34  1  0  0  0  0
 24 35  1  0  0  0  0
 36 37  1  0  0  0  0
 36 41  1  0  0  0  0
 37 38  1  0  0  0  0
 37 40  1  0  0  0  0
 37 42  1  0  0  0  0
 38 39  2  0  0  0  0
 38 46  1  0  0  0  0
 40 43  1  0  0  0  0
 40 44  1  0  0  0  0
 40 45  1  0  0  0  0
 46 47  1  0  0  0  0
 46 48  1  0  0  0  0
 47 49  1  0  0  0  0
 47 50  1  0  0  0  0
 47 51  1  0  0  0  0
M  END
$$$$

  -OEChem-05262216553D

 51 50  0     1  0  0  0  0  0999 V2000
    3.2873   -2.4921   -2.8964 C   0  0  0  0  0  0  0  0  0  0  0  0
    3.0333   -3.1018   -1.8696 O   0  0  0  0  0  0  0  0  0  0  0  0
    4.6754   -2.6066   -3.4981 C   0  0  0  0  0  0  0  0  0  0  0  0
    5.1740   -1.6349   -3.4672 H   0  0  0  0  0  0  0  0  0  0  0  0
    5.2733   -3.3262   -2.9319 H   0  0  0  0  0  0  0  0  0  0  0  0
    4.6085   -2.9435   -4.5353 H   0  0  0  0  0  0  0  0  0  0  0  0
    2.3569   -1.6714   -3.5125 N   0  0  0  0  0  0  0  0  0  0  0  0
    1.0445   -1.3006   -2.9444 C   0  0  2  0  0  0  0  0  0  0  0  0
    1.1306   -0.6092   -1.5584 C   0  0  0  0  0  0  0  0  0  0  0  0
    2.1999   -0.1600   -1.1535 O   0  0  0  0  0  0  0  0  0  0  0  0
    0.1150   -2.5229   -2.9482 C   0  0  0  0  0  0  0  0  0  0  0  0
    2.7166   -1.1028   -4.2721 H   0  0  0  0  0  0  0  0  0  0  0  0
    0.5969   -0.5584   -3.6113 H   0  0  0  0  0  0  0  0  0  0  0  0
    0.5099   -3.3203   -2.3145 H   0  0  0  0  0  0  0  0  0  0  0  0
   -0.8810   -2.2570   -2.5833 H   0  0  0  0  0  0  0  0  0  0  0  0
    0.0151   -2.9155   -3.9643 H   0  0  0  0  0  0  0  0  0  0  0  0
   -0.0031   -0.2387   -0.8511 N   0  0  0  0  0  0  0  0  0  0  0  0
    0.0441    0.1012    0.5875 C   0  0  2  0  0  0  0  0  0  0  0  0
    0.5522   -1.0858    1.4540 C   0  0  0  0  0  0  0  0  0  0  0  0
   -0.1417   -1.5459    2.3555 O   0  0  0  0  0  0  0  0  0  0  0  0
   -1.3292    0.6333    1.0729 C   0  0  0  0  0  0  0  0  0  0  0  0
   -1.8122    1.9881    0.4923 C   0  0  0  0  0  0  0  0  0  0  0  0
   -3.2412    2.2410    0.9915 C   0  0  0  0  0  0  0  0  0  0  0  0
   -1.8248    2.0853   -1.0403 C   0  0  0  0  0  0  0  0  0  0  0  0
   -0.8559   -0.6934   -1.1650 H   0  0  0  0  0  0  0  0  0  0  0  0
    0.7665    0.9115    0.7297 H   0  0  0  0  0  0  0  0  0  0  0  0
   -1.2868    0.7475    2.1617 H   0  0  0  0  0  0  0  0  0  0  0  0
   -2.0814   -0.1341    0.8600 H   0  0  0  0  0  0  0  0  0  0  0  0
   -1.1593    2.7791    0.8768 H   0  0  0  0  0  0  0  0  0  0  0  0
   -3.9290    1.4857    0.5980 H   0  0  0  0  0  0  0  0  0  0  0  0
   -3.5899    3.2282    0.6727 H   0  0  0  0  0  0  0  0  0  0  0  0
   -3.2754    2.2049    2.0851 H   0  0  0  0  0  0  0  0  0  0  0  0
   -2.3385    1.2241   -1.4784 H   0  0  0  0  0  0  0  0  0  0  0  0
   -2.3413    2.9951   -1.3614 H   0  0  0  0  0  0  0  0  0  0  0  0
   -0.8050    2.1335   -1.4321 H   0  0  0  0  0  0  0  0  0  0  0  0
    1.8097   -1.6220    1.2384 N   0  0  0  0  0  0  0  0  0  0  0  0
    2.1360   -3.0218    1.5619 C   0  0  2  0  0  0  0  0  0  0  0  0
    1.0490   -4.0494    1.1303 C   0  0  0  0  0  0  0  0  0  0  0  0
    0.3107   -3.8366    0.1724 O   0  0  0  0  0  0  0  0  0  0  0  0
    2.4942   -3.1185    3.0531 C   0  0  0  0  0  0  0  0  0  0  0  0
    2.2767   -1.2337    0.4136 H   0  0  0  0  0  0  0  0  0  0  0  0
    3.0317   -3.2843    0.9902 H   0  0  0  0  0  0  0  0  0  0  0  0
    1.6045   -2.9880    3.6765 H   0  0  0  0  0  0  0  0  0  0  0  0
    2.9403   -4.0910    3.2793 H   0  0  0  0  0  0  0  0  0  0  0  0
    3.2182   -2.3415    3.3172 H   0  0  0  0  0  0  0  0  0  0  0  0
    0.9136   -5.2553    1.7973 N   0  0  0  0  0  0  0  0  0  0  0  0
   -0.1407   -6.2163    1.4987 C   0  0  0  0  0  0  0  0  0  0  0  0
    1.4502   -5.3675    2.6508 H   0  0  0  0  0  0  0  0  0  0  0  0
   -0.0596   -7.0842    2.1599 H   0  0  0  0  0  0  0  0  0  0  0  0
   -1.1258   -5.7602    1.6434 H   0  0  0  0  0  0  0  0  0  0  0  0
   -0.0610   -6.5628    0.4628 H   0  0  0  0  0  0  0  0  0  0  0  0
  1  2  2  0  0  0  0
  1  3  1  0  0  0  0
  1  7  1  0  0  0  0
  3  4  1  0  0  0  0
  3  5  1  0  0  0  0
  3  6  1  0  0  0  0
  7  8  1  0  0  0  0
  7 12  1  0  0  0  0
  8  9  1  0  0  0  0
  8 11  1  0  0  0  0
  8 13  1  0  0  0  0
  9 10  2  0  0  0  0
  9 17  1  0  0  0  0
 11 14  1  0  0  0  0
 11 15  1  0  0  0  0
 11 16  1  0  0  0  0
 17 18  1  0  0  0  0
 17 25  1  0  0  0  0
 18 19  1  0  0  0  0
 18 21  1  0  0  0  0
 18 26  1  0  0  0  0
 19 20  2  0  0  0  0
 19 36  1  0  0  0  0
 21 22  1  0  0  0  0
 21 27  1  0  0  0  0
 21 28  1  0  0  0  0
 22 23  1  0  0  0  0
 22 24  1  0  0  0  0
 22 29  1  0  0  0  0
 23 30  1  0  0  0  0
 23 31  1  0  0  0  0
 23 32  1  0  0  0  0
 24 33  1  0  0  0  0
 24 34  1  0  0  0  0
 24 35  1  0  0  0  0
 36 37  1  0  0  0  0
 36 41  1  0  0  0  0
 37 38  1  0  0  0  0
 37 40  1  0  0  0  0
 37 42  1  0  0  0  0
 38 39  2  0  0  0  0
 38 46  1  0  0  0  0
 40 43  1  0  0  0  0
 40 44  1  0  0  0  0
 40 45  1  0  0  0  0
 46 47  1  0  0  0  0
 46 48  1  0  0  0  0
 47 49  1  0  0  0  0
 47 50  1  0  0  0  0
 47 51  1  0  0  0  0
M  END
$$$$

  -OEChem-05262216553D

 51 50  0     1  0  0  0  0  0999 V2000
    3.3510   -2.3566   -3.2376 C   0  0  0  0  0  0  0  0  0  0  0  0
    3.2267   -3.2381   -2.4053 O   0  0  0  0  0  0  0  0  0  0  0  0
    4.6906   -2.1829   -3.9290 C   0  0  0  0  0  0  0  0  0  0  0  0
    5.1010   -1.1960   -3.7017 H   0  0  0  0  0  0  0  0  0  0  0  0
    5.3952   -2.9445   -3.5830 H   0  0  0  0  0  0  0  0  0  0  0  0
    4.5690   -2.2817   -5.0102 H   0  0  0  0  0  0  0  0  0  0  0  0
    2.3135   -1.5066   -3.5801 N   0  0  0  0  0  0  0  0  0  0  0  0
    1.0257   -1.3823   -2.8660 C   0  0  2  0  0  0  0  0  0  0  0  0
    1.1400   -0.7896   -1.4386 C   0  0  0  0  0  0  0  0  0  0  0  0
    2.2264   -0.4597   -0.9684 O   0  0  0  0  0  0  0  0  0  0  0  0
    0.2458   -2.7057   -2.8736 C   0  0  0  0  0  0  0  0  0  0  0  0
    2.5820   -0.7348   -4.1814 H   0  0  0  0  0  0  0  0  0  0  0  0
    0.4259   -0.6661   -3.4346 H   0  0  0  0  0  0  0  0  0  0  0  0
    0.7262   -3.4530   -2.2368 H   0  0  0  0  0  0  0  0  0  0  0  0
   -0.7720   -2.5532   -2.5030 H   0  0  0  0  0  0  0  0  0  0  0  0
    0.1879   -3.1060   -3.8901 H   0  0  0  0  0  0  0  0  0  0  0  0
    0.0080   -0.3223   -0.7874 N   0  0  0  0  0  0  0  0  0  0  0  0
    0.0158    0.0565    0.6385 C   0  0  2  0  0  0  0  0  0  0  0  0
    0.4058   -1.1397    1.5446 C   0  0  0  0  0  0  0  0  0  0  0  0
   -0.4273   -1.6683    2.2735 O   0  0  0  0  0  0  0  0  0  0  0  0
   -1.3397    0.6828    1.0530 C   0  0  0  0  0  0  0  0  0  0  0  0
   -1.7138    2.0470    0.4160 C   0  0  0  0  0  0  0  0  0  0  0  0
   -3.1429    2.4031    0.8464 C   0  0  0  0  0  0  0  0  0  0  0  0
   -1.6547    2.1013   -1.1179 C   0  0  0  0  0  0  0  0  0  0  0  0
   -0.8698   -0.6837   -1.1491 H   0  0  0  0  0  0  0  0  0  0  0  0
    0.7811    0.8241    0.7922 H   0  0  0  0  0  0  0  0  0  0  0  0
   -1.3329    0.8190    2.1402 H   0  0  0  0  0  0  0  0  0  0  0  0
   -2.1288   -0.0423    0.8252 H   0  0  0  0  0  0  0  0  0  0  0  0
   -1.0299    2.8076    0.8074 H   0  0  0  0  0  0  0  0  0  0  0  0
   -3.8602    1.6791    0.4465 H   0  0  0  0  0  0  0  0  0  0  0  0
   -3.4157    3.3991    0.4837 H   0  0  0  0  0  0  0  0  0  0  0  0
   -3.2240    2.4051    1.9381 H   0  0  0  0  0  0  0  0  0  0  0  0
   -2.2027    1.2614   -1.5559 H   0  0  0  0  0  0  0  0  0  0  0  0
   -2.0988    3.0319   -1.4852 H   0  0  0  0  0  0  0  0  0  0  0  0
   -0.6180    2.0752   -1.4655 H   0  0  0  0  0  0  0  0  0  0  0  0
    1.7262   -1.5492    1.6002 N   0  0  0  0  0  0  0  0  0  0  0  0
    2.1202   -2.8881    2.0725 C   0  0  2  0  0  0  0  0  0  0  0  0
    1.3072   -4.0499    1.4339 C   0  0  0  0  0  0  0  0  0  0  0  0
    0.7752   -3.9236    0.3358 O   0  0  0  0  0  0  0  0  0  0  0  0
    2.0983   -2.9181    3.6094 C   0  0  0  0  0  0  0  0  0  0  0  0
    2.2801   -1.1697    0.8260 H   0  0  0  0  0  0  0  0  0  0  0  0
    3.1563   -3.0465    1.7592 H   0  0  0  0  0  0  0  0  0  0  0  0
    1.0714   -2.9069    3.9875 H   0  0  0  0  0  0  0  0  0  0  0  0
    2.5959   -3.8176    3.9833 H   0  0  0  0  0  0  0  0  0  0  0  0
    2.6240   -2.0460    4.0102 H   0  0  0  0  0  0  0  0  0  0  0  0
    1.2274   -5.2829    2.0589 N   0  0  0  0  0  0  0  0  0  0  0  0
    0.4482   -6.3949    1.5293 C   0  0  0  0  0  0  0  0  0  0  0  0
    1.6008   -5.3490    2.9998 H   0  0  0  0  0  0  0  0  0  0  0  0
    0.5386   -7.2671    2.1833 H   0  0  0  0  0  0  0  0  0  0  0  0
   -0.6094   -6.1203    1.4599 H   0  0  0  0  0  0  0  0  0  0  0  0
    0.8064   -6.6730    0.5325 H   0  0  0  0  0  0  0  0  0  0  0  0
  1  2  2  0  0  0  0
  1  3  1  0  0  0  0
  1  7  1  0  0  0  0
  3  4  1  0  0  0  0
  3  5  1  0  0  0  0
  3  6  1  0  0  0  0
  7  8  1  0  0  0  0
  7 12  1  0  0  0  0
  8  9  1  0  0  0  0
  8 11  1  0  0  0  0
  8 13  1  0  0  0  0
  9 10  2  0  0  0  0
  9 17  1  0  0  0  0
 11 14  1  0  0  0  0
 11 15  1  0  0  0  0
 11 16  1  0  0  0  0
 17 18  1  0  0  0  0
 17 25  1  0  0  0  0
 18 19  1  0  0  0  0
 18 21  1  0  0  0  0
 18 26  1  0  0  0  0
 19 20  2  0  0  0  0
 19 36  1  0  0  0  0
 21 22  1  0  0  0  0
 21 27  1  0  0  0  0
 21 28  1  0  0  0  0
 22 23  1  0  0  0  0
 22 24  1  0  0  0  0
 22 29  1  0  0  0  0
 23 30  1  0  0  0  0
 23 31  1  0  0  0  0
 23 32  1  0  0  0  0
 24 33  1  0  0  0  0
 24 34  1  0  0  0  0
 24 35  1  0  0  0  0
 36 37  1  0  0  0  0
 36 41  1  0  0  0  0
 37 38  1  0  0  0  0
 37 40  1  0  0  0  0
 37 42  1  0  0  0  0
 38 39  2  0  0  0  0
 38 46  1  0  0  0  0
 40 43  1  0  0  0  0
 40 44  1  0  0  0  0
 40 45  1  0  0  0  0
 46 47  1  0  0  0  0
 46 48  1  0  0  0  0
 47 49  1  0  0  0  0
 47 50  1  0  0  0  0
 47 51  1  0  0  0  0
M  END
$$$$

  -OEChem-05262216553D

 51 50  0     1  0  0  0  0  0999 V2000
    2.8926   -2.0834   -4.3635 C   0  0  0  0  0  0  0  0  0  0  0  0
    1.9937   -2.0738   -5.1897 O   0  0  0  0  0  0  0  0  0  0  0  0
    4.3382   -2.2034   -4.8085 C   0  0  0  0  0  0  0  0  0  0  0  0
    4.9030   -1.3256   -4.4852 H   0  0  0  0  0  0  0  0  0  0  0  0
    4.7891   -3.0988   -4.3734 H   0  0  0  0  0  0  0  0  0  0  0  0
    4.3927   -2.2757   -5.8985 H   0  0  0  0  0  0  0  0  0  0  0  0
    2.5939   -1.9772   -3.0217 N   0  0  0  0  0  0  0  0  0  0  0  0
    1.2462   -1.7443   -2.4870 C   0  0  2  0  0  0  0  0  0  0  0  0
    1.2806   -0.9197   -1.1844 C   0  0  0  0  0  0  0  0  0  0  0  0
    2.3441   -0.6988   -0.6095 O   0  0  0  0  0  0  0  0  0  0  0  0
    0.5888   -3.1066   -2.2408 C   0  0  0  0  0  0  0  0  0  0  0  0
    3.3742   -1.8829   -2.3724 H   0  0  0  0  0  0  0  0  0  0  0  0
    0.6512   -1.1806   -3.2140 H   0  0  0  0  0  0  0  0  0  0  0  0
    1.1673   -3.6831   -1.5118 H   0  0  0  0  0  0  0  0  0  0  0  0
   -0.4291   -2.9833   -1.8590 H   0  0  0  0  0  0  0  0  0  0  0  0
    0.5381   -3.6763   -3.1743 H   0  0  0  0  0  0  0  0  0  0  0  0
    0.1110   -0.4408   -0.6203 N   0  0  0  0  0  0  0  0  0  0  0  0
    0.0319   -0.0032    0.7817 C   0  0  2  0  0  0  0  0  0  0  0  0
    0.3894   -1.1662    1.7380 C   0  0  0  0  0  0  0  0  0  0  0  0
   -0.4736   -1.9585    2.0994 O   0  0  0  0  0  0  0  0  0  0  0  0
   -1.3564    0.5908    1.1193 C   0  0  0  0  0  0  0  0  0  0  0  0
   -1.7477    1.9158    0.4148 C   0  0  0  0  0  0  0  0  0  0  0  0
   -3.2034    2.2401    0.7758 C   0  0  0  0  0  0  0  0  0  0  0  0
   -1.6308    1.9113   -1.1168 C   0  0  0  0  0  0  0  0  0  0  0  0
   -0.7543   -0.7319   -1.0672 H   0  0  0  0  0  0  0  0  0  0  0  0
    0.7690    0.7905    0.9446 H   0  0  0  0  0  0  0  0  0  0  0  0
   -1.3978    0.7635    2.2004 H   0  0  0  0  0  0  0  0  0  0  0  0
   -2.1140   -0.1653    0.8867 H   0  0  0  0  0  0  0  0  0  0  0  0
   -1.1040    2.7141    0.8000 H   0  0  0  0  0  0  0  0  0  0  0  0
   -3.8815    1.4807    0.3734 H   0  0  0  0  0  0  0  0  0  0  0  0
   -3.4919    3.2141    0.3683 H   0  0  0  0  0  0  0  0  0  0  0  0
   -3.3287    2.2765    1.8625 H   0  0  0  0  0  0  0  0  0  0  0  0
   -2.1390    1.0406   -1.5425 H   0  0  0  0  0  0  0  0  0  0  0  0
   -2.0851    2.8143   -1.5368 H   0  0  0  0  0  0  0  0  0  0  0  0
   -0.5814    1.9019   -1.4247 H   0  0  0  0  0  0  0  0  0  0  0  0
    1.7096   -1.3426    2.1135 N   0  0  0  0  0  0  0  0  0  0  0  0
    2.2709   -2.4795    2.8709 C   0  0  2  0  0  0  0  0  0  0  0  0
    2.2194   -3.8337    2.1260 C   0  0  0  0  0  0  0  0  0  0  0  0
    3.2307   -4.5184    2.0459 O   0  0  0  0  0  0  0  0  0  0  0  0
    1.6387   -2.5941    4.2648 C   0  0  0  0  0  0  0  0  0  0  0  0
    2.3625   -0.8406    1.5062 H   0  0  0  0  0  0  0  0  0  0  0  0
    3.3325   -2.2588    3.0236 H   0  0  0  0  0  0  0  0  0  0  0  0
    0.5992   -2.9289    4.2059 H   0  0  0  0  0  0  0  0  0  0  0  0
    2.1948   -3.3185    4.8681 H   0  0  0  0  0  0  0  0  0  0  0  0
    1.6653   -1.6262    4.7741 H   0  0  0  0  0  0  0  0  0  0  0  0
    1.0504   -4.2928    1.5511 N   0  0  0  0  0  0  0  0  0  0  0  0
    0.9115   -5.5972    0.9184 C   0  0  0  0  0  0  0  0  0  0  0  0
    0.2195   -3.7161    1.7076 H   0  0  0  0  0  0  0  0  0  0  0  0
   -0.0803   -5.6931    0.4661 H   0  0  0  0  0  0  0  0  0  0  0  0
    1.6628   -5.7245    0.1319 H   0  0  0  0  0  0  0  0  0  0  0  0
    1.0363   -6.3955    1.6574 H   0  0  0  0  0  0  0  0  0  0  0  0
  1  2  2  0  0  0  0
  1  3  1  0  0  0  0
  1  7  1  0  0  0  0
  3  4  1  0  0  0  0
  3  5  1  0  0  0  0
  3  6  1  0  0  0  0
  7  8  1  0  0  0  0
  7 12  1  0  0  0  0
  8  9  1  0  0  0  0
  8 11  1  0  0  0  0
  8 13  1  0  0  0  0
  9 10  2  0  0  0  0
  9 17  1  0  0  0  0
 11 14  1  0  0  0  0
 11 15  1  0  0  0  0
 11 16  1  0  0  0  0
 17 18  1  0  0  0  0
 17 25  1  0  0  0  0
 18 19  1  0  0  0  0
 18 21  1  0  0  0  0
 18 26  1  0  0  0  0
 19 20  2  0  0  0  0
 19 36  1  0  0  0  0
 21 22  1  0  0  0  0
 21 27  1  0  0  0  0
 21 28  1  0  0  0  0
 22 23  1  0  0  0  0
 22 24  1  0  0  0  0
 22 29  1  0  0  0  0
 23 30  1  0  0  0  0
 23 31  1  0  0  0  0
 23 32  1  0  0  0  0
 24 33  1  0  0  0  0
 24 34  1  0  0  0  0
 24 35  1  0  0  0  0
 36 37  1  0  0  0  0
 36 41  1  0  0  0  0
 37 38  1  0  0  0  0
 37 40  1  0  0  0  0
 37 42  1  0  0  0  0
 38 39  2  0  0  0  0
 38 46  1  0  0  0  0
 40 43  1  0  0  0  0
 40 44  1  0  0  0  0
 40 45  1  0  0  0  0
 46 47  1  0  0  0  0
 46 48  1  0  0  0  0
 47 49  1  0  0  0  0
 47 50  1  0  0  0  0
 47 51  1  0  0  0  0
M  END
$$$$

  -OEChem-05262216553D

 51 50  0     1  0  0  0  0  0999 V2000
    2.9945   -2.4096   -4.1153 C   0  0  0  0  0  0  0  0  0  0  0  0
    2.1877   -2.3898   -5.0316 O   0  0  0  0  0  0  0  0  0  0  0  0
    4.4518   -2.7326   -4.3868 C   0  0  0  0  0  0  0  0  0  0  0  0
    5.0830   -1.8926   -4.0869 H   0  0  0  0  0  0  0  0  0  0  0  0
    4.7478   -3.6208   -3.8232 H   0  0  0  0  0  0  0  0  0  0  0  0
    4.6036   -2.9250   -5.4526 H   0  0  0  0  0  0  0  0  0  0  0  0
    2.5827   -2.1335   -2.8289 N   0  0  0  0  0  0  0  0  0  0  0  0
    1.2307   -1.6890   -2.4659 C   0  0  2  0  0  0  0  0  0  0  0  0
    1.2412   -0.8333   -1.1813 C   0  0  0  0  0  0  0  0  0  0  0  0
    2.2946   -0.5991   -0.5934 O   0  0  0  0  0  0  0  0  0  0  0  0
    0.3467   -2.9290   -2.2847 C   0  0  0  0  0  0  0  0  0  0  0  0
    3.3066   -2.0389   -2.1168 H   0  0  0  0  0  0  0  0  0  0  0  0
    0.8199   -1.0668   -3.2684 H   0  0  0  0  0  0  0  0  0  0  0  0
    0.7189   -3.5464   -1.4615 H   0  0  0  0  0  0  0  0  0  0  0  0
   -0.6856   -2.6413   -2.0662 H   0  0  0  0  0  0  0  0  0  0  0  0
    0.3450   -3.5318   -3.1984 H   0  0  0  0  0  0  0  0  0  0  0  0
    0.0627   -0.3575   -0.6331 N   0  0  0  0  0  0  0  0  0  0  0  0
   -0.0071    0.0774    0.7690 C   0  0  2  0  0  0  0  0  0  0  0  0
    0.3575   -1.0946    1.7090 C   0  0  0  0  0  0  0  0  0  0  0  0
   -0.4268   -2.0258    1.8555 O   0  0  0  0  0  0  0  0  0  0  0  0
   -1.3986    0.6456    1.1325 C   0  0  0  0  0  0  0  0  0  0  0  0
   -1.8264    1.9648    0.4390 C   0  0  0  0  0  0  0  0  0  0  0  0
   -3.2810    2.2614    0.8275 C   0  0  0  0  0  0  0  0  0  0  0  0
   -1.7376    1.9629   -1.0943 C   0  0  0  0  0  0  0  0  0  0  0  0
   -0.7960   -0.6936   -1.0604 H   0  0  0  0  0  0  0  0  0  0  0  0
    0.7239    0.8770    0.9285 H   0  0  0  0  0  0  0  0  0  0  0  0
   -1.4260    0.8112    2.2152 H   0  0  0  0  0  0  0  0  0  0  0  0
   -2.1454   -0.1238    0.9073 H   0  0  0  0  0  0  0  0  0  0  0  0
   -1.1903    2.7739    0.8136 H   0  0  0  0  0  0  0  0  0  0  0  0
   -3.9521    1.4906    0.4350 H   0  0  0  0  0  0  0  0  0  0  0  0
   -3.5943    3.2312    0.4283 H   0  0  0  0  0  0  0  0  0  0  0  0
   -3.3873    2.2927    1.9166 H   0  0  0  0  0  0  0  0  0  0  0  0
   -2.2344    1.0811   -1.5106 H   0  0  0  0  0  0  0  0  0  0  0  0
   -2.2193    2.8556   -1.5055 H   0  0  0  0  0  0  0  0  0  0  0  0
   -0.6941    1.9760   -1.4213 H   0  0  0  0  0  0  0  0  0  0  0  0
    1.5975   -1.1068    2.3240 N   0  0  0  0  0  0  0  0  0  0  0  0
    2.1758   -2.2100    3.1180 C   0  0  2  0  0  0  0  0  0  0  0  0
    2.4660   -3.4966    2.3101 C   0  0  0  0  0  0  0  0  0  0  0  0
    3.5841   -3.9935    2.3452 O   0  0  0  0  0  0  0  0  0  0  0  0
    1.3241   -2.5194    4.3574 C   0  0  0  0  0  0  0  0  0  0  0  0
    2.2654   -0.4662    1.8953 H   0  0  0  0  0  0  0  0  0  0  0  0
    3.1457   -1.8574    3.4837 H   0  0  0  0  0  0  0  0  0  0  0  0
    0.3726   -2.9839    4.0832 H   0  0  0  0  0  0  0  0  0  0  0  0
    1.8609   -3.2095    5.0161 H   0  0  0  0  0  0  0  0  0  0  0  0
    1.1159   -1.6009    4.9141 H   0  0  0  0  0  0  0  0  0  0  0  0
    1.4845   -4.1046    1.5524 N   0  0  0  0  0  0  0  0  0  0  0  0
    1.6829   -5.3265    0.7857 C   0  0  0  0  0  0  0  0  0  0  0  0
    0.5647   -3.6559    1.5643 H   0  0  0  0  0  0  0  0  0  0  0  0
    0.7430   -5.6346    0.3180 H   0  0  0  0  0  0  0  0  0  0  0  0
    2.4271   -5.1672   -0.0014 H   0  0  0  0  0  0  0  0  0  0  0  0
    2.0261   -6.1370    1.4371 H   0  0  0  0  0  0  0  0  0  0  0  0
  1  2  2  0  0  0  0
  1  3  1  0  0  0  0
  1  7  1  0  0  0  0
  3  4  1  0  0  0  0
  3  5  1  0  0  0  0
  3  6  1  0  0  0  0
  7  8  1  0  0  0  0
  7 12  1  0  0  0  0
  8  9  1  0  0  0  0
  8 11  1  0  0  0  0
  8 13  1  0  0  0  0
  9 10  2  0  0  0  0
  9 17  1  0  0  0  0
 11 14  1  0  0  0  0
 11 15  1  0  0  0  0
 11 16  1  0  0  0  0
 17 18  1  0  0  0  0
 17 25  1  0  0  0  0
 18 19  1  0  0  0  0
 18 21  1  0  0  0  0
 18 26  1  0  0  0  0
 19 20  2  0  0  0  0
 19 36  1  0  0  0  0
 21 22  1  0  0  0  0
 21 27  1  0  0  0  0
 21 28  1  0  0  0  0
 22 23  1  0  0  0  0
 22 24  1  0  0  0  0
 22 29  1  0  0  0  0
 23 30  1  0  0  0  0
 23 31  1  0  0  0  0
 23 32  1  0  0  0  0
 24 33  1  0  0  0  0
 24 34  1  0  0  0  0
 24 35  1  0  0  0  0
 36 37  1  0  0  0  0
 36 41  1  0  0  0  0
 37 38  1  0  0  0  0
 37 40  1  0  0  0  0
 37 42  1  0  0  0  0
 38 39  2  0  0  0  0
 38 46  1  0  0  0  0
 40 43  1  0  0  0  0
 40 44  1  0  0  0  0
 40 45  1  0  0  0  0
 46 47  1  0  0  0  0
 46 48  1  0  0  0  0
 47 49  1  0  0  0  0
 47 50  1  0  0  0  0
 47 51  1  0  0  0  0
M  END
$$$$

  -OEChem-05262216553D

 51 50  0     1  0  0  0  0  0999 V2000
    2.9515   -2.4589   -4.1007 C   0  0  0  0  0  0  0  0  0  0  0  0
    2.1061   -2.5159   -4.9798 O   0  0  0  0  0  0  0  0  0  0  0  0
    4.4106   -2.7159   -4.4258 C   0  0  0  0  0  0  0  0  0  0  0  0
    4.7995   -3.5153   -3.7902 H   0  0  0  0  0  0  0  0  0  0  0  0
    4.5166   -3.0153   -5.4722 H   0  0  0  0  0  0  0  0  0  0  0  0
    4.9955   -1.8088   -4.2566 H   0  0  0  0  0  0  0  0  0  0  0  0
    2.5812   -2.1583   -2.8075 N   0  0  0  0  0  0  0  0  0  0  0  0
    1.2207   -1.7901   -2.3958 C   0  0  2  0  0  0  0  0  0  0  0  0
    1.2315   -0.8843   -1.1470 C   0  0  0  0  0  0  0  0  0  0  0  0
    2.2812   -0.6505   -0.5537 O   0  0  0  0  0  0  0  0  0  0  0  0
    0.4352   -3.0767   -2.1157 C   0  0  0  0  0  0  0  0  0  0  0  0
    3.3263   -2.0033   -2.1287 H   0  0  0  0  0  0  0  0  0  0  0  0
    0.7294   -1.2332   -3.2012 H   0  0  0  0  0  0  0  0  0  0  0  0
    0.8988   -3.6365   -1.2978 H   0  0  0  0  0  0  0  0  0  0  0  0
   -0.5980   -2.8478   -1.8383 H   0  0  0  0  0  0  0  0  0  0  0  0
    0.4168   -3.7125   -3.0066 H   0  0  0  0  0  0  0  0  0  0  0  0
    0.0538   -0.3666   -0.6379 N   0  0  0  0  0  0  0  0  0  0  0  0
   -0.0314    0.0865    0.7575 C   0  0  2  0  0  0  0  0  0  0  0  0
    0.2749   -1.0811    1.7222 C   0  0  0  0  0  0  0  0  0  0  0  0
   -0.4040   -2.1011    1.6638 O   0  0  0  0  0  0  0  0  0  0  0  0
   -1.4106    0.6954    1.0947 C   0  0  0  0  0  0  0  0  0  0  0  0
   -1.7901    2.0185    0.3813 C   0  0  0  0  0  0  0  0  0  0  0  0
   -3.2413    2.3619    0.7432 C   0  0  0  0  0  0  0  0  0  0  0  0
   -1.6770    1.9971   -1.1503 C   0  0  0  0  0  0  0  0  0  0  0  0
   -0.7997   -0.7231   -1.0589 H   0  0  0  0  0  0  0  0  0  0  0  0
    0.7208    0.8658    0.9184 H   0  0  0  0  0  0  0  0  0  0  0  0
   -1.4487    0.8754    2.1746 H   0  0  0  0  0  0  0  0  0  0  0  0
   -2.1746   -0.0565    0.8678 H   0  0  0  0  0  0  0  0  0  0  0  0
   -1.1365    2.8131    0.7572 H   0  0  0  0  0  0  0  0  0  0  0  0
   -3.9286    1.6036    0.3544 H   0  0  0  0  0  0  0  0  0  0  0  0
   -3.5218    3.3331    0.3233 H   0  0  0  0  0  0  0  0  0  0  0  0
   -3.3616    2.4152    1.8297 H   0  0  0  0  0  0  0  0  0  0  0  0
   -2.1956    1.1272   -1.5653 H   0  0  0  0  0  0  0  0  0  0  0  0
   -2.1223    2.9007   -1.5787 H   0  0  0  0  0  0  0  0  0  0  0  0
   -0.6286    1.9727   -1.4607 H   0  0  0  0  0  0  0  0  0  0  0  0
    1.3403   -0.9877    2.6018 N   0  0  0  0  0  0  0  0  0  0  0  0
    1.8522   -2.0564    3.4845 C   0  0  2  0  0  0  0  0  0  0  0  0
    2.4703   -3.2620    2.7379 C   0  0  0  0  0  0  0  0  0  0  0  0
    3.6040   -3.6282    3.0194 O   0  0  0  0  0  0  0  0  0  0  0  0
    0.7844   -2.5173    4.4872 C   0  0  0  0  0  0  0  0  0  0  0  0
    1.9743   -0.2145    2.4132 H   0  0  0  0  0  0  0  0  0  0  0  0
    2.6649   -1.6166    4.0721 H   0  0  0  0  0  0  0  0  0  0  0  0
   -0.0178   -3.0708    3.9910 H   0  0  0  0  0  0  0  0  0  0  0  0
    1.2357   -3.1746    5.2369 H   0  0  0  0  0  0  0  0  0  0  0  0
    0.3475   -1.6554    5.0003 H   0  0  0  0  0  0  0  0  0  0  0  0
    1.7671   -3.9383    1.7606 N   0  0  0  0  0  0  0  0  0  0  0  0
    2.3041   -5.0510    0.9900 C   0  0  0  0  0  0  0  0  0  0  0  0
    0.8343   -3.5765    1.5469 H   0  0  0  0  0  0  0  0  0  0  0  0
    1.5228   -5.4841    0.3583 H   0  0  0  0  0  0  0  0  0  0  0  0
    3.1229   -4.7103    0.3480 H   0  0  0  0  0  0  0  0  0  0  0  0
    2.6799   -5.8341    1.6568 H   0  0  0  0  0  0  0  0  0  0  0  0
  1  2  2  0  0  0  0
  1  3  1  0  0  0  0
  1  7  1  0  0  0  0
  3  4  1  0  0  0  0
  3  5  1  0  0  0  0
  3  6  1  0  0  0  0
  7  8  1  0  0  0  0
  7 12  1  0  0  0  0
  8  9  1  0  0  0  0
  8 11  1  0  0  0  0
  8 13  1  0  0  0  0
  9 10  2  0  0  0  0
  9 17  1  0  0  0  0
 11 14  1  0  0  0  0
 11 15  1  0  0  0  0
 11 16  1  0  0  0  0
 17 18  1  0  0  0  0
 17 25  1  0  0  0  0
 18 19  1  0  0  0  0
 18 21  1  0  0  0  0
 18 26  1  0  0  0  0
 19 20  2  0  0  0  0
 19 36  1  0  0  0  0
 21 22  1  0  0  0  0
 21 27  1  0  0  0  0
 21 28  1  0  0  0  0
 22 23  1  0  0  0  0
 22 24  1  0  0  0  0
 22 29  1  0  0  0  0
 23 30  1  0  0  0  0
 23 31  1  0  0  0  0
 23 32  1  0  0  0  0
 24 33  1  0  0  0  0
 24 34  1  0  0  0  0
 24 35  1  0  0  0  0
 36 37  1  0  0  0  0
 36 41  1  0  0  0  0
 37 38  1  0  0  0  0
 37 40  1  0  0  0  0
 37 42  1  0  0  0  0
 38 39  2  0  0  0  0
 38 46  1  0  0  0  0
 40 43  1  0  0  0  0
 40 44  1  0  0  0  0
 40 45  1  0  0  0  0
 46 47  1  0  0  0  0
 46 48  1  0  0  0  0
 47 49  1  0  0  0  0
 47 50  1  0  0  0  0
 47 51  1  0  0  0  0
M  END
$$$$

  -OEChem-05262216553D

 51 50  0     1  0  0  0  0  0999 V2000
    2.6208   -3.1389   -2.4590 C   0  0  0  0  0  0  0  0  0  0  0  0
    1.7032   -3.6500   -1.8392 O   0  0  0  0  0  0  0  0  0  0  0  0
    3.9683   -3.8336   -2.5078 C   0  0  0  0  0  0  0  0  0  0  0  0
    4.6929   -3.2774   -1.9079 H   0  0  0  0  0  0  0  0  0  0  0  0
    3.8847   -4.8483   -2.1095 H   0  0  0  0  0  0  0  0  0  0  0  0
    4.3247   -3.8909   -3.5388 H   0  0  0  0  0  0  0  0  0  0  0  0
    2.4658   -1.9237   -3.0997 N   0  0  0  0  0  0  0  0  0  0  0  0
    1.3261   -1.0117   -2.8892 C   0  0  2  0  0  0  0  0  0  0  0  0
    1.2644   -0.4713   -1.4400 C   0  0  0  0  0  0  0  0  0  0  0  0
    2.3020   -0.1553   -0.8658 O   0  0  0  0  0  0  0  0  0  0  0  0
    0.0032   -1.6433   -3.3585 C   0  0  0  0  0  0  0  0  0  0  0  0
    3.3330   -1.5032   -3.4206 H   0  0  0  0  0  0  0  0  0  0  0  0
    1.4932   -0.1370   -3.5246 H   0  0  0  0  0  0  0  0  0  0  0  0
   -0.3382   -2.4168   -2.6637 H   0  0  0  0  0  0  0  0  0  0  0  0
   -0.7773   -0.8800   -3.4314 H   0  0  0  0  0  0  0  0  0  0  0  0
    0.1311   -2.0978   -4.3456 H   0  0  0  0  0  0  0  0  0  0  0  0
    0.0616   -0.1740   -0.8226 N   0  0  0  0  0  0  0  0  0  0  0  0
   -0.0014    0.0933    0.6217 C   0  0  2  0  0  0  0  0  0  0  0  0
    0.4910   -1.1186    1.4449 C   0  0  0  0  0  0  0  0  0  0  0  0
   -0.0047   -2.2198    1.2401 O   0  0  0  0  0  0  0  0  0  0  0  0
   -1.4298    0.4753    1.0720 C   0  0  0  0  0  0  0  0  0  0  0  0
   -2.0040    1.8134    0.5387 C   0  0  0  0  0  0  0  0  0  0  0  0
   -3.4688    1.9194    0.9838 C   0  0  0  0  0  0  0  0  0  0  0  0
   -1.9582    1.9891   -0.9864 C   0  0  0  0  0  0  0  0  0  0  0  0
   -0.7462   -0.6344   -1.2326 H   0  0  0  0  0  0  0  0  0  0  0  0
    0.6567    0.9390    0.8459 H   0  0  0  0  0  0  0  0  0  0  0  0
   -1.4422    0.5197    2.1665 H   0  0  0  0  0  0  0  0  0  0  0  0
   -2.1026   -0.3378    0.7765 H   0  0  0  0  0  0  0  0  0  0  0  0
   -1.4389    2.6358    0.9904 H   0  0  0  0  0  0  0  0  0  0  0  0
   -4.0717    1.1294    0.5243 H   0  0  0  0  0  0  0  0  0  0  0  0
   -3.8884    2.8884    0.6952 H   0  0  0  0  0  0  0  0  0  0  0  0
   -3.5454    1.8265    2.0719 H   0  0  0  0  0  0  0  0  0  0  0  0
   -2.3725    1.1104   -1.4902 H   0  0  0  0  0  0  0  0  0  0  0  0
   -2.5402    2.8656   -1.2880 H   0  0  0  0  0  0  0  0  0  0  0  0
   -0.9308    2.1470   -1.3263 H   0  0  0  0  0  0  0  0  0  0  0  0
    1.3588   -0.9305    2.5079 N   0  0  0  0  0  0  0  0  0  0  0  0
    1.8566   -1.9649    3.4390 C   0  0  2  0  0  0  0  0  0  0  0  0
    2.7527   -3.0536    2.8021 C   0  0  0  0  0  0  0  0  0  0  0  0
    3.8095   -3.3467    3.3481 O   0  0  0  0  0  0  0  0  0  0  0  0
    0.7040   -2.6062    4.2248 C   0  0  0  0  0  0  0  0  0  0  0  0
    1.8337   -0.0322    2.5218 H   0  0  0  0  0  0  0  0  0  0  0  0
    2.4878   -1.4490    4.1697 H   0  0  0  0  0  0  0  0  0  0  0  0
    0.0933   -3.2466    3.5819 H   0  0  0  0  0  0  0  0  0  0  0  0
    1.1028   -3.2228    5.0364 H   0  0  0  0  0  0  0  0  0  0  0  0
    0.0624   -1.8343    4.6597 H   0  0  0  0  0  0  0  0  0  0  0  0
    2.3752   -3.7313    1.6602 N   0  0  0  0  0  0  0  0  0  0  0  0
    3.1529   -4.7972    1.0479 C   0  0  0  0  0  0  0  0  0  0  0  0
    1.4900   -3.4487    1.2282 H   0  0  0  0  0  0  0  0  0  0  0  0
    2.5885   -5.2502    0.2275 H   0  0  0  0  0  0  0  0  0  0  0  0
    4.0926   -4.4022    0.6499 H   0  0  0  0  0  0  0  0  0  0  0  0
    3.3785   -5.5781    1.7814 H   0  0  0  0  0  0  0  0  0  0  0  0
  1  2  2  0  0  0  0
  1  3  1  0  0  0  0
  1  7  1  0  0  0  0
  3  4  1  0  0  0  0
  3  5  1  0  0  0  0
  3  6  1  0  0  0  0
  7  8  1  0  0  0  0
  7 12  1  0  0  0  0
  8  9  1  0  0  0  0
  8 11  1  0  0  0  0
  8 13  1  0  0  0  0
  9 10  2  0  0  0  0
  9 17  1  0  0  0  0
 11 14  1  0  0  0  0
 11 15  1  0  0  0  0
 11 16  1  0  0  0  0
 17 18  1  0  0  0  0
 17 25  1  0  0  0  0
 18 19  1  0  0  0  0
 18 21  1  0  0  0  0
 18 26  1  0  0  0  0
 19 20  2  0  0  0  0
 19 36  1  0  0  0  0
 21 22  1  0  0  0  0
 21 27  1  0  0  0  0
 21 28  1  0  0  0  0
 22 23  1  0  0  0  0
 22 24  1  0  0  0  0
 22 29  1  0  0  0  0
 23 30  1  0  0  0  0
 23 31  1  0  0  0  0
 23 32  1  0  0  0  0
 24 33  1  0  0  0  0
 24 34  1  0  0  0  0
 24 35  1  0  0  0  0
 36 37  1  0  0  0  0
 36 41  1  0  0  0  0
 37 38  1  0  0  0  0
 37 40  1  0  0  0  0
 37 42  1  0  0  0  0
 38 39  2  0  0  0  0
 38 46  1  0  0  0  0
 40 43  1  0  0  0  0
 40 44  1  0  0  0  0
 40 45  1  0  0  0  0
 46 47  1  0  0  0  0
 46 48  1  0  0  0  0
 47 49  1  0  0  0  0
 47 50  1  0  0  0  0
 47 51  1  0  0  0  0
M  END
$$$$

  -OEChem-05262216553D

 51 50  0     1  0  0  0  0  0999 V2000
    2.8280   -3.0832   -2.3525 C   0  0  0  0  0  0  0  0  0  0  0  0
    1.9955   -3.6862   -1.6967 O   0  0  0  0  0  0  0  0  0  0  0  0
    4.2512   -3.6060   -2.4079 C   0  0  0  0  0  0  0  0  0  0  0  0
    4.9223   -2.9088   -1.8998 H   0  0  0  0  0  0  0  0  0  0  0  0
    4.3154   -4.5795   -1.9141 H   0  0  0  0  0  0  0  0  0  0  0  0
    4.5694   -3.7183   -3.4471 H   0  0  0  0  0  0  0  0  0  0  0  0
    2.5121   -1.9222   -3.0345 N   0  0  0  0  0  0  0  0  0  0  0  0
    1.2834   -1.1340   -2.8162 C   0  0  2  0  0  0  0  0  0  0  0  0
    1.2283   -0.5042   -1.4032 C   0  0  0  0  0  0  0  0  0  0  0  0
    2.2678   -0.1761   -0.8391 O   0  0  0  0  0  0  0  0  0  0  0  0
    0.0186   -1.9412   -3.1595 C   0  0  0  0  0  0  0  0  0  0  0  0
    3.3192   -1.4135   -3.3830 H   0  0  0  0  0  0  0  0  0  0  0  0
    1.3145   -0.2945   -3.5168 H   0  0  0  0  0  0  0  0  0  0  0  0
   -0.2121   -2.6700   -2.3760 H   0  0  0  0  0  0  0  0  0  0  0  0
   -0.8408   -1.2731   -3.2680 H   0  0  0  0  0  0  0  0  0  0  0  0
    0.1563   -2.4786   -4.1028 H   0  0  0  0  0  0  0  0  0  0  0  0
    0.0281   -0.1361   -0.8181 N   0  0  0  0  0  0  0  0  0  0  0  0
   -0.0411    0.1212    0.6292 C   0  0  2  0  0  0  0  0  0  0  0  0
    0.3577   -1.1278    1.4486 C   0  0  0  0  0  0  0  0  0  0  0  0
   -0.0119   -2.2323    1.0690 O   0  0  0  0  0  0  0  0  0  0  0  0
   -1.4504    0.5849    1.0613 C   0  0  0  0  0  0  0  0  0  0  0  0
   -1.9347    1.9599    0.5336 C   0  0  0  0  0  0  0  0  0  0  0  0
   -3.3973    2.1504    0.9573 C   0  0  0  0  0  0  0  0  0  0  0  0
   -1.8546    2.1488   -0.9883 C   0  0  0  0  0  0  0  0  0  0  0  0
   -0.7853   -0.5848   -1.2291 H   0  0  0  0  0  0  0  0  0  0  0  0
    0.6674    0.9191    0.8742 H   0  0  0  0  0  0  0  0  0  0  0  0
   -1.4793    0.6205    2.1556 H   0  0  0  0  0  0  0  0  0  0  0  0
   -2.1654   -0.1836    0.7469 H   0  0  0  0  0  0  0  0  0  0  0  0
   -1.3285    2.7422    1.0027 H   0  0  0  0  0  0  0  0  0  0  0  0
   -4.0398    1.4030    0.4803 H   0  0  0  0  0  0  0  0  0  0  0  0
   -3.7525    3.1459    0.6725 H   0  0  0  0  0  0  0  0  0  0  0  0
   -3.4969    2.0523    2.0430 H   0  0  0  0  0  0  0  0  0  0  0  0
   -2.3170    1.3041   -1.5084 H   0  0  0  0  0  0  0  0  0  0  0  0
   -2.3742    3.0645   -1.2881 H   0  0  0  0  0  0  0  0  0  0  0  0
   -0.8141    2.2440   -1.3115 H   0  0  0  0  0  0  0  0  0  0  0  0
    0.9533   -0.9851    2.6912 N   0  0  0  0  0  0  0  0  0  0  0  0
    1.3412   -2.0737    3.6124 C   0  0  2  0  0  0  0  0  0  0  0  0
    2.4435   -3.0183    3.0767 C   0  0  0  0  0  0  0  0  0  0  0  0
    3.4473   -3.2019    3.7543 O   0  0  0  0  0  0  0  0  0  0  0  0
    0.1174   -2.8741    4.0806 C   0  0  0  0  0  0  0  0  0  0  0  0
    1.3157   -0.0584    2.8957 H   0  0  0  0  0  0  0  0  0  0  0  0
    1.7623   -1.5959    4.5029 H   0  0  0  0  0  0  0  0  0  0  0  0
   -0.2984   -3.4782    3.2691 H   0  0  0  0  0  0  0  0  0  0  0  0
    0.4025   -3.5498    4.8930 H   0  0  0  0  0  0  0  0  0  0  0  0
   -0.6615   -2.1996    4.4478 H   0  0  0  0  0  0  0  0  0  0  0  0
    2.3155   -3.6694    1.8657 N   0  0  0  0  0  0  0  0  0  0  0  0
    3.3362   -4.5297    1.2863 C   0  0  0  0  0  0  0  0  0  0  0  0
    1.4988   -3.4223    1.2979 H   0  0  0  0  0  0  0  0  0  0  0  0
    3.7103   -5.2416    2.0293 H   0  0  0  0  0  0  0  0  0  0  0  0
    2.9161   -5.0985    0.4514 H   0  0  0  0  0  0  0  0  0  0  0  0
    4.1733   -3.9299    0.9161 H   0  0  0  0  0  0  0  0  0  0  0  0
  1  2  2  0  0  0  0
  1  3  1  0  0  0  0
  1  7  1  0  0  0  0
  3  4  1  0  0  0  0
  3  5  1  0  0  0  0
  3  6  1  0  0  0  0
  7  8  1  0  0  0  0
  7 12  1  0  0  0  0
  8  9  1  0  0  0  0
  8 11  1  0  0  0  0
  8 13  1  0  0  0  0
  9 10  2  0  0  0  0
  9 17  1  0  0  0  0
 11 14  1  0  0  0  0
 11 15  1  0  0  0  0
 11 16  1  0  0  0  0
 17 18  1  0  0  0  0
 17 25  1  0  0  0  0
 18 19  1  0  0  0  0
 18 21  1  0  0  0  0
 18 26  1  0  0  0  0
 19 20  2  0  0  0  0
 19 36  1  0  0  0  0
 21 22  1  0  0  0  0
 21 27  1  0  0  0  0
 21 28  1  0  0  0  0
 22 23  1  0  0  0  0
 22 24  1  0  0  0  0
 22 29  1  0  0  0  0
 23 30  1  0  0  0  0
 23 31  1  0  0  0  0
 23 32  1  0  0  0  0
 24 33  1  0  0  0  0
 24 34  1  0  0  0  0
 24 35  1  0  0  0  0
 36 37  1  0  0  0  0
 36 41  1  0  0  0  0
 37 38  1  0  0  0  0
 37 40  1  0  0  0  0
 37 42  1  0  0  0  0
 38 39  2  0  0  0  0
 38 46  1  0  0  0  0
 40 43  1  0  0  0  0
 40 44  1  0  0  0  0
 40 45  1  0  0  0  0
 46 47  1  0  0  0  0
 46 48  1  0  0  0  0
 47 49  1  0  0  0  0
 47 50  1  0  0  0  0
 47 51  1  0  0  0  0
M  END
$$$$

  -OEChem-05262216553D

 51 50  0     1  0  0  0  0  0999 V2000
    2.9677   -3.0032   -2.2794 C   0  0  0  0  0  0  0  0  0  0  0  0
    2.2521   -3.6457   -1.5300 O   0  0  0  0  0  0  0  0  0  0  0  0
    4.4375   -3.3635   -2.3874 C   0  0  0  0  0  0  0  0  0  0  0  0
    5.0506   -2.5254   -2.0468 H   0  0  0  0  0  0  0  0  0  0  0  0
    4.6593   -4.2357   -1.7661 H   0  0  0  0  0  0  0  0  0  0  0  0
    4.6915   -3.5963   -3.4242 H   0  0  0  0  0  0  0  0  0  0  0  0
    2.4819   -1.9426   -3.0236 N   0  0  0  0  0  0  0  0  0  0  0  0
    1.1954   -1.2632   -2.7710 C   0  0  2  0  0  0  0  0  0  0  0  0
    1.1666   -0.5243   -1.4105 C   0  0  0  0  0  0  0  0  0  0  0  0
    2.2129   -0.1501   -0.8890 O   0  0  0  0  0  0  0  0  0  0  0  0
    0.0025   -2.2196   -2.9445 C   0  0  0  0  0  0  0  0  0  0  0  0
    3.2046   -1.3864   -3.4699 H   0  0  0  0  0  0  0  0  0  0  0  0
    1.0888   -0.4892   -3.5364 H   0  0  0  0  0  0  0  0  0  0  0  0
   -0.0957   -2.8892   -2.0840 H   0  0  0  0  0  0  0  0  0  0  0  0
   -0.9290   -1.6549   -3.0441 H   0  0  0  0  0  0  0  0  0  0  0  0
    0.1323   -2.8278   -3.8449 H   0  0  0  0  0  0  0  0  0  0  0  0
   -0.0245   -0.1117   -0.8345 N   0  0  0  0  0  0  0  0  0  0  0  0
   -0.0788    0.1376    0.6163 C   0  0  2  0  0  0  0  0  0  0  0  0
    0.2696   -1.1337    1.4285 C   0  0  0  0  0  0  0  0  0  0  0  0
    0.0523   -2.2350    0.9381 O   0  0  0  0  0  0  0  0  0  0  0  0
   -1.4683    0.6612    1.0485 C   0  0  0  0  0  0  0  0  0  0  0  0
   -1.8892    2.0599    0.5275 C   0  0  0  0  0  0  0  0  0  0  0  0
   -3.3430    2.3145    0.9484 C   0  0  0  0  0  0  0  0  0  0  0  0
   -1.7970    2.2541   -0.9935 C   0  0  0  0  0  0  0  0  0  0  0  0
   -0.8416   -0.5684   -1.2285 H   0  0  0  0  0  0  0  0  0  0  0  0
    0.6646    0.9016    0.8673 H   0  0  0  0  0  0  0  0  0  0  0  0
   -1.5023    0.6934    2.1426 H   0  0  0  0  0  0  0  0  0  0  0  0
   -2.2149   -0.0731    0.7263 H   0  0  0  0  0  0  0  0  0  0  0  0
   -1.2494    2.8112    1.0029 H   0  0  0  0  0  0  0  0  0  0  0  0
   -4.0189    1.6024    0.4639 H   0  0  0  0  0  0  0  0  0  0  0  0
   -3.6499    3.3280    0.6712 H   0  0  0  0  0  0  0  0  0  0  0  0
   -3.4505    2.2128    2.0330 H   0  0  0  0  0  0  0  0  0  0  0  0
   -2.2937    1.4335   -1.5205 H   0  0  0  0  0  0  0  0  0  0  0  0
   -2.2755    3.1931   -1.2890 H   0  0  0  0  0  0  0  0  0  0  0  0
   -0.7524    2.3060   -1.3134 H   0  0  0  0  0  0  0  0  0  0  0  0
    0.5815   -1.0398    2.7755 N   0  0  0  0  0  0  0  0  0  0  0  0
    0.8595   -2.1635    3.6954 C   0  0  2  0  0  0  0  0  0  0  0  0
    2.1114   -3.0030    3.3424 C   0  0  0  0  0  0  0  0  0  0  0  0
    2.9700   -3.1712    4.1998 O   0  0  0  0  0  0  0  0  0  0  0  0
   -0.3719   -3.0643    3.8666 C   0  0  0  0  0  0  0  0  0  0  0  0
    0.7912   -0.1050    3.1126 H   0  0  0  0  0  0  0  0  0  0  0  0
    1.0628   -1.7213    4.6761 H   0  0  0  0  0  0  0  0  0  0  0  0
   -0.5731   -3.6411    2.9594 H   0  0  0  0  0  0  0  0  0  0  0  0
   -0.2068   -3.7703    4.6865 H   0  0  0  0  0  0  0  0  0  0  0  0
   -1.2544   -2.4615    4.0998 H   0  0  0  0  0  0  0  0  0  0  0  0
    2.2821   -3.5688    2.0940 N   0  0  0  0  0  0  0  0  0  0  0  0
    3.4645   -4.3128    1.6857 C   0  0  0  0  0  0  0  0  0  0  0  0
    1.5730   -3.3458    1.3880 H   0  0  0  0  0  0  0  0  0  0  0  0
    3.7113   -5.0825    2.4243 H   0  0  0  0  0  0  0  0  0  0  0  0
    3.2838   -4.8065    0.7263 H   0  0  0  0  0  0  0  0  0  0  0  0
    4.3196   -3.6388    1.5759 H   0  0  0  0  0  0  0  0  0  0  0  0
  1  2  2  0  0  0  0
  1  3  1  0  0  0  0
  1  7  1  0  0  0  0
  3  4  1  0  0  0  0
  3  5  1  0  0  0  0
  3  6  1  0  0  0  0
  7  8  1  0  0  0  0
  7 12  1  0  0  0  0
  8  9  1  0  0  0  0
  8 11  1  0  0  0  0
  8 13  1  0  0  0  0
  9 10  2  0  0  0  0
  9 17  1  0  0  0  0
 11 14  1  0  0  0  0
 11 15  1  0  0  0  0
 11 16  1  0  0  0  0
 17 18  1  0  0  0  0
 17 25  1  0  0  0  0
 18 19  1  0  0  0  0
 18 21  1  0  0  0  0
 18 26  1  0  0  0  0
 19 20  2  0  0  0  0
 19 36  1  0  0  0  0
 21 22  1  0  0  0  0
 21 27  1  0  0  0  0
 21 28  1  0  0  0  0
 22 23  1  0  0  0  0
 22 24  1  0  0  0  0
 22 29  1  0  0  0  0
 23 30  1  0  0  0  0
 23 31  1  0  0  0  0
 23 32  1  0  0  0  0
 24 33  1  0  0  0  0
 24 34  1  0  0  0  0
 24 35  1  0  0  0  0
 36 37  1  0  0  0  0
 36 41  1  0  0  0  0
 37 38  1  0  0  0  0
 37 40  1  0  0  0  0
 37 42  1  0  0  0  0
 38 39  2  0  0  0  0
 38 46  1  0  0  0  0
 40 43  1  0  0  0  0
 40 44  1  0  0  0  0
 40 45  1  0  0  0  0
 46 47  1  0  0  0  0
 46 48  1  0  0  0  0
 47 49  1  0  0  0  0
 47 50  1  0  0  0  0
 47 51  1  0  0  0  0
M  END
$$$$

  -OEChem-05262216553D

 51 50  0     1  0  0  0  0  0999 V2000
    3.0495   -2.8869   -2.5719 C   0  0  0  0  0  0  0  0  0  0  0  0
    2.3050   -3.6992   -2.0509 O   0  0  0  0  0  0  0  0  0  0  0  0
    4.5377   -3.1785   -2.6251 C   0  0  0  0  0  0  0  0  0  0  0  0
    5.0871   -2.4046   -2.0833 H   0  0  0  0  0  0  0  0  0  0  0  0
    4.7493   -4.1471   -2.1636 H   0  0  0  0  0  0  0  0  0  0  0  0
    4.8781   -3.2011   -3.6629 H   0  0  0  0  0  0  0  0  0  0  0  0
    2.5834   -1.7057   -3.1218 N   0  0  0  0  0  0  0  0  0  0  0  0
    1.2756   -1.0876   -2.8215 C   0  0  2  0  0  0  0  0  0  0  0  0
    1.2363   -0.4648   -1.4052 C   0  0  0  0  0  0  0  0  0  0  0  0
    2.2732   -0.0567   -0.8900 O   0  0  0  0  0  0  0  0  0  0  0  0
    0.0903   -2.0341   -3.0827 C   0  0  0  0  0  0  0  0  0  0  0  0
    3.3260   -1.0578   -3.3678 H   0  0  0  0  0  0  0  0  0  0  0  0
    1.1581   -0.2532   -3.5189 H   0  0  0  0  0  0  0  0  0  0  0  0
   -0.0231   -2.7584   -2.2696 H   0  0  0  0  0  0  0  0  0  0  0  0
   -0.8410   -1.4662   -3.1647 H   0  0  0  0  0  0  0  0  0  0  0  0
    0.2416   -2.5818   -4.0181 H   0  0  0  0  0  0  0  0  0  0  0  0
    0.0403   -0.1053   -0.8030 N   0  0  0  0  0  0  0  0  0  0  0  0
   -0.0569    0.0732    0.6592 C   0  0  2  0  0  0  0  0  0  0  0  0
    0.6206   -1.0493    1.4978 C   0  0  0  0  0  0  0  0  0  0  0  0
    0.8791   -2.1285    0.9817 O   0  0  0  0  0  0  0  0  0  0  0  0
   -1.5442    0.2098    1.0747 C   0  0  0  0  0  0  0  0  0  0  0  0
   -2.3077    1.4693    0.5854 C   0  0  0  0  0  0  0  0  0  0  0  0
   -3.7821    1.3195    0.9845 C   0  0  0  0  0  0  0  0  0  0  0  0
   -2.2546    1.7427   -0.9254 C   0  0  0  0  0  0  0  0  0  0  0  0
   -0.7743   -0.5140   -1.2489 H   0  0  0  0  0  0  0  0  0  0  0  0
    0.4602    1.0034    0.9153 H   0  0  0  0  0  0  0  0  0  0  0  0
   -1.6104    0.2029    2.1670 H   0  0  0  0  0  0  0  0  0  0  0  0
   -2.0704   -0.6828    0.7183 H   0  0  0  0  0  0  0  0  0  0  0  0
   -1.8918    2.3434    1.0982 H   0  0  0  0  0  0  0  0  0  0  0  0
   -4.2381    0.4664    0.4716 H   0  0  0  0  0  0  0  0  0  0  0  0
   -4.3442    2.2219    0.7240 H   0  0  0  0  0  0  0  0  0  0  0  0
   -3.8722    1.1642    2.0643 H   0  0  0  0  0  0  0  0  0  0  0  0
   -2.5315    0.8485   -1.4924 H   0  0  0  0  0  0  0  0  0  0  0  0
   -2.9474    2.5473   -1.1920 H   0  0  0  0  0  0  0  0  0  0  0  0
   -1.2532    2.0641   -1.2259 H   0  0  0  0  0  0  0  0  0  0  0  0
    0.6009   -0.9866    2.8843 N   0  0  0  0  0  0  0  0  0  0  0  0
    1.0373   -2.0374    3.8297 C   0  0  2  0  0  0  0  0  0  0  0  0
    2.5318   -2.4285    3.7291 C   0  0  0  0  0  0  0  0  0  0  0  0
    3.2426   -2.3272    4.7212 O   0  0  0  0  0  0  0  0  0  0  0  0
    0.1377   -3.2784    3.7372 C   0  0  0  0  0  0  0  0  0  0  0  0
    0.3738   -0.0792    3.2788 H   0  0  0  0  0  0  0  0  0  0  0  0
    0.9036   -1.6286    4.8365 H   0  0  0  0  0  0  0  0  0  0  0  0
    0.2942   -3.8159    2.7975 H   0  0  0  0  0  0  0  0  0  0  0  0
    0.3615   -3.9640    4.5605 H   0  0  0  0  0  0  0  0  0  0  0  0
   -0.9158   -2.9908    3.8019 H   0  0  0  0  0  0  0  0  0  0  0  0
    3.0807   -2.8875    2.5485 N   0  0  0  0  0  0  0  0  0  0  0  0
    4.4890   -3.2048    2.3672 C   0  0  0  0  0  0  0  0  0  0  0  0
    2.4644   -2.8697    1.7292 H   0  0  0  0  0  0  0  0  0  0  0  0
    4.7956   -3.9964    3.0586 H   0  0  0  0  0  0  0  0  0  0  0  0
    4.6650   -3.5515    1.3442 H   0  0  0  0  0  0  0  0  0  0  0  0
    5.1074   -2.3191    2.5452 H   0  0  0  0  0  0  0  0  0  0  0  0
  1  2  2  0  0  0  0
  1  3  1  0  0  0  0
  1  7  1  0  0  0  0
  3  4  1  0  0  0  0
  3  5  1  0  0  0  0
  3  6  1  0  0  0  0
  7  8  1  0  0  0  0
  7 12  1  0  0  0  0
  8  9  1  0  0  0  0
  8 11  1  0  0  0  0
  8 13  1  0  0  0  0
  9 10  2  0  0  0  0
  9 17  1  0  0  0  0
 11 14  1  0  0  0  0
 11 15  1  0  0  0  0
 11 16  1  0  0  0  0
 17 18  1  0  0  0  0
 17 25  1  0  0  0  0
 18 19  1  0  0  0  0
 18 21  1  0  0  0  0
 18 26  1  0  0  0  0
 19 20  2  0  0  0  0
 19 36  1  0  0  0  0
 21 22  1  0  0  0  0
 21 27  1  0  0  0  0
 21 28  1  0  0  0  0
 22 23  1  0  0  0  0
 22 24  1  0  0  0  0
 22 29  1  0  0  0  0
 23 30  1  0  0  0  0
 23 31  1  0  0  0  0
 23 32  1  0  0  0  0
 24 33  1  0  0  0  0
 24 34  1  0  0  0  0
 24 35  1  0  0  0  0
 36 37  1  0  0  0  0
 36 41  1  0  0  0  0
 37 38  1  0  0  0  0
 37 40  1  0  0  0  0
 37 42  1  0  0  0  0
 38 39  2  0  0  0  0
 38 46  1  0  0  0  0
 40 43  1  0  0  0  0
 40 44  1  0  0  0  0
 40 45  1  0  0  0  0
 46 47  1  0  0  0  0
 46 48  1  0  0  0  0
 47 49  1  0  0  0  0
 47 50  1  0  0  0  0
 47 51  1  0  0  0  0
M  END
$$$$

  -OEChem-05262216553D

 51 50  0     1  0  0  0  0  0999 V2000
    0.7380   -2.7957   -2.1091 C   0  0  0  0  0  0  0  0  0  0  0  0
   -0.3524   -2.2537   -2.2274 O   0  0  0  0  0  0  0  0  0  0  0  0
    0.8096   -4.2252   -1.6080 C   0  0  0  0  0  0  0  0  0  0  0  0
    1.3282   -4.2539   -0.6462 H   0  0  0  0  0  0  0  0  0  0  0  0
   -0.1971   -4.6320   -1.4784 H   0  0  0  0  0  0  0  0  0  0  0  0
    1.3507   -4.8468   -2.3253 H   0  0  0  0  0  0  0  0  0  0  0  0
    1.9137   -2.1093   -2.3515 N   0  0  0  0  0  0  0  0  0  0  0  0
    2.0426   -0.6548   -2.5735 C   0  0  2  0  0  0  0  0  0  0  0  0
    1.6366    0.1684   -1.3329 C   0  0  0  0  0  0  0  0  0  0  0  0
    2.4674    0.8490   -0.7435 O   0  0  0  0  0  0  0  0  0  0  0  0
    1.2952   -0.1956   -3.8339 C   0  0  0  0  0  0  0  0  0  0  0  0
    2.7498   -2.5878   -2.0260 H   0  0  0  0  0  0  0  0  0  0  0  0
    3.1043   -0.4482   -2.7441 H   0  0  0  0  0  0  0  0  0  0  0  0
    0.2113   -0.2644   -3.7075 H   0  0  0  0  0  0  0  0  0  0  0  0
    1.5450    0.8463   -4.0566 H   0  0  0  0  0  0  0  0  0  0  0  0
    1.5851   -0.8119   -4.6903 H   0  0  0  0  0  0  0  0  0  0  0  0
    0.3568    0.0916   -0.8173 N   0  0  0  0  0  0  0  0  0  0  0  0
    0.1115    0.0221    0.6336 C   0  0  2  0  0  0  0  0  0  0  0  0
    1.0210   -0.9800    1.4190 C   0  0  0  0  0  0  0  0  0  0  0  0
    1.8677   -1.6689    0.8570 O   0  0  0  0  0  0  0  0  0  0  0  0
   -1.3902   -0.3083    0.8626 C   0  0  0  0  0  0  0  0  0  0  0  0
   -2.4327    0.7580    0.4303 C   0  0  0  0  0  0  0  0  0  0  0  0
   -3.8331    0.1567    0.6131 C   0  0  0  0  0  0  0  0  0  0  0  0
   -2.3262    1.2489   -1.0218 C   0  0  0  0  0  0  0  0  0  0  0  0
   -0.2230   -0.5457   -1.3702 H   0  0  0  0  0  0  0  0  0  0  0  0
    0.3144    1.0119    1.0544 H   0  0  0  0  0  0  0  0  0  0  0  0
   -1.5637   -0.4912    1.9266 H   0  0  0  0  0  0  0  0  0  0  0  0
   -1.6057   -1.2451    0.3363 H   0  0  0  0  0  0  0  0  0  0  0  0
   -2.3316    1.6273    1.0887 H   0  0  0  0  0  0  0  0  0  0  0  0
   -3.9783   -0.6976   -0.0562 H   0  0  0  0  0  0  0  0  0  0  0  0
   -4.6028    0.9033    0.3941 H   0  0  0  0  0  0  0  0  0  0  0  0
   -3.9733   -0.1820    1.6443 H   0  0  0  0  0  0  0  0  0  0  0  0
   -2.2710    0.4024   -1.7140 H   0  0  0  0  0  0  0  0  0  0  0  0
   -3.1990    1.8537   -1.2869 H   0  0  0  0  0  0  0  0  0  0  0  0
   -1.4421    1.8791   -1.1540 H   0  0  0  0  0  0  0  0  0  0  0  0
    0.6792   -1.3491    2.7134 N   0  0  0  0  0  0  0  0  0  0  0  0
    1.2398   -2.4545    3.5225 C   0  0  2  0  0  0  0  0  0  0  0  0
    2.7313   -2.3146    3.9110 C   0  0  0  0  0  0  0  0  0  0  0  0
    3.0855   -2.6456    5.0349 O   0  0  0  0  0  0  0  0  0  0  0  0
    0.9774   -3.8139    2.8591 C   0  0  0  0  0  0  0  0  0  0  0  0
   -0.0491   -0.7889    3.1461 H   0  0  0  0  0  0  0  0  0  0  0  0
    0.6900   -2.4541    4.4692 H   0  0  0  0  0  0  0  0  0  0  0  0
    1.5993   -3.9481    1.9697 H   0  0  0  0  0  0  0  0  0  0  0  0
    1.2098   -4.6220    3.5598 H   0  0  0  0  0  0  0  0  0  0  0  0
   -0.0736   -3.8993    2.5676 H   0  0  0  0  0  0  0  0  0  0  0  0
    3.6762   -1.8510    3.0176 N   0  0  0  0  0  0  0  0  0  0  0  0
    5.1007   -1.7636    3.3050 C   0  0  0  0  0  0  0  0  0  0  0  0
    3.3439   -1.6658    2.0674 H   0  0  0  0  0  0  0  0  0  0  0  0
    5.5142   -2.7587    3.4984 H   0  0  0  0  0  0  0  0  0  0  0  0
    5.6298   -1.3270    2.4524 H   0  0  0  0  0  0  0  0  0  0  0  0
    5.2768   -1.1309    4.1811 H   0  0  0  0  0  0  0  0  0  0  0  0
  1  2  2  0  0  0  0
  1  3  1  0  0  0  0
  1  7  1  0  0  0  0
  3  4  1  0  0  0  0
  3  5  1  0  0  0  0
  3  6  1  0  0  0  0
  7  8  1  0  0  0  0
  7 12  1  0  0  0  0
  8  9  1  0  0  0  0
  8 11  1  0  0  0  0
  8 13  1  0  0  0  0
  9 10  2  0  0  0  0
  9 17  1  0  0  0  0
 11 14  1  0  0  0  0
 11 15  1  0  0  0  0
 11 16  1  0  0  0  0
 17 18  1  0  0  0  0
 17 25  1  0  0  0  0
 18 19  1  0  0  0  0
 18 21  1  0  0  0  0
 18 26  1  0  0  0  0
 19 20  2  0  0  0  0
 19 36  1  0  0  0  0
 21 22  1  0  0  0  0
 21 27  1  0  0  0  0
 21 28  1  0  0  0  0
 22 23  1  0  0  0  0
 22 24  1  0  0  0  0
 22 29  1  0  0  0  0
 23 30  1  0  0  0  0
 23 31  1  0  0  0  0
 23 32  1  0  0  0  0
 24 33  1  0  0  0  0
 24 34  1  0  0  0  0
 24 35  1  0  0  0  0
 36 37  1  0  0  0  0
 36 41  1  0  0  0  0
 37 38  1  0  0  0  0
 37 40  1  0  0  0  0
 37 42  1  0  0  0  0
 38 39  2  0  0  0  0
 38 46  1  0  0  0  0
 40 43  1  0  0  0  0
 40 44  1  0  0  0  0
 40 45  1  0  0  0  0
 46 47  1  0  0  0  0
 46 48  1  0  0  0  0
 47 49  1  0  0  0  0
 47 50  1  0  0  0  0
 47 51  1  0  0  0  0
M  END
$$$$

  -OEChem-05262216553D

 51 50  0     1  0  0  0  0  0999 V2000
    0.6869   -2.8205   -2.0903 C   0  0  0  0  0  0  0  0  0  0  0  0
   -0.4062   -2.2738   -2.1421 O   0  0  0  0  0  0  0  0  0  0  0  0
    0.7738   -4.2749   -1.6702 C   0  0  0  0  0  0  0  0  0  0  0  0
    1.4355   -4.3745   -0.8064 H   0  0  0  0  0  0  0  0  0  0  0  0
   -0.2169   -4.6503   -1.3995 H   0  0  0  0  0  0  0  0  0  0  0  0
    1.1667   -4.8772   -2.4926 H   0  0  0  0  0  0  0  0  0  0  0  0
    1.8525   -2.1256   -2.3540 N   0  0  0  0  0  0  0  0  0  0  0  0
    1.9736   -0.6699   -2.5689 C   0  0  2  0  0  0  0  0  0  0  0  0
    1.5861    0.1546   -1.3237 C   0  0  0  0  0  0  0  0  0  0  0  0
    2.4129    0.8723   -0.7753 O   0  0  0  0  0  0  0  0  0  0  0  0
    1.2031   -0.2122   -3.8153 C   0  0  0  0  0  0  0  0  0  0  0  0
    2.7065   -2.6173   -2.1036 H   0  0  0  0  0  0  0  0  0  0  0  0
    3.0317   -0.4593   -2.7557 H   0  0  0  0  0  0  0  0  0  0  0  0
    0.1222   -0.2981   -3.6744 H   0  0  0  0  0  0  0  0  0  0  0  0
    1.4351    0.8348   -4.0334 H   0  0  0  0  0  0  0  0  0  0  0  0
    1.4901   -0.8178   -4.6801 H   0  0  0  0  0  0  0  0  0  0  0  0
    0.3106    0.0961   -0.7962 N   0  0  0  0  0  0  0  0  0  0  0  0
    0.0686   -0.0150    0.6534 C   0  0  2  0  0  0  0  0  0  0  0  0
    0.9482   -1.0694    1.4110 C   0  0  0  0  0  0  0  0  0  0  0  0
    1.9708   -1.5446    0.9302 O   0  0  0  0  0  0  0  0  0  0  0  0
   -1.4513   -0.2606    0.8747 C   0  0  0  0  0  0  0  0  0  0  0  0
   -2.4249    0.8859    0.4879 C   0  0  0  0  0  0  0  0  0  0  0  0
   -3.8605    0.3673    0.6513 C   0  0  0  0  0  0  0  0  0  0  0  0
   -2.2893    1.4297   -0.9429 C   0  0  0  0  0  0  0  0  0  0  0  0
   -0.2780   -0.5277   -1.3552 H   0  0  0  0  0  0  0  0  0  0  0  0
    0.3199    0.9511    1.1033 H   0  0  0  0  0  0  0  0  0  0  0  0
   -1.6369   -0.4624    1.9324 H   0  0  0  0  0  0  0  0  0  0  0  0
   -1.7267   -1.1633    0.3175 H   0  0  0  0  0  0  0  0  0  0  0  0
   -2.2688    1.7199    1.1805 H   0  0  0  0  0  0  0  0  0  0  0  0
   -4.0596   -0.4485   -0.0513 H   0  0  0  0  0  0  0  0  0  0  0  0
   -4.5817    1.1694    0.4649 H   0  0  0  0  0  0  0  0  0  0  0  0
   -4.0208   -0.0028    1.6686 H   0  0  0  0  0  0  0  0  0  0  0  0
   -2.2871    0.6113   -1.6700 H   0  0  0  0  0  0  0  0  0  0  0  0
   -3.1232    2.0981   -1.1796 H   0  0  0  0  0  0  0  0  0  0  0  0
   -1.3678    2.0090   -1.0512 H   0  0  0  0  0  0  0  0  0  0  0  0
    0.4562   -1.7061    2.5437 N   0  0  0  0  0  0  0  0  0  0  0  0
    1.0376   -2.8578    3.2694 C   0  0  2  0  0  0  0  0  0  0  0  0
    2.3993   -2.5976    3.9571 C   0  0  0  0  0  0  0  0  0  0  0  0
    2.5948   -3.0490    5.0780 O   0  0  0  0  0  0  0  0  0  0  0  0
    1.1118   -4.1011    2.3722 C   0  0  0  0  0  0  0  0  0  0  0  0
   -0.4054   -1.3215    2.9177 H   0  0  0  0  0  0  0  0  0  0  0  0
    0.3404   -3.0962    4.0793 H   0  0  0  0  0  0  0  0  0  0  0  0
    1.8988   -3.9990    1.6199 H   0  0  0  0  0  0  0  0  0  0  0  0
    1.3351   -4.9851    2.9778 H   0  0  0  0  0  0  0  0  0  0  0  0
    0.1568   -4.2620    1.8629 H   0  0  0  0  0  0  0  0  0  0  0  0
    3.4065   -1.8918    3.3300 N   0  0  0  0  0  0  0  0  0  0  0  0
    4.7362   -1.6933    3.8891 C   0  0  0  0  0  0  0  0  0  0  0  0
    3.2237   -1.6141    2.3614 H   0  0  0  0  0  0  0  0  0  0  0  0
    5.2598   -2.6506    3.9788 H   0  0  0  0  0  0  0  0  0  0  0  0
    5.3219   -1.0352    3.2399 H   0  0  0  0  0  0  0  0  0  0  0  0
    4.6714   -1.2310    4.8796 H   0  0  0  0  0  0  0  0  0  0  0  0
  1  2  2  0  0  0  0
  1  3  1  0  0  0  0
  1  7  1  0  0  0  0
  3  4  1  0  0  0  0
  3  5  1  0  0  0  0
  3  6  1  0  0  0  0
  7  8  1  0  0  0  0
  7 12  1  0  0  0  0
  8  9  1  0  0  0  0
  8 11  1  0  0  0  0
  8 13  1  0  0  0  0
  9 10  2  0  0  0  0
  9 17  1  0  0  0  0
 11 14  1  0  0  0  0
 11 15  1  0  0  0  0
 11 16  1  0  0  0  0
 17 18  1  0  0  0  0
 17 25  1  0  0  0  0
 18 19  1  0  0  0  0
 18 21  1  0  0  0  0
 18 26  1  0  0  0  0
 19 20  2  0  0  0  0
 19 36  1  0  0  0  0
 21 22  1  0  0  0  0
 21 27  1  0  0  0  0
 21 28  1  0  0  0  0
 22 23  1  0  0  0  0
 22 24  1  0  0  0  0
 22 29  1  0  0  0  0
 23 30  1  0  0  0  0
 23 31  1  0  0  0  0
 23 32  1  0  0  0  0
 24 33  1  0  0  0  0
 24 34  1  0  0  0  0
 24 35  1  0  0  0  0
 36 37  1  0  0  0  0
 36 41  1  0  0  0  0
 37 38  1  0  0  0  0
 37 40  1  0  0  0  0
 37 42  1  0  0  0  0
 38 39  2  0  0  0  0
 38 46  1  0  0  0  0
 40 43  1  0  0  0  0
 40 44  1  0  0  0  0
 40 45  1  0  0  0  0
 46 47  1  0  0  0  0
 46 48  1  0  0  0  0
 47 49  1  0  0  0  0
 47 50  1  0  0  0  0
 47 51  1  0  0  0  0
M  END
$$$$

  -OEChem-05262216553D

 51 50  0     1  0  0  0  0  0999 V2000
    0.8053   -2.8200   -2.1755 C   0  0  0  0  0  0  0  0  0  0  0  0
   -0.3054   -2.3119   -2.1132 O   0  0  0  0  0  0  0  0  0  0  0  0
    0.9601   -4.3110   -1.9441 C   0  0  0  0  0  0  0  0  0  0  0  0
    1.7229   -4.4944   -1.1834 H   0  0  0  0  0  0  0  0  0  0  0  0
    0.0140   -4.7423   -1.6047 H   0  0  0  0  0  0  0  0  0  0  0  0
    1.2584   -4.8023   -2.8735 H   0  0  0  0  0  0  0  0  0  0  0  0
    1.9312   -2.0573   -2.4230 N   0  0  0  0  0  0  0  0  0  0  0  0
    1.9881   -0.5884   -2.5574 C   0  0  2  0  0  0  0  0  0  0  0  0
    1.5844    0.1586   -1.2689 C   0  0  0  0  0  0  0  0  0  0  0  0
    2.3872    0.8910   -0.7068 O   0  0  0  0  0  0  0  0  0  0  0  0
    1.1777   -0.1065   -3.7694 C   0  0  0  0  0  0  0  0  0  0  0  0
    2.8183   -2.5427   -2.3176 H   0  0  0  0  0  0  0  0  0  0  0  0
    3.0330   -0.3213   -2.7464 H   0  0  0  0  0  0  0  0  0  0  0  0
    0.1059   -0.2705   -3.6272 H   0  0  0  0  0  0  0  0  0  0  0  0
    1.3403    0.9646   -3.9254 H   0  0  0  0  0  0  0  0  0  0  0  0
    1.4936   -0.6392   -4.6713 H   0  0  0  0  0  0  0  0  0  0  0  0
    0.2963    0.0898   -0.7762 N   0  0  0  0  0  0  0  0  0  0  0  0
    0.0064   -0.0947    0.6567 C   0  0  2  0  0  0  0  0  0  0  0  0
    0.8503   -1.2018    1.3753 C   0  0  0  0  0  0  0  0  0  0  0  0
    2.0340   -1.3953    1.1333 O   0  0  0  0  0  0  0  0  0  0  0  0
   -1.5233   -0.2926    0.8432 C   0  0  0  0  0  0  0  0  0  0  0  0
   -2.4416    0.9134    0.5071 C   0  0  0  0  0  0  0  0  0  0  0  0
   -3.8998    0.4482    0.6203 C   0  0  0  0  0  0  0  0  0  0  0  0
   -2.2574    1.5256   -0.8903 C   0  0  0  0  0  0  0  0  0  0  0  0
   -0.2739   -0.5117   -1.3762 H   0  0  0  0  0  0  0  0  0  0  0  0
    0.2765    0.8380    1.1632 H   0  0  0  0  0  0  0  0  0  0  0  0
   -1.7261   -0.5359    1.8901 H   0  0  0  0  0  0  0  0  0  0  0  0
   -1.8275   -1.1532    0.2361 H   0  0  0  0  0  0  0  0  0  0  0  0
   -2.2624    1.7018    1.2462 H   0  0  0  0  0  0  0  0  0  0  0  0
   -4.1216   -0.3178   -0.1299 H   0  0  0  0  0  0  0  0  0  0  0  0
   -4.5835    1.2897    0.4697 H   0  0  0  0  0  0  0  0  0  0  0  0
   -4.0920    0.0290    1.6129 H   0  0  0  0  0  0  0  0  0  0  0  0
   -2.2724    0.7472   -1.6598 H   0  0  0  0  0  0  0  0  0  0  0  0
   -3.0599    2.2380   -1.1058 H   0  0  0  0  0  0  0  0  0  0  0  0
   -1.3119    2.0724   -0.9518 H   0  0  0  0  0  0  0  0  0  0  0  0
    0.2373   -2.1063    2.2337 N   0  0  0  0  0  0  0  0  0  0  0  0
    0.8460   -3.2629    2.9275 C   0  0  2  0  0  0  0  0  0  0  0  0
    1.9146   -2.9085    3.9889 C   0  0  0  0  0  0  0  0  0  0  0  0
    1.8195   -3.3845    5.1127 O   0  0  0  0  0  0  0  0  0  0  0  0
    1.3879   -4.2934    1.9275 C   0  0  0  0  0  0  0  0  0  0  0  0
   -0.7511   -1.9457    2.3987 H   0  0  0  0  0  0  0  0  0  0  0  0
    0.0373   -3.7559    3.4771 H   0  0  0  0  0  0  0  0  0  0  0  0
    2.2742   -3.9170    1.4090 H   0  0  0  0  0  0  0  0  0  0  0  0
    1.6673   -5.2120    2.4530 H   0  0  0  0  0  0  0  0  0  0  0  0
    0.6233   -4.5380    1.1846 H   0  0  0  0  0  0  0  0  0  0  0  0
    2.9763   -2.0763    3.6968 N   0  0  0  0  0  0  0  0  0  0  0  0
    3.9997   -1.6845    4.6551 C   0  0  0  0  0  0  0  0  0  0  0  0
    2.9944   -1.6824    2.7513 H   0  0  0  0  0  0  0  0  0  0  0  0
    4.7538   -1.0608    4.1654 H   0  0  0  0  0  0  0  0  0  0  0  0
    3.5562   -1.1123    5.4765 H   0  0  0  0  0  0  0  0  0  0  0  0
    4.4974   -2.5682    5.0677 H   0  0  0  0  0  0  0  0  0  0  0  0
  1  2  2  0  0  0  0
  1  3  1  0  0  0  0
  1  7  1  0  0  0  0
  3  4  1  0  0  0  0
  3  5  1  0  0  0  0
  3  6  1  0  0  0  0
  7  8  1  0  0  0  0
  7 12  1  0  0  0  0
  8  9  1  0  0  0  0
  8 11  1  0  0  0  0
  8 13  1  0  0  0  0
  9 10  2  0  0  0  0
  9 17  1  0  0  0  0
 11 14  1  0  0  0  0
 11 15  1  0  0  0  0
 11 16  1  0  0  0  0
 17 18  1  0  0  0  0
 17 25  1  0  0  0  0
 18 19  1  0  0  0  0
 18 21  1  0  0  0  0
 18 26  1  0  0  0  0
 19 20  2  0  0  0  0
 19 36  1  0  0  0  0
 21 22  1  0  0  0  0
 21 27  1  0  0  0  0
 21 28  1  0  0  0  0
 22 23  1  0  0  0  0
 22 24  1  0  0  0  0
 22 29  1  0  0  0  0
 23 30  1  0  0  0  0
 23 31  1  0  0  0  0
 23 32  1  0  0  0  0
 24 33  1  0  0  0  0
 24 34  1  0  0  0  0
 24 35  1  0  0  0  0
 36 37  1  0  0  0  0
 36 41  1  0  0  0  0
 37 38  1  0  0  0  0
 37 40  1  0  0  0  0
 37 42  1  0  0  0  0
 38 39  2  0  0  0  0
 38 46  1  0  0  0  0
 40 43  1  0  0  0  0
 40 44  1  0  0  0  0
 40 45  1  0  0  0  0
 46 47  1  0  0  0  0
 46 48  1  0  0  0  0
 47 49  1  0  0  0  0
 47 50  1  0  0  0  0
 47 51  1  0  0  0  0
M  END
$$$$

  -OEChem-05262216553D

 51 50  0     1  0  0  0  0  0999 V2000
    0.8185   -2.7796   -2.3595 C   0  0  0  0  0  0  0  0  0  0  0  0
   -0.2792   -2.2673   -2.1948 O   0  0  0  0  0  0  0  0  0  0  0  0
    0.9481   -4.2908   -2.3406 C   0  0  0  0  0  0  0  0  0  0  0  0
    1.7970   -4.5882   -1.7201 H   0  0  0  0  0  0  0  0  0  0  0  0
    0.0395   -4.7427   -1.9328 H   0  0  0  0  0  0  0  0  0  0  0  0
    1.1022   -4.6630   -3.3565 H   0  0  0  0  0  0  0  0  0  0  0  0
    1.9500   -2.0062   -2.5393 N   0  0  0  0  0  0  0  0  0  0  0  0
    2.0214   -0.5312   -2.5596 C   0  0  2  0  0  0  0  0  0  0  0  0
    1.6233    0.1339   -1.2240 C   0  0  0  0  0  0  0  0  0  0  0  0
    2.4309    0.8329   -0.6305 O   0  0  0  0  0  0  0  0  0  0  0  0
    1.2154    0.0413   -3.7345 C   0  0  0  0  0  0  0  0  0  0  0  0
    2.8310   -2.5124   -2.5744 H   0  0  0  0  0  0  0  0  0  0  0  0
    3.0692   -0.2607   -2.7290 H   0  0  0  0  0  0  0  0  0  0  0  0
    0.1431   -0.1333   -3.6080 H   0  0  0  0  0  0  0  0  0  0  0  0
    1.3789    1.1212   -3.8085 H   0  0  0  0  0  0  0  0  0  0  0  0
    1.5340   -0.4219   -4.6731 H   0  0  0  0  0  0  0  0  0  0  0  0
    0.3269    0.0612   -0.7532 N   0  0  0  0  0  0  0  0  0  0  0  0
    0.0002   -0.1429    0.6681 C   0  0  2  0  0  0  0  0  0  0  0  0
    0.8315   -1.2618    1.3688 C   0  0  0  0  0  0  0  0  0  0  0  0
    2.0492   -1.2121    1.4568 O   0  0  0  0  0  0  0  0  0  0  0  0
   -1.5285   -0.3510    0.8371 C   0  0  0  0  0  0  0  0  0  0  0  0
   -2.4481    0.8539    0.5060 C   0  0  0  0  0  0  0  0  0  0  0  0
   -3.9068    0.3853    0.5977 C   0  0  0  0  0  0  0  0  0  0  0  0
   -2.2465    1.4821   -0.8813 C   0  0  0  0  0  0  0  0  0  0  0  0
   -0.2449   -0.5084   -1.3818 H   0  0  0  0  0  0  0  0  0  0  0  0
    0.2617    0.7800    1.1969 H   0  0  0  0  0  0  0  0  0  0  0  0
   -1.7309   -0.6163    1.8799 H   0  0  0  0  0  0  0  0  0  0  0  0
   -1.8245   -1.2017    0.2129 H   0  0  0  0  0  0  0  0  0  0  0  0
   -2.2795    1.6331    1.2572 H   0  0  0  0  0  0  0  0  0  0  0  0
   -4.1213   -0.3677   -0.1677 H   0  0  0  0  0  0  0  0  0  0  0  0
   -4.5898    1.2287    0.4551 H   0  0  0  0  0  0  0  0  0  0  0  0
   -4.1082   -0.0507    1.5811 H   0  0  0  0  0  0  0  0  0  0  0  0
   -2.2523    0.7128   -1.6602 H   0  0  0  0  0  0  0  0  0  0  0  0
   -3.0460    2.1977   -1.0975 H   0  0  0  0  0  0  0  0  0  0  0  0
   -1.3002    2.0290   -0.9241 H   0  0  0  0  0  0  0  0  0  0  0  0
    0.1914   -2.3597    1.9296 N   0  0  0  0  0  0  0  0  0  0  0  0
    0.8073   -3.5220    2.6049 C   0  0  2  0  0  0  0  0  0  0  0  0
    1.5203   -3.2091    3.9421 C   0  0  0  0  0  0  0  0  0  0  0  0
    1.2218   -3.8519    4.9404 O   0  0  0  0  0  0  0  0  0  0  0  0
    1.7352   -4.2880    1.6528 C   0  0  0  0  0  0  0  0  0  0  0  0
   -0.8186   -2.3720    1.8237 H   0  0  0  0  0  0  0  0  0  0  0  0
   -0.0108   -4.2030    2.8610 H   0  0  0  0  0  0  0  0  0  0  0  0
    2.6236   -3.7008    1.4032 H   0  0  0  0  0  0  0  0  0  0  0  0
    2.0647   -5.2203    2.1221 H   0  0  0  0  0  0  0  0  0  0  0  0
    1.2061   -4.5342    0.7284 H   0  0  0  0  0  0  0  0  0  0  0  0
    2.4897   -2.2312    4.0357 N   0  0  0  0  0  0  0  0  0  0  0  0
    3.1710   -1.8662    5.2697 C   0  0  0  0  0  0  0  0  0  0  0  0
    2.6723   -1.6947    3.1819 H   0  0  0  0  0  0  0  0  0  0  0  0
    3.9217   -1.0954    5.0703 H   0  0  0  0  0  0  0  0  0  0  0  0
    2.4559   -1.4741    6.0001 H   0  0  0  0  0  0  0  0  0  0  0  0
    3.6761   -2.7366    5.7010 H   0  0  0  0  0  0  0  0  0  0  0  0
  1  2  2  0  0  0  0
  1  3  1  0  0  0  0
  1  7  1  0  0  0  0
  3  4  1  0  0  0  0
  3  5  1  0  0  0  0
  3  6  1  0  0  0  0
  7  8  1  0  0  0  0
  7 12  1  0  0  0  0
  8  9  1  0  0  0  0
  8 11  1  0  0  0  0
  8 13  1  0  0  0  0
  9 10  2  0  0  0  0
  9 17  1  0  0  0  0
 11 14  1  0  0  0  0
 11 15  1  0  0  0  0
 11 16  1  0  0  0  0
 17 18  1  0  0  0  0
 17 25  1  0  0  0  0
 18 19  1  0  0  0  0
 18 21  1  0  0  0  0
 18 26  1  0  0  0  0
 19 20  2  0  0  0  0
 19 36  1  0  0  0  0
 21 22  1  0  0  0  0
 21 27  1  0  0  0  0
 21 28  1  0  0  0  0
 22 23  1  0  0  0  0
 22 24  1  0  0  0  0
 22 29  1  0  0  0  0
 23 30  1  0  0  0  0
 23 31  1  0  0  0  0
 23 32  1  0  0  0  0
 24 33  1  0  0  0  0
 24 34  1  0  0  0  0
 24 35  1  0  0  0  0
 36 37  1  0  0  0  0
 36 41  1  0  0  0  0
 37 38  1  0  0  0  0
 37 40  1  0  0  0  0
 37 42  1  0  0  0  0
 38 39  2  0  0  0  0
 38 46  1  0  0  0  0
 40 43  1  0  0  0  0
 40 44  1  0  0  0  0
 40 45  1  0  0  0  0
 46 47  1  0  0  0  0
 46 48  1  0  0  0  0
 47 49  1  0  0  0  0
 47 50  1  0  0  0  0
 47 51  1  0  0  0  0
M  END
$$$$

  -OEChem-05262216553D

 51 50  0     1  0  0  0  0  0999 V2000
    0.9017   -2.7524   -2.5222 C   0  0  0  0  0  0  0  0  0  0  0  0
   -0.1950   -2.3104   -2.2099 O   0  0  0  0  0  0  0  0  0  0  0  0
    1.1017   -4.2529   -2.6241 C   0  0  0  0  0  0  0  0  0  0  0  0
    1.9697   -4.5578   -2.0347 H   0  0  0  0  0  0  0  0  0  0  0  0
    0.2199   -4.7787   -2.2472 H   0  0  0  0  0  0  0  0  0  0  0  0
    1.2621   -4.5371   -3.6672 H   0  0  0  0  0  0  0  0  0  0  0  0
    1.9714   -1.9093   -2.7614 N   0  0  0  0  0  0  0  0  0  0  0  0
    1.9686   -0.4342   -2.6863 C   0  0  2  0  0  0  0  0  0  0  0  0
    1.6462    0.1143   -1.2789 C   0  0  0  0  0  0  0  0  0  0  0  0
    2.5269    0.6479   -0.6246 O   0  0  0  0  0  0  0  0  0  0  0  0
    1.0415    0.1618   -3.7564 C   0  0  0  0  0  0  0  0  0  0  0  0
    2.8635   -2.3634   -2.9393 H   0  0  0  0  0  0  0  0  0  0  0  0
    2.9836   -0.0928   -2.9164 H   0  0  0  0  0  0  0  0  0  0  0  0
   -0.0050   -0.0979   -3.5718 H   0  0  0  0  0  0  0  0  0  0  0  0
    1.1273    1.2530   -3.7608 H   0  0  0  0  0  0  0  0  0  0  0  0
    1.3203   -0.2104   -4.7468 H   0  0  0  0  0  0  0  0  0  0  0  0
    0.3625    0.0314   -0.7767 N   0  0  0  0  0  0  0  0  0  0  0  0
    0.0525   -0.1896    0.6444 C   0  0  2  0  0  0  0  0  0  0  0  0
    0.9043   -1.3124    1.2996 C   0  0  0  0  0  0  0  0  0  0  0  0
    2.0076   -1.0790    1.7709 O   0  0  0  0  0  0  0  0  0  0  0  0
   -1.4663   -0.4224    0.8494 C   0  0  0  0  0  0  0  0  0  0  0  0
   -2.4102    0.7712    0.5500 C   0  0  0  0  0  0  0  0  0  0  0  0
   -3.8593    0.2810    0.6739 C   0  0  0  0  0  0  0  0  0  0  0  0
   -2.2503    1.4069   -0.8390 C   0  0  0  0  0  0  0  0  0  0  0  0
   -0.2397   -0.4946   -1.4139 H   0  0  0  0  0  0  0  0  0  0  0  0
    0.3160    0.7278    1.1822 H   0  0  0  0  0  0  0  0  0  0  0  0
   -1.6325   -0.7126    1.8929 H   0  0  0  0  0  0  0  0  0  0  0  0
   -1.7673   -1.2659    0.2186 H   0  0  0  0  0  0  0  0  0  0  0  0
   -2.2338    1.5487    1.3012 H   0  0  0  0  0  0  0  0  0  0  0  0
   -4.0796   -0.4764   -0.0855 H   0  0  0  0  0  0  0  0  0  0  0  0
   -4.5580    1.1138    0.5460 H   0  0  0  0  0  0  0  0  0  0  0  0
   -4.0313   -0.1570    1.6622 H   0  0  0  0  0  0  0  0  0  0  0  0
   -2.2704    0.6403   -1.6200 H   0  0  0  0  0  0  0  0  0  0  0  0
   -3.0613    2.1164   -1.0307 H   0  0  0  0  0  0  0  0  0  0  0  0
   -1.3104    1.9620   -0.9045 H   0  0  0  0  0  0  0  0  0  0  0  0
    0.3295   -2.5492    1.5585 N   0  0  0  0  0  0  0  0  0  0  0  0
    0.9482   -3.7102    2.2320 C   0  0  2  0  0  0  0  0  0  0  0  0
    1.1904   -3.5303    3.7483 C   0  0  0  0  0  0  0  0  0  0  0  0
    0.7978   -4.3935    4.5228 O   0  0  0  0  0  0  0  0  0  0  0  0
    2.2365   -4.1471    1.5213 C   0  0  0  0  0  0  0  0  0  0  0  0
   -0.6013   -2.6798    1.1724 H   0  0  0  0  0  0  0  0  0  0  0  0
    0.2395   -4.5396    2.1396 H   0  0  0  0  0  0  0  0  0  0  0  0
    3.0392   -3.4189    1.6704 H   0  0  0  0  0  0  0  0  0  0  0  0
    2.5735   -5.1099    1.9180 H   0  0  0  0  0  0  0  0  0  0  0  0
    2.0596   -4.2564    0.4482 H   0  0  0  0  0  0  0  0  0  0  0  0
    1.8400   -2.4196    4.2469 N   0  0  0  0  0  0  0  0  0  0  0  0
    2.0988   -2.1856    5.6602 C   0  0  0  0  0  0  0  0  0  0  0  0
    2.1524   -1.7318    3.5544 H   0  0  0  0  0  0  0  0  0  0  0  0
    2.7114   -2.9921    6.0761 H   0  0  0  0  0  0  0  0  0  0  0  0
    2.6337   -1.2403    5.7932 H   0  0  0  0  0  0  0  0  0  0  0  0
    1.1581   -2.1327    6.2177 H   0  0  0  0  0  0  0  0  0  0  0  0
  1  2  2  0  0  0  0
  1  3  1  0  0  0  0
  1  7  1  0  0  0  0
  3  4  1  0  0  0  0
  3  5  1  0  0  0  0
  3  6  1  0  0  0  0
  7  8  1  0  0  0  0
  7 12  1  0  0  0  0
  8  9  1  0  0  0  0
  8 11  1  0  0  0  0
  8 13  1  0  0  0  0
  9 10  2  0  0  0  0
  9 17  1  0  0  0  0
 11 14  1  0  0  0  0
 11 15  1  0  0  0  0
 11 16  1  0  0  0  0
 17 18  1  0  0  0  0
 17 25  1  0  0  0  0
 18 19  1  0  0  0  0
 18 21  1  0  0  0  0
 18 26  1  0  0  0  0
 19 20  2  0  0  0  0
 19 36  1  0  0  0  0
 21 22  1  0  0  0  0
 21 27  1  0  0  0  0
 21 28  1  0  0  0  0
 22 23  1  0  0  0  0
 22 24  1  0  0  0  0
 22 29  1  0  0  0  0
 23 30  1  0  0  0  0
 23 31  1  0  0  0  0
 23 32  1  0  0  0  0
 24 33  1  0  0  0  0
 24 34  1  0  0  0  0
 24 35  1  0  0  0  0
 36 37  1  0  0  0  0
 36 41  1  0  0  0  0
 37 38  1  0  0  0  0
 37 40  1  0  0  0  0
 37 42  1  0  0  0  0
 38 39  2  0  0  0  0
 38 46  1  0  0  0  0
 40 43  1  0  0  0  0
 40 44  1  0  0  0  0
 40 45  1  0  0  0  0
 46 47  1  0  0  0  0
 46 48  1  0  0  0  0
 47 49  1  0  0  0  0
 47 50  1  0  0  0  0
 47 51  1  0  0  0  0
M  END
$$$$

  -OEChem-05262216553D

 51 50  0     1  0  0  0  0  0999 V2000
    1.0337   -2.8047   -2.4529 C   0  0  0  0  0  0  0  0  0  0  0  0
   -0.0491   -2.4291   -2.0239 O   0  0  0  0  0  0  0  0  0  0  0  0
    1.3205   -4.2916   -2.5467 C   0  0  0  0  0  0  0  0  0  0  0  0
    2.2817   -4.5202   -2.0801 H   0  0  0  0  0  0  0  0  0  0  0  0
    0.5390   -4.8609   -2.0352 H   0  0  0  0  0  0  0  0  0  0  0  0
    1.3517   -4.5995   -3.5946 H   0  0  0  0  0  0  0  0  0  0  0  0
    2.0115   -1.9008   -2.8289 N   0  0  0  0  0  0  0  0  0  0  0  0
    1.9201   -0.4273   -2.7743 C   0  0  2  0  0  0  0  0  0  0  0  0
    1.6634    0.1202   -1.3525 C   0  0  0  0  0  0  0  0  0  0  0  0
    2.6020    0.5127   -0.6791 O   0  0  0  0  0  0  0  0  0  0  0  0
    0.8816    0.0792   -3.7869 C   0  0  0  0  0  0  0  0  0  0  0  0
    2.9075   -2.3010   -3.0944 H   0  0  0  0  0  0  0  0  0  0  0  0
    2.8911   -0.0226   -3.0794 H   0  0  0  0  0  0  0  0  0  0  0  0
   -0.1232   -0.2790   -3.5451 H   0  0  0  0  0  0  0  0  0  0  0  0
    0.8644    1.1736   -3.7924 H   0  0  0  0  0  0  0  0  0  0  0  0
    1.1371   -0.2667   -4.7930 H   0  0  0  0  0  0  0  0  0  0  0  0
    0.3908    0.0700   -0.8191 N   0  0  0  0  0  0  0  0  0  0  0  0
    0.1139   -0.1424    0.6088 C   0  0  2  0  0  0  0  0  0  0  0  0
    0.9662   -1.2836    1.2191 C   0  0  0  0  0  0  0  0  0  0  0  0
    1.8881   -1.0243    1.9804 O   0  0  0  0  0  0  0  0  0  0  0  0
   -1.3948   -0.3727    0.8705 C   0  0  0  0  0  0  0  0  0  0  0  0
   -2.3472    0.8194    0.5973 C   0  0  0  0  0  0  0  0  0  0  0  0
   -3.7909    0.3317    0.7773 C   0  0  0  0  0  0  0  0  0  0  0  0
   -2.2334    1.4448   -0.8009 C   0  0  0  0  0  0  0  0  0  0  0  0
   -0.2464   -0.4290   -1.4412 H   0  0  0  0  0  0  0  0  0  0  0  0
    0.4042    0.7706    1.1407 H   0  0  0  0  0  0  0  0  0  0  0  0
   -1.5189   -0.6629    1.9199 H   0  0  0  0  0  0  0  0  0  0  0  0
   -1.7207   -1.2189    0.2562 H   0  0  0  0  0  0  0  0  0  0  0  0
   -2.1435    1.6013    1.3369 H   0  0  0  0  0  0  0  0  0  0  0  0
   -4.0420   -0.4261    0.0280 H   0  0  0  0  0  0  0  0  0  0  0  0
   -4.4922    1.1658    0.6764 H   0  0  0  0  0  0  0  0  0  0  0  0
   -3.9248   -0.1051    1.7721 H   0  0  0  0  0  0  0  0  0  0  0  0
   -2.2732    0.6725   -1.5755 H   0  0  0  0  0  0  0  0  0  0  0  0
   -3.0541    2.1483   -0.9728 H   0  0  0  0  0  0  0  0  0  0  0  0
   -1.2988    2.0041   -0.8989 H   0  0  0  0  0  0  0  0  0  0  0  0
    0.4727   -2.5797    1.1894 N   0  0  0  0  0  0  0  0  0  0  0  0
    1.0597   -3.7816    1.8168 C   0  0  2  0  0  0  0  0  0  0  0  0
    0.9448   -3.8322    3.3574 C   0  0  0  0  0  0  0  0  0  0  0  0
    0.5812   -4.8694    3.8974 O   0  0  0  0  0  0  0  0  0  0  0  0
    2.5156   -3.9897    1.3760 C   0  0  0  0  0  0  0  0  0  0  0  0
   -0.2833   -2.7259    0.5231 H   0  0  0  0  0  0  0  0  0  0  0  0
    0.4887   -4.6385    1.4458 H   0  0  0  0  0  0  0  0  0  0  0  0
    3.1750   -3.2369    1.8187 H   0  0  0  0  0  0  0  0  0  0  0  0
    2.8651   -4.9767    1.6947 H   0  0  0  0  0  0  0  0  0  0  0  0
    2.5983   -3.9265    0.2880 H   0  0  0  0  0  0  0  0  0  0  0  0
    1.2575   -2.7372    4.1368 N   0  0  0  0  0  0  0  0  0  0  0  0
    1.2328   -2.7333    5.5920 C   0  0  0  0  0  0  0  0  0  0  0  0
    1.6217   -1.9211    3.6361 H   0  0  0  0  0  0  0  0  0  0  0  0
    1.4887   -1.7385    5.9694 H   0  0  0  0  0  0  0  0  0  0  0  0
    0.2350   -2.9958    5.9585 H   0  0  0  0  0  0  0  0  0  0  0  0
    1.9565   -3.4528    5.9888 H   0  0  0  0  0  0  0  0  0  0  0  0
  1  2  2  0  0  0  0
  1  3  1  0  0  0  0
  1  7  1  0  0  0  0
  3  4  1  0  0  0  0
  3  5  1  0  0  0  0
  3  6  1  0  0  0  0
  7  8  1  0  0  0  0
  7 12  1  0  0  0  0
  8  9  1  0  0  0  0
  8 11  1  0  0  0  0
  8 13  1  0  0  0  0
  9 10  2  0  0  0  0
  9 17  1  0  0  0  0
 11 14  1  0  0  0  0
 11 15  1  0  0  0  0
 11 16  1  0  0  0  0
 17 18  1  0  0  0  0
 17 25  1  0  0  0  0
 18 19  1  0  0  0  0
 18 21  1  0  0  0  0
 18 26  1  0  0  0  0
 19 20  2  0  0  0  0
 19 36  1  0  0  0  0
 21 22  1  0  0  0  0
 21 27  1  0  0  0  0
 21 28  1  0  0  0  0
 22 23  1  0  0  0  0
 22 24  1  0  0  0  0
 22 29  1  0  0  0  0
 23 30  1  0  0  0  0
 23 31  1  0  0  0  0
 23 32  1  0  0  0  0
 24 33  1  0  0  0  0
 24 34  1  0  0  0  0
 24 35  1  0  0  0  0
 36 37  1  0  0  0  0
 36 41  1  0  0  0  0
 37 38  1  0  0  0  0
 37 40  1  0  0  0  0
 37 42  1  0  0  0  0
 38 39  2  0  0  0  0
 38 46  1  0  0  0  0
 40 43  1  0  0  0  0
 40 44  1  0  0  0  0
 40 45  1  0  0  0  0
 46 47  1  0  0  0  0
 46 48  1  0  0  0  0
 47 49  1  0  0  0  0
 47 50  1  0  0  0  0
 47 51  1  0  0  0  0
M  END
$$$$

  -OEChem-05262216553D

 51 50  0     1  0  0  0  0  0999 V2000
    1.1634   -2.8297   -2.4781 C   0  0  0  0  0  0  0  0  0  0  0  0
    0.0888   -2.5300   -1.9736 O   0  0  0  0  0  0  0  0  0  0  0  0
    1.5508   -4.2921   -2.5908 C   0  0  0  0  0  0  0  0  0  0  0  0
    2.4998   -4.4703   -2.0790 H   0  0  0  0  0  0  0  0  0  0  0  0
    0.7829   -4.9242   -2.1355 H   0  0  0  0  0  0  0  0  0  0  0  0
    1.6555   -4.5696   -3.6426 H   0  0  0  0  0  0  0  0  0  0  0  0
    2.0498   -1.8582   -2.9070 N   0  0  0  0  0  0  0  0  0  0  0  0
    1.8580   -0.3969   -2.8181 C   0  0  2  0  0  0  0  0  0  0  0  0
    1.6235    0.1011   -1.3740 C   0  0  0  0  0  0  0  0  0  0  0  0
    2.5802    0.4220   -0.6875 O   0  0  0  0  0  0  0  0  0  0  0  0
    0.7465    0.0498   -3.7807 C   0  0  0  0  0  0  0  0  0  0  0  0
    2.9558   -2.1916   -3.2262 H   0  0  0  0  0  0  0  0  0  0  0  0
    2.7844    0.0827   -3.1514 H   0  0  0  0  0  0  0  0  0  0  0  0
   -0.2153   -0.4013   -3.5205 H   0  0  0  0  0  0  0  0  0  0  0  0
    0.6358    1.1385   -3.7500 H   0  0  0  0  0  0  0  0  0  0  0  0
    0.9960   -0.2424   -4.8054 H   0  0  0  0  0  0  0  0  0  0  0  0
    0.3553    0.0558   -0.8276 N   0  0  0  0  0  0  0  0  0  0  0  0
    0.0878   -0.1140    0.6087 C   0  0  2  0  0  0  0  0  0  0  0  0
    0.9550   -1.2256    1.2439 C   0  0  0  0  0  0  0  0  0  0  0  0
    1.6803   -0.9667    2.1956 O   0  0  0  0  0  0  0  0  0  0  0  0
   -1.4104   -0.3780    0.8912 C   0  0  0  0  0  0  0  0  0  0  0  0
   -2.3993    0.7752    0.5836 C   0  0  0  0  0  0  0  0  0  0  0  0
   -3.8270    0.2524    0.7933 C   0  0  0  0  0  0  0  0  0  0  0  0
   -2.3125    1.3525   -0.8373 C   0  0  0  0  0  0  0  0  0  0  0  0
   -0.3028   -0.4242   -1.4406 H   0  0  0  0  0  0  0  0  0  0  0  0
    0.3641    0.8194    1.1118 H   0  0  0  0  0  0  0  0  0  0  0  0
   -1.5163   -0.6343    1.9514 H   0  0  0  0  0  0  0  0  0  0  0  0
   -1.7155   -1.2569    0.3133 H   0  0  0  0  0  0  0  0  0  0  0  0
   -2.2131    1.5891    1.2928 H   0  0  0  0  0  0  0  0  0  0  0  0
   -4.0571   -0.5458    0.0802 H   0  0  0  0  0  0  0  0  0  0  0  0
   -4.5546    1.0589    0.6586 H   0  0  0  0  0  0  0  0  0  0  0  0
   -3.9436   -0.1436    1.8072 H   0  0  0  0  0  0  0  0  0  0  0  0
   -2.3379    0.5520   -1.5831 H   0  0  0  0  0  0  0  0  0  0  0  0
   -3.1527    2.0277   -1.0275 H   0  0  0  0  0  0  0  0  0  0  0  0
   -1.3937    1.9323   -0.9635 H   0  0  0  0  0  0  0  0  0  0  0  0
    0.6298   -2.5469    0.9784 N   0  0  0  0  0  0  0  0  0  0  0  0
    1.2762   -3.7542    1.5302 C   0  0  2  0  0  0  0  0  0  0  0  0
    0.9546   -4.0494    3.0129 C   0  0  0  0  0  0  0  0  0  0  0  0
    0.6809   -5.1948    3.3490 O   0  0  0  0  0  0  0  0  0  0  0  0
    2.7930   -3.7242    1.2963 C   0  0  0  0  0  0  0  0  0  0  0  0
    0.0552   -2.6711    0.1429 H   0  0  0  0  0  0  0  0  0  0  0  0
    0.8820   -4.6048    0.9652 H   0  0  0  0  0  0  0  0  0  0  0  0
    3.2763   -2.9749    1.9306 H   0  0  0  0  0  0  0  0  0  0  0  0
    3.2270   -4.7006    1.5329 H   0  0  0  0  0  0  0  0  0  0  0  0
    3.0144   -3.4885    0.2518 H   0  0  0  0  0  0  0  0  0  0  0  0
    0.9846   -3.0542    3.9685 N   0  0  0  0  0  0  0  0  0  0  0  0
    0.7497   -3.2746    5.3879 C   0  0  0  0  0  0  0  0  0  0  0  0
    1.2921   -2.1324    3.6444 H   0  0  0  0  0  0  0  0  0  0  0  0
    1.5066   -3.9491    5.8012 H   0  0  0  0  0  0  0  0  0  0  0  0
    0.7978   -2.3247    5.9289 H   0  0  0  0  0  0  0  0  0  0  0  0
   -0.2405   -3.7137    5.5480 H   0  0  0  0  0  0  0  0  0  0  0  0
  1  2  2  0  0  0  0
  1  3  1  0  0  0  0
  1  7  1  0  0  0  0
  3  4  1  0  0  0  0
  3  5  1  0  0  0  0
  3  6  1  0  0  0  0
  7  8  1  0  0  0  0
  7 12  1  0  0  0  0
  8  9  1  0  0  0  0
  8 11  1  0  0  0  0
  8 13  1  0  0  0  0
  9 10  2  0  0  0  0
  9 17  1  0  0  0  0
 11 14  1  0  0  0  0
 11 15  1  0  0  0  0
 11 16  1  0  0  0  0
 17 18  1  0  0  0  0
 17 25  1  0  0  0  0
 18 19  1  0  0  0  0
 18 21  1  0  0  0  0
 18 26  1  0  0  0  0
 19 20  2  0  0  0  0
 19 36  1  0  0  0  0
 21 22  1  0  0  0  0
 21 27  1  0  0  0  0
 21 28  1  0  0  0  0
 22 23  1  0  0  0  0
 22 24  1  0  0  0  0
 22 29  1  0  0  0  0
 23 30  1  0  0  0  0
 23 31  1  0  0  0  0
 23 32  1  0  0  0  0
 24 33  1  0  0  0  0
 24 34  1  0  0  0  0
 24 35  1  0  0  0  0
 36 37  1  0  0  0  0
 36 41  1  0  0  0  0
 37 38  1  0  0  0  0
 37 40  1  0  0  0  0
 37 42  1  0  0  0  0
 38 39  2  0  0  0  0
 38 46  1  0  0  0  0
 40 43  1  0  0  0  0
 40 44  1  0  0  0  0
 40 45  1  0  0  0  0
 46 47  1  0  0  0  0
 46 48  1  0  0  0  0
 47 49  1  0  0  0  0
 47 50  1  0  0  0  0
 47 51  1  0  0  0  0
M  END
$$$$

  -OEChem-05262216553D

 51 50  0     1  0  0  0  0  0999 V2000
    1.1947   -2.8491   -2.5471 C   0  0  0  0  0  0  0  0  0  0  0  0
    0.1195   -2.5658   -2.0352 O   0  0  0  0  0  0  0  0  0  0  0  0
    1.5935   -4.3053   -2.6913 C   0  0  0  0  0  0  0  0  0  0  0  0
    2.4770   -4.5134   -2.0824 H   0  0  0  0  0  0  0  0  0  0  0  0
    0.7783   -4.9561   -2.3618 H   0  0  0  0  0  0  0  0  0  0  0  0
    1.8197   -4.5294   -3.7368 H   0  0  0  0  0  0  0  0  0  0  0  0
    2.0787   -1.8594   -2.9348 N   0  0  0  0  0  0  0  0  0  0  0  0
    1.8731   -0.4055   -2.7871 C   0  0  2  0  0  0  0  0  0  0  0  0
    1.6241    0.0268   -1.3245 C   0  0  0  0  0  0  0  0  0  0  0  0
    2.5794    0.2762   -0.6059 O   0  0  0  0  0  0  0  0  0  0  0  0
    0.7658    0.0716   -3.7400 C   0  0  0  0  0  0  0  0  0  0  0  0
    2.9922   -2.1745   -3.2510 H   0  0  0  0  0  0  0  0  0  0  0  0
    2.7979    0.0960   -3.0917 H   0  0  0  0  0  0  0  0  0  0  0  0
   -0.1951   -0.3954   -3.5054 H   0  0  0  0  0  0  0  0  0  0  0  0
    0.6485    1.1576   -3.6681 H   0  0  0  0  0  0  0  0  0  0  0  0
    1.0256   -0.1789   -4.7730 H   0  0  0  0  0  0  0  0  0  0  0  0
    0.3434    0.0219   -0.8026 N   0  0  0  0  0  0  0  0  0  0  0  0
    0.0416   -0.1099    0.6325 C   0  0  2  0  0  0  0  0  0  0  0  0
    0.8662   -1.2243    1.3137 C   0  0  0  0  0  0  0  0  0  0  0  0
    1.4169   -1.0134    2.3870 O   0  0  0  0  0  0  0  0  0  0  0  0
   -1.4634   -0.3613    0.8824 C   0  0  0  0  0  0  0  0  0  0  0  0
   -2.4400    0.7868    0.5198 C   0  0  0  0  0  0  0  0  0  0  0  0
   -3.8749    0.2749    0.7054 C   0  0  0  0  0  0  0  0  0  0  0  0
   -2.3157    1.3263   -0.9132 C   0  0  0  0  0  0  0  0  0  0  0  0
   -0.3325   -0.4092   -1.4317 H   0  0  0  0  0  0  0  0  0  0  0  0
    0.3175    0.8294    1.1239 H   0  0  0  0  0  0  0  0  0  0  0  0
   -1.5972   -0.5875    1.9464 H   0  0  0  0  0  0  0  0  0  0  0  0
   -1.7549   -1.2568    0.3228 H   0  0  0  0  0  0  0  0  0  0  0  0
   -2.2688    1.6184    1.2122 H   0  0  0  0  0  0  0  0  0  0  0  0
   -4.0910   -0.5388    0.0056 H   0  0  0  0  0  0  0  0  0  0  0  0
   -4.5949    1.0812    0.5332 H   0  0  0  0  0  0  0  0  0  0  0  0
   -4.0184   -0.0964    1.7250 H   0  0  0  0  0  0  0  0  0  0  0  0
   -2.3270    0.5065   -1.6384 H   0  0  0  0  0  0  0  0  0  0  0  0
   -3.1481    1.9993   -1.1415 H   0  0  0  0  0  0  0  0  0  0  0  0
   -1.3919    1.8995   -1.0319 H   0  0  0  0  0  0  0  0  0  0  0  0
    0.7341   -2.5226    0.8458 N   0  0  0  0  0  0  0  0  0  0  0  0
    1.4757   -3.7137    1.3047 C   0  0  2  0  0  0  0  0  0  0  0  0
    1.0753   -4.2537    2.6965 C   0  0  0  0  0  0  0  0  0  0  0  0
    0.9924   -5.4642    2.8644 O   0  0  0  0  0  0  0  0  0  0  0  0
    2.9894   -3.4721    1.2268 C   0  0  0  0  0  0  0  0  0  0  0  0
    0.2569   -2.5950   -0.0559 H   0  0  0  0  0  0  0  0  0  0  0  0
    1.2416   -4.5170    0.5991 H   0  0  0  0  0  0  0  0  0  0  0  0
    3.3125   -2.7497    1.9824 H   0  0  0  0  0  0  0  0  0  0  0  0
    3.5279   -4.4092    1.3992 H   0  0  0  0  0  0  0  0  0  0  0  0
    3.2648   -3.0881    0.2399 H   0  0  0  0  0  0  0  0  0  0  0  0
    0.8358   -3.4072    3.7597 N   0  0  0  0  0  0  0  0  0  0  0  0
    0.5588   -3.8578    5.1159 C   0  0  0  0  0  0  0  0  0  0  0  0
    1.0266   -2.4154    3.5887 H   0  0  0  0  0  0  0  0  0  0  0  0
    1.4313   -4.3702    5.5336 H   0  0  0  0  0  0  0  0  0  0  0  0
    0.3179   -3.0025    5.7544 H   0  0  0  0  0  0  0  0  0  0  0  0
   -0.2936   -4.5452    5.1255 H   0  0  0  0  0  0  0  0  0  0  0  0
  1  2  2  0  0  0  0
  1  3  1  0  0  0  0
  1  7  1  0  0  0  0
  3  4  1  0  0  0  0
  3  5  1  0  0  0  0
  3  6  1  0  0  0  0
  7  8  1  0  0  0  0
  7 12  1  0  0  0  0
  8  9  1  0  0  0  0
  8 11  1  0  0  0  0
  8 13  1  0  0  0  0
  9 10  2  0  0  0  0
  9 17  1  0  0  0  0
 11 14  1  0  0  0  0
 11 15  1  0  0  0  0
 11 16  1  0  0  0  0
 17 18  1  0  0  0  0
 17 25  1  0  0  0  0
 18 19  1  0  0  0  0
 18 21  1  0  0  0  0
 18 26  1  0  0  0  0
 19 20  2  0  0  0  0
 19 36  1  0  0  0  0
 21 22  1  0  0  0  0
 21 27  1  0  0  0  0
 21 28  1  0  0  0  0
 22 23  1  0  0  0  0
 22 24  1  0  0  0  0
 22 29  1  0  0  0  0
 23 30  1  0  0  0  0
 23 31  1  0  0  0  0
 23 32  1  0  0  0  0
 24 33  1  0  0  0  0
 24 34  1  0  0  0  0
 24 35  1  0  0  0  0
 36 37  1  0  0  0  0
 36 41  1  0  0  0  0
 37 38  1  0  0  0  0
 37 40  1  0  0  0  0
 37 42  1  0  0  0  0
 38 39  2  0  0  0  0
 38 46  1  0  0  0  0
 40 43  1  0  0  0  0
 40 44  1  0  0  0  0
 40 45  1  0  0  0  0
 46 47  1  0  0  0  0
 46 48  1  0  0  0  0
 47 49  1  0  0  0  0
 47 50  1  0  0  0  0
 47 51  1  0  0  0  0
M  END
$$$$

  -OEChem-05262216553D

 51 50  0     1  0  0  0  0  0999 V2000
    1.3065   -2.8784   -2.6873 C   0  0  0  0  0  0  0  0  0  0  0  0
    0.2457   -2.6677   -2.1148 O   0  0  0  0  0  0  0  0  0  0  0  0
    1.7847   -4.3041   -2.8838 C   0  0  0  0  0  0  0  0  0  0  0  0
    2.7310   -4.4571   -2.3587 H   0  0  0  0  0  0  0  0  0  0  0  0
    1.0467   -5.0089   -2.4894 H   0  0  0  0  0  0  0  0  0  0  0  0
    1.9301   -4.5069   -3.9477 H   0  0  0  0  0  0  0  0  0  0  0  0
    2.1055   -1.8257   -3.0904 N   0  0  0  0  0  0  0  0  0  0  0  0
    1.8147   -0.3964   -2.8710 C   0  0  2  0  0  0  0  0  0  0  0  0
    1.6051   -0.0451   -1.3798 C   0  0  0  0  0  0  0  0  0  0  0  0
    2.5822    0.1476   -0.6724 O   0  0  0  0  0  0  0  0  0  0  0  0
    0.6389    0.0425   -3.7586 C   0  0  0  0  0  0  0  0  0  0  0  0
    3.0223   -2.0708   -3.4553 H   0  0  0  0  0  0  0  0  0  0  0  0
    2.6912    0.1772   -3.1900 H   0  0  0  0  0  0  0  0  0  0  0  0
   -0.2799   -0.4929   -3.5019 H   0  0  0  0  0  0  0  0  0  0  0  0
    0.4576    1.1157   -3.6422 H   0  0  0  0  0  0  0  0  0  0  0  0
    0.8680   -0.1560   -4.8100 H   0  0  0  0  0  0  0  0  0  0  0  0
    0.3366   -0.0242   -0.8260 N   0  0  0  0  0  0  0  0  0  0  0  0
    0.0631   -0.1309    0.6186 C   0  0  2  0  0  0  0  0  0  0  0  0
    0.8744   -1.2427    1.3211 C   0  0  0  0  0  0  0  0  0  0  0  0
    1.2480   -1.0896    2.4777 O   0  0  0  0  0  0  0  0  0  0  0  0
   -1.4397   -0.3670    0.8924 C   0  0  0  0  0  0  0  0  0  0  0  0
   -2.4150    0.7817    0.5261 C   0  0  0  0  0  0  0  0  0  0  0  0
   -3.8496    0.2802    0.7401 C   0  0  0  0  0  0  0  0  0  0  0  0
   -2.3105    1.3012   -0.9161 C   0  0  0  0  0  0  0  0  0  0  0  0
   -0.3793   -0.4020   -1.4433 H   0  0  0  0  0  0  0  0  0  0  0  0
    0.3563    0.8141    1.0885 H   0  0  0  0  0  0  0  0  0  0  0  0
   -1.5618   -0.5754    1.9612 H   0  0  0  0  0  0  0  0  0  0  0  0
   -1.7421   -1.2707    0.3518 H   0  0  0  0  0  0  0  0  0  0  0  0
   -2.2295    1.6220    1.2042 H   0  0  0  0  0  0  0  0  0  0  0  0
   -4.0827   -0.5379    0.0510 H   0  0  0  0  0  0  0  0  0  0  0  0
   -4.5675    1.0895    0.5740 H   0  0  0  0  0  0  0  0  0  0  0  0
   -3.9783   -0.0816    1.7652 H   0  0  0  0  0  0  0  0  0  0  0  0
   -2.3382    0.4721   -1.6300 H   0  0  0  0  0  0  0  0  0  0  0  0
   -3.1427    1.9760   -1.1401 H   0  0  0  0  0  0  0  0  0  0  0  0
   -1.3857    1.8674   -1.0570 H   0  0  0  0  0  0  0  0  0  0  0  0
    0.9686   -2.4863    0.7169 N   0  0  0  0  0  0  0  0  0  0  0  0
    1.7570   -3.6468    1.1725 C   0  0  2  0  0  0  0  0  0  0  0  0
    1.1998   -4.3744    2.4161 C   0  0  0  0  0  0  0  0  0  0  0  0
    1.1734   -5.5989    2.4316 O   0  0  0  0  0  0  0  0  0  0  0  0
    3.2272   -3.2564    1.3756 C   0  0  0  0  0  0  0  0  0  0  0  0
    0.5693   -2.5342   -0.2233 H   0  0  0  0  0  0  0  0  0  0  0  0
    1.7294   -4.3816    0.3620 H   0  0  0  0  0  0  0  0  0  0  0  0
    3.3458   -2.6038    2.2457 H   0  0  0  0  0  0  0  0  0  0  0  0
    3.8358   -4.1516    1.5361 H   0  0  0  0  0  0  0  0  0  0  0  0
    3.6061   -2.7304    0.4940 H   0  0  0  0  0  0  0  0  0  0  0  0
    0.7469   -3.6754    3.5162 N   0  0  0  0  0  0  0  0  0  0  0  0
    0.2716   -4.2989    4.7422 C   0  0  0  0  0  0  0  0  0  0  0  0
    0.8621   -2.6586    3.4775 H   0  0  0  0  0  0  0  0  0  0  0  0
    1.0615   -4.9095    5.1917 H   0  0  0  0  0  0  0  0  0  0  0  0
   -0.0268   -3.5316    5.4629 H   0  0  0  0  0  0  0  0  0  0  0  0
   -0.5945   -4.9366    4.5368 H   0  0  0  0  0  0  0  0  0  0  0  0
  1  2  2  0  0  0  0
  1  3  1  0  0  0  0
  1  7  1  0  0  0  0
  3  4  1  0  0  0  0
  3  5  1  0  0  0  0
  3  6  1  0  0  0  0
  7  8  1  0  0  0  0
  7 12  1  0  0  0  0
  8  9  1  0  0  0  0
  8 11  1  0  0  0  0
  8 13  1  0  0  0  0
  9 10  2  0  0  0  0
  9 17  1  0  0  0  0
 11 14  1  0  0  0  0
 11 15  1  0  0  0  0
 11 16  1  0  0  0  0
 17 18  1  0  0  0  0
 17 25  1  0  0  0  0
 18 19  1  0  0  0  0
 18 21  1  0  0  0  0
 18 26  1  0  0  0  0
 19 20  2  0  0  0  0
 19 36  1  0  0  0  0
 21 22  1  0  0  0  0
 21 27  1  0  0  0  0
 21 28  1  0  0  0  0
 22 23  1  0  0  0  0
 22 24  1  0  0  0  0
 22 29  1  0  0  0  0
 23 30  1  0  0  0  0
 23 31  1  0  0  0  0
 23 32  1  0  0  0  0
 24 33  1  0  0  0  0
 24 34  1  0  0  0  0
 24 35  1  0  0  0  0
 36 37  1  0  0  0  0
 36 41  1  0  0  0  0
 37 38  1  0  0  0  0
 37 40  1  0  0  0  0
 37 42  1  0  0  0  0
 38 39  2  0  0  0  0
 38 46  1  0  0  0  0
 40 43  1  0  0  0  0
 40 44  1  0  0  0  0
 40 45  1  0  0  0  0
 46 47  1  0  0  0  0
 46 48  1  0  0  0  0
 47 49  1  0  0  0  0
 47 50  1  0  0  0  0
 47 51  1  0  0  0  0
M  END
$$$$

  -OEChem-05262216553D

 51 50  0     1  0  0  0  0  0999 V2000
    1.5324   -2.8698   -2.8320 C   0  0  0  0  0  0  0  0  0  0  0  0
    0.4866   -2.7856   -2.2033 O   0  0  0  0  0  0  0  0  0  0  0  0
    2.1622   -4.2285   -3.0702 C   0  0  0  0  0  0  0  0  0  0  0  0
    3.1316   -4.2842   -2.5683 H   0  0  0  0  0  0  0  0  0  0  0  0
    1.5172   -5.0192   -2.6754 H   0  0  0  0  0  0  0  0  0  0  0  0
    2.3033   -4.3931   -4.1411 H   0  0  0  0  0  0  0  0  0  0  0  0
    2.1809   -1.7253   -3.2544 N   0  0  0  0  0  0  0  0  0  0  0  0
    1.7443   -0.3488   -2.9555 C   0  0  2  0  0  0  0  0  0  0  0  0
    1.5750   -0.0928   -1.4388 C   0  0  0  0  0  0  0  0  0  0  0  0
    2.5735    0.0441   -0.7477 O   0  0  0  0  0  0  0  0  0  0  0  0
    0.4855   -0.0091   -3.7708 C   0  0  0  0  0  0  0  0  0  0  0  0
    3.1091   -1.8537   -3.6490 H   0  0  0  0  0  0  0  0  0  0  0  0
    2.5342    0.3344   -3.2847 H   0  0  0  0  0  0  0  0  0  0  0  0
   -0.3543   -0.6553   -3.4987 H   0  0  0  0  0  0  0  0  0  0  0  0
    0.1924    1.0316   -3.5992 H   0  0  0  0  0  0  0  0  0  0  0  0
    0.6840   -0.1382   -4.8392 H   0  0  0  0  0  0  0  0  0  0  0  0
    0.3226   -0.0511   -0.8478 N   0  0  0  0  0  0  0  0  0  0  0  0
    0.0792   -0.1733    0.6030 C   0  0  2  0  0  0  0  0  0  0  0  0
    0.8624   -1.3081    1.3069 C   0  0  0  0  0  0  0  0  0  0  0  0
    1.0722   -1.2351    2.5121 O   0  0  0  0  0  0  0  0  0  0  0  0
   -1.4269   -0.3770    0.8901 C   0  0  0  0  0  0  0  0  0  0  0  0
   -2.3803    0.7992    0.5551 C   0  0  0  0  0  0  0  0  0  0  0  0
   -3.8227    0.3248    0.7784 C   0  0  0  0  0  0  0  0  0  0  0  0
   -2.2808    1.3469   -0.8766 C   0  0  0  0  0  0  0  0  0  0  0  0
   -0.4343   -0.3487   -1.4583 H   0  0  0  0  0  0  0  0  0  0  0  0
    0.3991    0.7605    1.0774 H   0  0  0  0  0  0  0  0  0  0  0  0
   -1.5447   -0.5977    1.9572 H   0  0  0  0  0  0  0  0  0  0  0  0
   -1.7553   -1.2663    0.3410 H   0  0  0  0  0  0  0  0  0  0  0  0
   -2.1681    1.6215    1.2471 H   0  0  0  0  0  0  0  0  0  0  0  0
   -4.0794   -0.4807    0.0828 H   0  0  0  0  0  0  0  0  0  0  0  0
   -4.5258    1.1501    0.6284 H   0  0  0  0  0  0  0  0  0  0  0  0
   -3.9483   -0.0464    1.8006 H   0  0  0  0  0  0  0  0  0  0  0  0
   -2.3370    0.5347   -1.6080 H   0  0  0  0  0  0  0  0  0  0  0  0
   -3.0993    2.0460   -1.0752 H   0  0  0  0  0  0  0  0  0  0  0  0
   -1.3443    1.8942   -1.0163 H   0  0  0  0  0  0  0  0  0  0  0  0
    1.1960   -2.4593    0.6115 N   0  0  0  0  0  0  0  0  0  0  0  0
    2.0011   -3.6006    1.0851 C   0  0  2  0  0  0  0  0  0  0  0  0
    1.3226   -4.4876    2.1529 C   0  0  0  0  0  0  0  0  0  0  0  0
    1.3665   -5.7064    2.0384 O   0  0  0  0  0  0  0  0  0  0  0  0
    3.3824   -3.1297    1.5576 C   0  0  0  0  0  0  0  0  0  0  0  0
    0.8912   -2.4762   -0.3642 H   0  0  0  0  0  0  0  0  0  0  0  0
    2.1634   -4.2487    0.2187 H   0  0  0  0  0  0  0  0  0  0  0  0
    3.3079   -2.5562    2.4862 H   0  0  0  0  0  0  0  0  0  0  0  0
    4.0306   -3.9923    1.7399 H   0  0  0  0  0  0  0  0  0  0  0  0
    3.8493   -2.4978    0.7958 H   0  0  0  0  0  0  0  0  0  0  0  0
    0.6883   -3.9364    3.2476 N   0  0  0  0  0  0  0  0  0  0  0  0
    0.0766   -4.7110    4.3175 C   0  0  0  0  0  0  0  0  0  0  0  0
    0.7274   -2.9156    3.3198 H   0  0  0  0  0  0  0  0  0  0  0  0
    0.8181   -5.3629    4.7909 H   0  0  0  0  0  0  0  0  0  0  0  0
   -0.3329   -4.0415    5.0802 H   0  0  0  0  0  0  0  0  0  0  0  0
   -0.7377   -5.3285    3.9246 H   0  0  0  0  0  0  0  0  0  0  0  0
  1  2  2  0  0  0  0
  1  3  1  0  0  0  0
  1  7  1  0  0  0  0
  3  4  1  0  0  0  0
  3  5  1  0  0  0  0
  3  6  1  0  0  0  0
  7  8  1  0  0  0  0
  7 12  1  0  0  0  0
  8  9  1  0  0  0  0
  8 11  1  0  0  0  0
  8 13  1  0  0  0  0
  9 10  2  0  0  0  0
  9 17  1  0  0  0  0
 11 14  1  0  0  0  0
 11 15  1  0  0  0  0
 11 16  1  0  0  0  0
 17 18  1  0  0  0  0
 17 25  1  0  0  0  0
 18 19  1  0  0  0  0
 18 21  1  0  0  0  0
 18 26  1  0  0  0  0
 19 20  2  0  0  0  0
 19 36  1  0  0  0  0
 21 22  1  0  0  0  0
 21 27  1  0  0  0  0
 21 28  1  0  0  0  0
 22 23  1  0  0  0  0
 22 24  1  0  0  0  0
 22 29  1  0  0  0  0
 23 30  1  0  0  0  0
 23 31  1  0  0  0  0
 23 32  1  0  0  0  0
 24 33  1  0  0  0  0
 24 34  1  0  0  0  0
 24 35  1  0  0  0  0
 36 37  1  0  0  0  0
 36 41  1  0  0  0  0
 37 38  1  0  0  0  0
 37 40  1  0  0  0  0
 37 42  1  0  0  0  0
 38 39  2  0  0  0  0
 38 46  1  0  0  0  0
 40 43  1  0  0  0  0
 40 44  1  0  0  0  0
 40 45  1  0  0  0  0
 46 47  1  0  0  0  0
 46 48  1  0  0  0  0
 47 49  1  0  0  0  0
 47 50  1  0  0  0  0
 47 51  1  0  0  0  0
M  END
$$$$

  -OEChem-05262216553D

 51 50  0     1  0  0  0  0  0999 V2000
    1.8621   -2.8673   -2.9545 C   0  0  0  0  0  0  0  0  0  0  0  0
    0.8593   -2.9708   -2.2629 O   0  0  0  0  0  0  0  0  0  0  0  0
    2.7158   -4.0873   -3.2420 C   0  0  0  0  0  0  0  0  0  0  0  0
    3.7093   -3.9591   -2.8052 H   0  0  0  0  0  0  0  0  0  0  0  0
    2.2556   -4.9810   -2.8106 H   0  0  0  0  0  0  0  0  0  0  0  0
    2.8146   -4.2292   -4.3209 H   0  0  0  0  0  0  0  0  0  0  0  0
    2.2569   -1.6255   -3.4134 N   0  0  0  0  0  0  0  0  0  0  0  0
    1.5985   -0.3567   -3.0537 C   0  0  2  0  0  0  0  0  0  0  0  0
    1.4919   -0.1594   -1.5218 C   0  0  0  0  0  0  0  0  0  0  0  0
    2.5189   -0.0567   -0.8671 O   0  0  0  0  0  0  0  0  0  0  0  0
    0.2474   -0.2480   -3.7804 C   0  0  0  0  0  0  0  0  0  0  0  0
    3.1768   -1.5786   -3.8433 H   0  0  0  0  0  0  0  0  0  0  0  0
    2.2261    0.4641   -3.4151 H   0  0  0  0  0  0  0  0  0  0  0  0
   -0.4445   -1.0307   -3.4546 H   0  0  0  0  0  0  0  0  0  0  0  0
   -0.2121    0.7262   -3.5855 H   0  0  0  0  0  0  0  0  0  0  0  0
    0.3930   -0.3482   -4.8604 H   0  0  0  0  0  0  0  0  0  0  0  0
    0.2675   -0.0868   -0.8781 N   0  0  0  0  0  0  0  0  0  0  0  0
    0.0620   -0.2255    0.5782 C   0  0  2  0  0  0  0  0  0  0  0  0
    0.8090   -1.3932    1.2795 C   0  0  0  0  0  0  0  0  0  0  0  0
    0.8581   -1.4110    2.5044 O   0  0  0  0  0  0  0  0  0  0  0  0
   -1.4509   -0.3488    0.8862 C   0  0  0  0  0  0  0  0  0  0  0  0
   -2.3413    0.8878    0.5918 C   0  0  0  0  0  0  0  0  0  0  0  0
   -3.8049    0.4916    0.8294 C   0  0  0  0  0  0  0  0  0  0  0  0
   -2.2393    1.4620   -0.8298 C   0  0  0  0  0  0  0  0  0  0  0  0
   -0.5330   -0.2963   -1.4677 H   0  0  0  0  0  0  0  0  0  0  0  0
    0.4341    0.6886    1.0525 H   0  0  0  0  0  0  0  0  0  0  0  0
   -1.5696   -0.5823    1.9500 H   0  0  0  0  0  0  0  0  0  0  0  0
   -1.8378   -1.2072    0.3263 H   0  0  0  0  0  0  0  0  0  0  0  0
   -2.0715    1.6810    1.2975 H   0  0  0  0  0  0  0  0  0  0  0  0
   -4.1168   -0.2861    0.1249 H   0  0  0  0  0  0  0  0  0  0  0  0
   -4.4622    1.3578    0.7040 H   0  0  0  0  0  0  0  0  0  0  0  0
   -3.9371    0.1112    1.8473 H   0  0  0  0  0  0  0  0  0  0  0  0
   -2.3634    0.6719   -1.5770 H   0  0  0  0  0  0  0  0  0  0  0  0
   -3.0167    2.2149   -0.9936 H   0  0  0  0  0  0  0  0  0  0  0  0
   -1.2744    1.9541   -0.9805 H   0  0  0  0  0  0  0  0  0  0  0  0
    1.3700   -2.4372    0.5622 N   0  0  0  0  0  0  0  0  0  0  0  0
    2.2398   -3.5195    1.0612 C   0  0  2  0  0  0  0  0  0  0  0  0
    1.5456   -4.5710    1.9555 C   0  0  0  0  0  0  0  0  0  0  0  0
    1.7972   -5.7592    1.7941 O   0  0  0  0  0  0  0  0  0  0  0  0
    3.4802   -2.9415    1.7552 C   0  0  0  0  0  0  0  0  0  0  0  0
    1.2030   -2.4095   -0.4454 H   0  0  0  0  0  0  0  0  0  0  0  0
    2.5920   -4.0646    0.1801 H   0  0  0  0  0  0  0  0  0  0  0  0
    3.2176   -2.4723    2.7078 H   0  0  0  0  0  0  0  0  0  0  0  0
    4.2038   -3.7378    1.9548 H   0  0  0  0  0  0  0  0  0  0  0  0
    3.9564   -2.1907    1.1169 H   0  0  0  0  0  0  0  0  0  0  0  0
    0.6745   -4.1984    2.9591 N   0  0  0  0  0  0  0  0  0  0  0  0
    0.0620   -5.1277    3.8971 C   0  0  0  0  0  0  0  0  0  0  0  0
    0.5708   -3.1904    3.1053 H   0  0  0  0  0  0  0  0  0  0  0  0
    0.8299   -5.6261    4.4973 H   0  0  0  0  0  0  0  0  0  0  0  0
   -0.6130   -4.5919    4.5711 H   0  0  0  0  0  0  0  0  0  0  0  0
   -0.5164   -5.8874    3.3611 H   0  0  0  0  0  0  0  0  0  0  0  0
  1  2  2  0  0  0  0
  1  3  1  0  0  0  0
  1  7  1  0  0  0  0
  3  4  1  0  0  0  0
  3  5  1  0  0  0  0
  3  6  1  0  0  0  0
  7  8  1  0  0  0  0
  7 12  1  0  0  0  0
  8  9  1  0  0  0  0
  8 11  1  0  0  0  0
  8 13  1  0  0  0  0
  9 10  2  0  0  0  0
  9 17  1  0  0  0  0
 11 14  1  0  0  0  0
 11 15  1  0  0  0  0
 11 16  1  0  0  0  0
 17 18  1  0  0  0  0
 17 25  1  0  0  0  0
 18 19  1  0  0  0  0
 18 21  1  0  0  0  0
 18 26  1  0  0  0  0
 19 20  2  0  0  0  0
 19 36  1  0  0  0  0
 21 22  1  0  0  0  0
 21 27  1  0  0  0  0
 21 28  1  0  0  0  0
 22 23  1  0  0  0  0
 22 24  1  0  0  0  0
 22 29  1  0  0  0  0
 23 30  1  0  0  0  0
 23 31  1  0  0  0  0
 23 32  1  0  0  0  0
 24 33  1  0  0  0  0
 24 34  1  0  0  0  0
 24 35  1  0  0  0  0
 36 37  1  0  0  0  0
 36 41  1  0  0  0  0
 37 38  1  0  0  0  0
 37 40  1  0  0  0  0
 37 42  1  0  0  0  0
 38 39  2  0  0  0  0
 38 46  1  0  0  0  0
 40 43  1  0  0  0  0
 40 44  1  0  0  0  0
 40 45  1  0  0  0  0
 46 47  1  0  0  0  0
 46 48  1  0  0  0  0
 47 49  1  0  0  0  0
 47 50  1  0  0  0  0
 47 51  1  0  0  0  0
M  END
$$$$

  -OEChem-05262216553D

 51 50  0     1  0  0  0  0  0999 V2000
    2.1225   -2.7974   -3.0676 C   0  0  0  0  0  0  0  0  0  0  0  0
    1.1998   -3.0515   -2.3080 O   0  0  0  0  0  0  0  0  0  0  0  0
    3.1473   -3.8647   -3.3999 C   0  0  0  0  0  0  0  0  0  0  0  0
    4.1412   -3.5405   -3.0810 H   0  0  0  0  0  0  0  0  0  0  0  0
    2.9013   -4.7976   -2.8842 H   0  0  0  0  0  0  0  0  0  0  0  0
    3.1594   -4.0503   -4.4765 H   0  0  0  0  0  0  0  0  0  0  0  0
    2.2706   -1.5165   -3.5647 N   0  0  0  0  0  0  0  0  0  0  0  0
    1.4454   -0.3682   -3.1467 C   0  0  2  0  0  0  0  0  0  0  0  0
    1.4205   -0.1871   -1.6083 C   0  0  0  0  0  0  0  0  0  0  0  0
    2.4807   -0.0898   -1.0075 O   0  0  0  0  0  0  0  0  0  0  0  0
    0.0461   -0.4846   -3.7735 C   0  0  0  0  0  0  0  0  0  0  0  0
    3.1411   -1.3253   -4.0531 H   0  0  0  0  0  0  0  0  0  0  0  0
    1.9053    0.5411   -3.5462 H   0  0  0  0  0  0  0  0  0  0  0  0
   -0.4970   -1.3465   -3.3733 H   0  0  0  0  0  0  0  0  0  0  0  0
   -0.5380    0.4193   -3.5743 H   0  0  0  0  0  0  0  0  0  0  0  0
    0.1293   -0.6051   -4.8582 H   0  0  0  0  0  0  0  0  0  0  0  0
    0.2362   -0.0958   -0.8969 N   0  0  0  0  0  0  0  0  0  0  0  0
    0.0914   -0.2654    0.5649 C   0  0  2  0  0  0  0  0  0  0  0  0
    0.8202   -1.4688    1.2370 C   0  0  0  0  0  0  0  0  0  0  0  0
    0.7272   -1.6020    2.4523 O   0  0  0  0  0  0  0  0  0  0  0  0
   -1.4197   -0.3182    0.9164 C   0  0  0  0  0  0  0  0  0  0  0  0
   -2.2541    0.9709    0.6839 C   0  0  0  0  0  0  0  0  0  0  0  0
   -3.7283    0.6415    0.9558 C   0  0  0  0  0  0  0  0  0  0  0  0
   -2.1655    1.5916   -0.7188 C   0  0  0  0  0  0  0  0  0  0  0  0
   -0.5997   -0.2644   -1.4485 H   0  0  0  0  0  0  0  0  0  0  0  0
    0.5184    0.6250    1.0380 H   0  0  0  0  0  0  0  0  0  0  0  0
   -1.5257   -0.5731    1.9766 H   0  0  0  0  0  0  0  0  0  0  0  0
   -1.8668   -1.1396    0.3461 H   0  0  0  0  0  0  0  0  0  0  0  0
   -1.9238    1.7248    1.4067 H   0  0  0  0  0  0  0  0  0  0  0  0
   -4.1033   -0.0879    0.2306 H   0  0  0  0  0  0  0  0  0  0  0  0
   -4.3421    1.5454    0.8890 H   0  0  0  0  0  0  0  0  0  0  0  0
   -3.8478    0.2246    1.9609 H   0  0  0  0  0  0  0  0  0  0  0  0
   -2.3554    0.8383   -1.4893 H   0  0  0  0  0  0  0  0  0  0  0  0
   -2.9060    2.3902   -0.8291 H   0  0  0  0  0  0  0  0  0  0  0  0
   -1.1808    2.0378   -0.8832 H   0  0  0  0  0  0  0  0  0  0  0  0
    1.5862   -2.3804    0.5294 N   0  0  0  0  0  0  0  0  0  0  0  0
    2.4744   -3.4356    1.0548 C   0  0  2  0  0  0  0  0  0  0  0  0
    1.7705   -4.6196    1.7563 C   0  0  0  0  0  0  0  0  0  0  0  0
    2.1775   -5.7598    1.5666 O   0  0  0  0  0  0  0  0  0  0  0  0
    3.5583   -2.8307    1.9560 C   0  0  0  0  0  0  0  0  0  0  0  0
    1.5692   -2.2644   -0.4846 H   0  0  0  0  0  0  0  0  0  0  0  0
    2.9838   -3.8681    0.1880 H   0  0  0  0  0  0  0  0  0  0  0  0
    3.1316   -2.4561    2.8908 H   0  0  0  0  0  0  0  0  0  0  0  0
    4.3078   -3.5891    2.2023 H   0  0  0  0  0  0  0  0  0  0  0  0
    4.0572   -2.0024    1.4431 H   0  0  0  0  0  0  0  0  0  0  0  0
    0.7252   -4.4186    2.6351 N   0  0  0  0  0  0  0  0  0  0  0  0
    0.1016   -5.4762    3.4169 C   0  0  0  0  0  0  0  0  0  0  0  0
    0.5042   -3.4409    2.8418 H   0  0  0  0  0  0  0  0  0  0  0  0
   -0.7348   -5.0729    3.9956 H   0  0  0  0  0  0  0  0  0  0  0  0
   -0.2816   -6.2633    2.7590 H   0  0  0  0  0  0  0  0  0  0  0  0
    0.8257   -5.9161    4.1103 H   0  0  0  0  0  0  0  0  0  0  0  0
  1  2  2  0  0  0  0
  1  3  1  0  0  0  0
  1  7  1  0  0  0  0
  3  4  1  0  0  0  0
  3  5  1  0  0  0  0
  3  6  1  0  0  0  0
  7  8  1  0  0  0  0
  7 12  1  0  0  0  0
  8  9  1  0  0  0  0
  8 11  1  0  0  0  0
  8 13  1  0  0  0  0
  9 10  2  0  0  0  0
  9 17  1  0  0  0  0
 11 14  1  0  0  0  0
 11 15  1  0  0  0  0
 11 16  1  0  0  0  0
 17 18  1  0  0  0  0
 17 25  1  0  0  0  0
 18 19  1  0  0  0  0
 18 21  1  0  0  0  0
 18 26  1  0  0  0  0
 19 20  2  0  0  0  0
 19 36  1  0  0  0  0
 21 22  1  0  0  0  0
 21 27  1  0  0  0  0
 21 28  1  0  0  0  0
 22 23  1  0  0  0  0
 22 24  1  0  0  0  0
 22 29  1  0  0  0  0
 23 30  1  0  0  0  0
 23 31  1  0  0  0  0
 23 32  1  0  0  0  0
 24 33  1  0  0  0  0
 24 34  1  0  0  0  0
 24 35  1  0  0  0  0
 36 37  1  0  0  0  0
 36 41  1  0  0  0  0
 37 38  1  0  0  0  0
 37 40  1  0  0  0  0
 37 42  1  0  0  0  0
 38 39  2  0  0  0  0
 38 46  1  0  0  0  0
 40 43  1  0  0  0  0
 40 44  1  0  0  0  0
 40 45  1  0  0  0  0
 46 47  1  0  0  0  0
 46 48  1  0  0  0  0
 47 49  1  0  0  0  0
 47 50  1  0  0  0  0
 47 51  1  0  0  0  0
M  END
$$$$

  -OEChem-05262216553D

 51 50  0     1  0  0  0  0  0999 V2000
    0.7193   -2.7734   -2.5860 C   0  0  0  0  0  0  0  0  0  0  0  0
   -0.3536   -2.2392   -2.3469 O   0  0  0  0  0  0  0  0  0  0  0  0
    0.8142   -4.2870   -2.6149 C   0  0  0  0  0  0  0  0  0  0  0  0
    1.6428   -4.6255   -1.9885 H   0  0  0  0  0  0  0  0  0  0  0  0
   -0.1114   -4.7310   -2.2382 H   0  0  0  0  0  0  0  0  0  0  0  0
    0.9795   -4.6307   -3.6387 H   0  0  0  0  0  0  0  0  0  0  0  0
    1.8490   -2.0105   -2.8246 N   0  0  0  0  0  0  0  0  0  0  0  0
    1.9403   -0.5336   -2.8357 C   0  0  2  0  0  0  0  0  0  0  0  0
    1.7130    0.1050   -1.4475 C   0  0  0  0  0  0  0  0  0  0  0  0
    2.6435    0.6577   -0.8772 O   0  0  0  0  0  0  0  0  0  0  0  0
    1.0131    0.0817   -3.8943 C   0  0  0  0  0  0  0  0  0  0  0  0
    2.7124   -2.5369   -2.9394 H   0  0  0  0  0  0  0  0  0  0  0  0
    2.9643   -0.2768   -3.1275 H   0  0  0  0  0  0  0  0  0  0  0  0
   -0.0404   -0.0503   -3.6321 H   0  0  0  0  0  0  0  0  0  0  0  0
    1.2084    1.1549   -3.9839 H   0  0  0  0  0  0  0  0  0  0  0  0
    1.1887   -0.3841   -4.8686 H   0  0  0  0  0  0  0  0  0  0  0  0
    0.5204   -0.0802   -0.7782 N   0  0  0  0  0  0  0  0  0  0  0  0
    0.2848   -0.0978    0.6818 C   0  0  2  0  0  0  0  0  0  0  0  0
    1.2930   -0.9283    1.5434 C   0  0  0  0  0  0  0  0  0  0  0  0
    0.9153   -1.4543    2.5847 O   0  0  0  0  0  0  0  0  0  0  0  0
   -1.1838   -0.5436    0.9322 C   0  0  0  0  0  0  0  0  0  0  0  0
   -2.3134    0.4078    0.4517 C   0  0  0  0  0  0  0  0  0  0  0  0
   -3.6574   -0.3011    0.6683 C   0  0  0  0  0  0  0  0  0  0  0  0
   -2.2506    0.8417   -1.0209 C   0  0  0  0  0  0  0  0  0  0  0  0
   -0.1342   -0.6560   -1.3177 H   0  0  0  0  0  0  0  0  0  0  0  0
    0.3839    0.9314    1.0406 H   0  0  0  0  0  0  0  0  0  0  0  0
   -1.3367   -0.6771    2.0080 H   0  0  0  0  0  0  0  0  0  0  0  0
   -1.3194   -1.5245    0.4630 H   0  0  0  0  0  0  0  0  0  0  0  0
   -2.2869    1.3109    1.0708 H   0  0  0  0  0  0  0  0  0  0  0  0
   -3.7326   -1.1896    0.0329 H   0  0  0  0  0  0  0  0  0  0  0  0
   -4.4886    0.3693    0.4281 H   0  0  0  0  0  0  0  0  0  0  0  0
   -3.7630   -0.6109    1.7127 H   0  0  0  0  0  0  0  0  0  0  0  0
   -2.1309   -0.0270   -1.6760 H   0  0  0  0  0  0  0  0  0  0  0  0
   -3.1706    1.3619   -1.3053 H   0  0  0  0  0  0  0  0  0  0  0  0
   -1.4209    1.5348   -1.1856 H   0  0  0  0  0  0  0  0  0  0  0  0
    2.5084   -1.3500    1.0315 N   0  0  0  0  0  0  0  0  0  0  0  0
    3.3360   -2.4932    1.4526 C   0  0  2  0  0  0  0  0  0  0  0  0
    2.6404   -3.8400    1.1646 C   0  0  0  0  0  0  0  0  0  0  0  0
    3.0633   -4.5602    0.2674 O   0  0  0  0  0  0  0  0  0  0  0  0
    3.7967   -2.3781    2.9133 C   0  0  0  0  0  0  0  0  0  0  0  0
    2.8402   -0.7966    0.2400 H   0  0  0  0  0  0  0  0  0  0  0  0
    4.2419   -2.4743    0.8383 H   0  0  0  0  0  0  0  0  0  0  0  0
    2.9665   -2.5210    3.6105 H   0  0  0  0  0  0  0  0  0  0  0  0
    4.5530   -3.1393    3.1272 H   0  0  0  0  0  0  0  0  0  0  0  0
    4.2359   -1.3924    3.0939 H   0  0  0  0  0  0  0  0  0  0  0  0
    1.4657   -4.1732    1.8091 N   0  0  0  0  0  0  0  0  0  0  0  0
    0.6310   -5.3053    1.4334 C   0  0  0  0  0  0  0  0  0  0  0  0
    1.0634   -3.4312    2.3896 H   0  0  0  0  0  0  0  0  0  0  0  0
   -0.2092   -5.4003    2.1278 H   0  0  0  0  0  0  0  0  0  0  0  0
    0.2334   -5.1687    0.4227 H   0  0  0  0  0  0  0  0  0  0  0  0
    1.2091   -6.2348    1.4637 H   0  0  0  0  0  0  0  0  0  0  0  0
  1  2  2  0  0  0  0
  1  3  1  0  0  0  0
  1  7  1  0  0  0  0
  3  4  1  0  0  0  0
  3  5  1  0  0  0  0
  3  6  1  0  0  0  0
  7  8  1  0  0  0  0
  7 12  1  0  0  0  0
  8  9  1  0  0  0  0
  8 11  1  0  0  0  0
  8 13  1  0  0  0  0
  9 10  2  0  0  0  0
  9 17  1  0  0  0  0
 11 14  1  0  0  0  0
 11 15  1  0  0  0  0
 11 16  1  0  0  0  0
 17 18  1  0  0  0  0
 17 25  1  0  0  0  0
 18 19  1  0  0  0  0
 18 21  1  0  0  0  0
 18 26  1  0  0  0  0
 19 20  2  0  0  0  0
 19 36  1  0  0  0  0
 21 22  1  0  0  0  0
 21 27  1  0  0  0  0
 21 28  1  0  0  0  0
 22 23  1  0  0  0  0
 22 24  1  0  0  0  0
 22 29  1  0  0  0  0
 23 30  1  0  0  0  0
 23 31  1  0  0  0  0
 23 32  1  0  0  0  0
 24 33  1  0  0  0  0
 24 34  1  0  0  0  0
 24 35  1  0  0  0  0
 36 37  1  0  0  0  0
 36 41  1  0  0  0  0
 37 38  1  0  0  0  0
 37 40  1  0  0  0  0
 37 42  1  0  0  0  0
 38 39  2  0  0  0  0
 38 46  1  0  0  0  0
 40 43  1  0  0  0  0
 40 44  1  0  0  0  0
 40 45  1  0  0  0  0
 46 47  1  0  0  0  0
 46 48  1  0  0  0  0
 47 49  1  0  0  0  0
 47 50  1  0  0  0  0
 47 51  1  0  0  0  0
M  END
$$$$

  -OEChem-05262216553D

 51 50  0     1  0  0  0  0  0999 V2000
    2.5858   -3.3561   -2.4287 C   0  0  0  0  0  0  0  0  0  0  0  0
    1.7401   -3.8994   -1.7337 O   0  0  0  0  0  0  0  0  0  0  0  0
    3.9607   -3.9858   -2.5480 C   0  0  0  0  0  0  0  0  0  0  0  0
    4.7164   -3.3093   -2.1405 H   0  0  0  0  0  0  0  0  0  0  0  0
    3.9964   -4.9268   -1.9916 H   0  0  0  0  0  0  0  0  0  0  0  0
    4.1898   -4.1889   -3.5969 H   0  0  0  0  0  0  0  0  0  0  0  0
    2.3336   -2.1602   -3.0751 N   0  0  0  0  0  0  0  0  0  0  0  0
    1.1620   -1.2973   -2.8268 C   0  0  2  0  0  0  0  0  0  0  0  0
    1.1199   -0.7361   -1.3848 C   0  0  0  0  0  0  0  0  0  0  0  0
    2.1623   -0.4662   -0.8052 O   0  0  0  0  0  0  0  0  0  0  0  0
   -0.1436   -2.0083   -3.2219 C   0  0  0  0  0  0  0  0  0  0  0  0
    3.1541   -1.7126   -3.4737 H   0  0  0  0  0  0  0  0  0  0  0  0
    1.2589   -0.4277   -3.4839 H   0  0  0  0  0  0  0  0  0  0  0  0
   -0.4138   -2.7756   -2.4900 H   0  0  0  0  0  0  0  0  0  0  0  0
   -0.9666   -1.2904   -3.2838 H   0  0  0  0  0  0  0  0  0  0  0  0
   -0.0331   -2.4859   -4.2004 H   0  0  0  0  0  0  0  0  0  0  0  0
   -0.0320   -0.1952   -0.8546 N   0  0  0  0  0  0  0  0  0  0  0  0
   -0.4076   -0.2509    0.5722 C   0  0  2  0  0  0  0  0  0  0  0  0
   -0.2486   -1.6260    1.3099 C   0  0  0  0  0  0  0  0  0  0  0  0
   -1.2126   -2.1161    1.8785 O   0  0  0  0  0  0  0  0  0  0  0  0
   -1.8354    0.3390    0.7470 C   0  0  0  0  0  0  0  0  0  0  0  0
   -2.0246    1.8518    0.4531 C   0  0  0  0  0  0  0  0  0  0  0  0
   -3.5224    2.1730    0.5457 C   0  0  0  0  0  0  0  0  0  0  0  0
   -1.5240    2.3383   -0.9152 C   0  0  0  0  0  0  0  0  0  0  0  0
   -0.8256   -0.2811   -1.4811 H   0  0  0  0  0  0  0  0  0  0  0  0
    0.2757    0.4213    1.0999 H   0  0  0  0  0  0  0  0  0  0  0  0
   -2.1505    0.1868    1.7854 H   0  0  0  0  0  0  0  0  0  0  0  0
   -2.5188   -0.2387    0.1156 H   0  0  0  0  0  0  0  0  0  0  0  0
   -1.4948    2.4198    1.2253 H   0  0  0  0  0  0  0  0  0  0  0  0
   -4.0814    1.6454   -0.2336 H   0  0  0  0  0  0  0  0  0  0  0  0
   -3.6926    3.2478    0.4281 H   0  0  0  0  0  0  0  0  0  0  0  0
   -3.9178    1.8715    1.5210 H   0  0  0  0  0  0  0  0  0  0  0  0
   -1.9151    1.7066   -1.7184 H   0  0  0  0  0  0  0  0  0  0  0  0
   -1.8497    3.3673   -1.0973 H   0  0  0  0  0  0  0  0  0  0  0  0
   -0.4309    2.3321   -0.9513 H   0  0  0  0  0  0  0  0  0  0  0  0
    0.6526   -2.6387    1.0779 N   0  0  0  0  0  0  0  0  0  0  0  0
    2.0844   -2.5883    1.4430 C   0  0  2  0  0  0  0  0  0  0  0  0
    2.5801   -4.0174    1.7674 C   0  0  0  0  0  0  0  0  0  0  0  0
    3.2178   -4.2783    2.7803 O   0  0  0  0  0  0  0  0  0  0  0  0
    2.3458   -1.6134    2.6066 C   0  0  0  0  0  0  0  0  0  0  0  0
    0.2088   -3.5129    1.3528 H   0  0  0  0  0  0  0  0  0  0  0  0
    2.6824   -2.2745    0.5894 H   0  0  0  0  0  0  0  0  0  0  0  0
    1.7483   -1.8889    3.4816 H   0  0  0  0  0  0  0  0  0  0  0  0
    3.4031   -1.6344    2.8892 H   0  0  0  0  0  0  0  0  0  0  0  0
    2.1006   -0.5882    2.3164 H   0  0  0  0  0  0  0  0  0  0  0  0
    2.2917   -5.0382    0.8818 N   0  0  0  0  0  0  0  0  0  0  0  0
    2.7572   -6.4084    1.0472 C   0  0  0  0  0  0  0  0  0  0  0  0
    1.8668   -4.7611   -0.0086 H   0  0  0  0  0  0  0  0  0  0  0  0
    3.8516   -6.4431    1.0523 H   0  0  0  0  0  0  0  0  0  0  0  0
    2.3864   -6.8281    1.9882 H   0  0  0  0  0  0  0  0  0  0  0  0
    2.3928   -7.0314    0.2249 H   0  0  0  0  0  0  0  0  0  0  0  0
  1  2  2  0  0  0  0
  1  3  1  0  0  0  0
  1  7  1  0  0  0  0
  3  4  1  0  0  0  0
  3  5  1  0  0  0  0
  3  6  1  0  0  0  0
  7  8  1  0  0  0  0
  7 12  1  0  0  0  0
  8  9  1  0  0  0  0
  8 11  1  0  0  0  0
  8 13  1  0  0  0  0
  9 10  2  0  0  0  0
  9 17  1  0  0  0  0
 11 14  1  0  0  0  0
 11 15  1  0  0  0  0
 11 16  1  0  0  0  0
 17 18  1  0  0  0  0
 17 25  1  0  0  0  0
 18 19  1  0  0  0  0
 18 21  1  0  0  0  0
 18 26  1  0  0  0  0
 19 20  2  0  0  0  0
 19 36  1  0  0  0  0
 21 22  1  0  0  0  0
 21 27  1  0  0  0  0
 21 28  1  0  0  0  0
 22 23  1  0  0  0  0
 22 24  1  0  0  0  0
 22 29  1  0  0  0  0
 23 30  1  0  0  0  0
 23 31  1  0  0  0  0
 23 32  1  0  0  0  0
 24 33  1  0  0  0  0
 24 34  1  0  0  0  0
 24 35  1  0  0  0  0
 36 37  1  0  0  0  0
 36 41  1  0  0  0  0
 37 38  1  0  0  0  0
 37 40  1  0  0  0  0
 37 42  1  0  0  0  0
 38 39  2  0  0  0  0
 38 46  1  0  0  0  0
 40 43  1  0  0  0  0
 40 44  1  0  0  0  0
 40 45  1  0  0  0  0
 46 47  1  0  0  0  0
 46 48  1  0  0  0  0
 47 49  1  0  0  0  0
 47 50  1  0  0  0  0
 47 51  1  0  0  0  0
M  END
$$$$

  -OEChem-05262216553D

 51 50  0     1  0  0  0  0  0999 V2000
    3.4000   -2.2383   -3.2189 C   0  0  0  0  0  0  0  0  0  0  0  0
    3.3987   -2.9131   -2.2028 O   0  0  0  0  0  0  0  0  0  0  0  0
    4.6803   -2.1258   -4.0261 C   0  0  0  0  0  0  0  0  0  0  0  0
    5.0097   -1.0844   -4.0586 H   0  0  0  0  0  0  0  0  0  0  0  0
    5.4689   -2.7294   -3.5679 H   0  0  0  0  0  0  0  0  0  0  0  0
    4.5129   -2.4818   -5.0455 H   0  0  0  0  0  0  0  0  0  0  0  0
    2.2741   -1.5624   -3.6588 N   0  0  0  0  0  0  0  0  0  0  0  0
    1.0116   -1.4163   -2.9050 C   0  0  2  0  0  0  0  0  0  0  0  0
    1.1529   -0.6748   -1.5508 C   0  0  0  0  0  0  0  0  0  0  0  0
    2.2090   -0.1343   -1.2351 O   0  0  0  0  0  0  0  0  0  0  0  0
    0.3172   -2.7771   -2.7508 C   0  0  0  0  0  0  0  0  0  0  0  0
    2.4290   -0.9297   -4.4367 H   0  0  0  0  0  0  0  0  0  0  0  0
    0.3494   -0.7918   -3.5115 H   0  0  0  0  0  0  0  0  0  0  0  0
    0.9180   -3.4626   -2.1485 H   0  0  0  0  0  0  0  0  0  0  0  0
   -0.6554   -2.6622   -2.2637 H   0  0  0  0  0  0  0  0  0  0  0  0
    0.1606   -3.2332   -3.7327 H   0  0  0  0  0  0  0  0  0  0  0  0
    0.0307   -0.2639   -0.8492 N   0  0  0  0  0  0  0  0  0  0  0  0
    0.0331    0.0721    0.5923 C   0  0  2  0  0  0  0  0  0  0  0  0
    0.7915   -0.9450    1.4983 C   0  0  0  0  0  0  0  0  0  0  0  0
    0.2097   -1.4964    2.4272 O   0  0  0  0  0  0  0  0  0  0  0  0
   -1.4197    0.3149    1.0810 C   0  0  0  0  0  0  0  0  0  0  0  0
   -2.1678    1.5470    0.5056 C   0  0  0  0  0  0  0  0  0  0  0  0
   -3.6175    1.5040    1.0070 C   0  0  0  0  0  0  0  0  0  0  0  0
   -2.2036    1.6533   -1.0263 C   0  0  0  0  0  0  0  0  0  0  0  0
   -0.8274   -0.6972   -1.1763 H   0  0  0  0  0  0  0  0  0  0  0  0
    0.5725    1.0175    0.7081 H   0  0  0  0  0  0  0  0  0  0  0  0
   -1.4007    0.4384    2.1694 H   0  0  0  0  0  0  0  0  0  0  0  0
   -2.0009   -0.5896    0.8707 H   0  0  0  0  0  0  0  0  0  0  0  0
   -1.6878    2.4514    0.8948 H   0  0  0  0  0  0  0  0  0  0  0  0
   -4.1401    0.6284    0.6084 H   0  0  0  0  0  0  0  0  0  0  0  0
   -4.1582    2.4031    0.6955 H   0  0  0  0  0  0  0  0  0  0  0  0
   -3.6423    1.4547    2.1002 H   0  0  0  0  0  0  0  0  0  0  0  0
   -2.5408    0.7127   -1.4726 H   0  0  0  0  0  0  0  0  0  0  0  0
   -2.8892    2.4477   -1.3377 H   0  0  0  0  0  0  0  0  0  0  0  0
   -1.2143    1.9048   -1.4192 H   0  0  0  0  0  0  0  0  0  0  0  0
    2.1370   -1.2104    1.3138 N   0  0  0  0  0  0  0  0  0  0  0  0
    2.7639   -2.4765    1.7335 C   0  0  2  0  0  0  0  0  0  0  0  0
    1.9737   -3.7528    1.3229 C   0  0  0  0  0  0  0  0  0  0  0  0
    1.1633   -3.7398    0.4011 O   0  0  0  0  0  0  0  0  0  0  0  0
    3.0627   -2.4244    3.2407 C   0  0  0  0  0  0  0  0  0  0  0  0
    2.5066   -0.7975    0.4526 H   0  0  0  0  0  0  0  0  0  0  0  0
    3.7233   -2.5447    1.2116 H   0  0  0  0  0  0  0  0  0  0  0  0
    2.1416   -2.5075    3.8261 H   0  0  0  0  0  0  0  0  0  0  0  0
    3.7312   -3.2406    3.5286 H   0  0  0  0  0  0  0  0  0  0  0  0
    3.5501   -1.4783    3.4953 H   0  0  0  0  0  0  0  0  0  0  0  0
    2.2220   -4.9612    1.9518 N   0  0  0  0  0  0  0  0  0  0  0  0
    1.5025   -6.1888    1.6378 C   0  0  0  0  0  0  0  0  0  0  0  0
    2.8435   -4.9464    2.7532 H   0  0  0  0  0  0  0  0  0  0  0  0
    1.8659   -7.0108    2.2617 H   0  0  0  0  0  0  0  0  0  0  0  0
    0.4305   -6.0609    1.8216 H   0  0  0  0  0  0  0  0  0  0  0  0
    1.6504   -6.4607    0.5872 H   0  0  0  0  0  0  0  0  0  0  0  0
  1  2  2  0  0  0  0
  1  3  1  0  0  0  0
  1  7  1  0  0  0  0
  3  4  1  0  0  0  0
  3  5  1  0  0  0  0
  3  6  1  0  0  0  0
  7  8  1  0  0  0  0
  7 12  1  0  0  0  0
  8  9  1  0  0  0  0
  8 11  1  0  0  0  0
  8 13  1  0  0  0  0
  9 10  2  0  0  0  0
  9 17  1  0  0  0  0
 11 14  1  0  0  0  0
 11 15  1  0  0  0  0
 11 16  1  0  0  0  0
 17 18  1  0  0  0  0
 17 25  1  0  0  0  0
 18 19  1  0  0  0  0
 18 21  1  0  0  0  0
 18 26  1  0  0  0  0
 19 20  2  0  0  0  0
 19 36  1  0  0  0  0
 21 22  1  0  0  0  0
 21 27  1  0  0  0  0
 21 28  1  0  0  0  0
 22 23  1  0  0  0  0
 22 24  1  0  0  0  0
 22 29  1  0  0  0  0
 23 30  1  0  0  0  0
 23 31  1  0  0  0  0
 23 32  1  0  0  0  0
 24 33  1  0  0  0  0
 24 34  1  0  0  0  0
 24 35  1  0  0  0  0
 36 37  1  0  0  0  0
 36 41  1  0  0  0  0
 37 38  1  0  0  0  0
 37 40  1  0  0  0  0
 37 42  1  0  0  0  0
 38 39  2  0  0  0  0
 38 46  1  0  0  0  0
 40 43  1  0  0  0  0
 40 44  1  0  0  0  0
 40 45  1  0  0  0  0
 46 47  1  0  0  0  0
 46 48  1  0  0  0  0
 47 49  1  0  0  0  0
 47 50  1  0  0  0  0
 47 51  1  0  0  0  0
M  END
$$$$

  -OEChem-05262216553D

 51 50  0     1  0  0  0  0  0999 V2000
    3.1612   -2.8323   -3.5471 C   0  0  0  0  0  0  0  0  0  0  0  0
    2.6497   -2.7792   -4.6555 O   0  0  0  0  0  0  0  0  0  0  0  0
    4.4918   -3.5332   -3.3499 C   0  0  0  0  0  0  0  0  0  0  0  0
    5.2462   -2.8122   -3.0251 H   0  0  0  0  0  0  0  0  0  0  0  0
    4.3941   -4.3099   -2.5873 H   0  0  0  0  0  0  0  0  0  0  0  0
    4.8203   -3.9940   -4.2853 H   0  0  0  0  0  0  0  0  0  0  0  0
    2.5256   -2.2643   -2.4654 N   0  0  0  0  0  0  0  0  0  0  0  0
    1.3049   -1.4479   -2.5491 C   0  0  2  0  0  0  0  0  0  0  0  0
    1.2285   -0.4231   -1.3943 C   0  0  0  0  0  0  0  0  0  0  0  0
    2.2349    0.1701   -1.0239 O   0  0  0  0  0  0  0  0  0  0  0  0
    0.0945   -2.3940   -2.5740 C   0  0  0  0  0  0  0  0  0  0  0  0
    3.0453   -2.2849   -1.5817 H   0  0  0  0  0  0  0  0  0  0  0  0
    1.3174   -0.8706   -3.4802 H   0  0  0  0  0  0  0  0  0  0  0  0
    0.0137   -2.9412   -1.6296 H   0  0  0  0  0  0  0  0  0  0  0  0
   -0.8305   -1.8339   -2.7395 H   0  0  0  0  0  0  0  0  0  0  0  0
    0.1971   -3.1201   -3.3868 H   0  0  0  0  0  0  0  0  0  0  0  0
    0.0504   -0.1804   -0.7066 N   0  0  0  0  0  0  0  0  0  0  0  0
   -0.0014    0.1334    0.7359 C   0  0  2  0  0  0  0  0  0  0  0  0
    0.8994   -0.7978    1.5958 C   0  0  0  0  0  0  0  0  0  0  0  0
    0.4130   -1.7792    2.1481 O   0  0  0  0  0  0  0  0  0  0  0  0
   -1.4615    0.1304    1.2536 C   0  0  0  0  0  0  0  0  0  0  0  0
   -2.4091    1.2307    0.7079 C   0  0  0  0  0  0  0  0  0  0  0  0
   -3.8237    0.9500    1.2329 C   0  0  0  0  0  0  0  0  0  0  0  0
   -2.4883    1.3399   -0.8223 C   0  0  0  0  0  0  0  0  0  0  0  0
   -0.7453   -0.7033   -1.0609 H   0  0  0  0  0  0  0  0  0  0  0  0
    0.3873    1.1477    0.8736 H   0  0  0  0  0  0  0  0  0  0  0  0
   -1.4363    0.2293    2.3446 H   0  0  0  0  0  0  0  0  0  0  0  0
   -1.8967   -0.8500    1.0308 H   0  0  0  0  0  0  0  0  0  0  0  0
   -2.0740    2.1978    1.0981 H   0  0  0  0  0  0  0  0  0  0  0  0
   -4.2034    0.0014    0.8397 H   0  0  0  0  0  0  0  0  0  0  0  0
   -4.5095    1.7491    0.9341 H   0  0  0  0  0  0  0  0  0  0  0  0
   -3.8213    0.8966    2.3261 H   0  0  0  0  0  0  0  0  0  0  0  0
   -2.6844    0.3616   -1.2719 H   0  0  0  0  0  0  0  0  0  0  0  0
   -3.2940    2.0208   -1.1145 H   0  0  0  0  0  0  0  0  0  0  0  0
   -1.5580    1.7445   -1.2307 H   0  0  0  0  0  0  0  0  0  0  0  0
    2.2732   -0.6261    1.5943 N   0  0  0  0  0  0  0  0  0  0  0  0
    3.2614   -1.6675    1.9263 C   0  0  2  0  0  0  0  0  0  0  0  0
    3.1613   -2.8911    0.9863 C   0  0  0  0  0  0  0  0  0  0  0  0
    3.9110   -2.9819    0.0202 O   0  0  0  0  0  0  0  0  0  0  0  0
    3.2065   -2.0601    3.4108 C   0  0  0  0  0  0  0  0  0  0  0  0
    2.5746    0.0390    0.8745 H   0  0  0  0  0  0  0  0  0  0  0  0
    4.2521   -1.2333    1.7569 H   0  0  0  0  0  0  0  0  0  0  0  0
    2.2776   -2.5804    3.6593 H   0  0  0  0  0  0  0  0  0  0  0  0
    4.0425   -2.7233    3.6533 H   0  0  0  0  0  0  0  0  0  0  0  0
    3.2804   -1.1671    4.0385 H   0  0  0  0  0  0  0  0  0  0  0  0
    2.1446   -3.8145    1.1272 N   0  0  0  0  0  0  0  0  0  0  0  0
    1.9045   -4.9044    0.1903 C   0  0  0  0  0  0  0  0  0  0  0  0
    1.3916   -3.5331    1.7611 H   0  0  0  0  0  0  0  0  0  0  0  0
    1.0611   -5.5131    0.5307 H   0  0  0  0  0  0  0  0  0  0  0  0
    1.6727   -4.5150   -0.8059 H   0  0  0  0  0  0  0  0  0  0  0  0
    2.7874   -5.5487    0.1199 H   0  0  0  0  0  0  0  0  0  0  0  0
  1  2  2  0  0  0  0
  1  3  1  0  0  0  0
  1  7  1  0  0  0  0
  3  4  1  0  0  0  0
  3  5  1  0  0  0  0
  3  6  1  0  0  0  0
  7  8  1  0  0  0  0
  7 12  1  0  0  0  0
  8  9  1  0  0  0  0
  8 11  1  0  0  0  0
  8 13  1  0  0  0  0
  9 10  2  0  0  0  0
  9 17  1  0  0  0  0
 11 14  1  0  0  0  0
 11 15  1  0  0  0  0
 11 16  1  0  0  0  0
 17 18  1  0  0  0  0
 17 25  1  0  0  0  0
 18 19  1  0  0  0  0
 18 21  1  0  0  0  0
 18 26  1  0  0  0  0
 19 20  2  0  0  0  0
 19 36  1  0  0  0  0
 21 22  1  0  0  0  0
 21 27  1  0  0  0  0
 21 28  1  0  0  0  0
 22 23  1  0  0  0  0
 22 24  1  0  0  0  0
 22 29  1  0  0  0  0
 23 30  1  0  0  0  0
 23 31  1  0  0  0  0
 23 32  1  0  0  0  0
 24 33  1  0  0  0  0
 24 34  1  0  0  0  0
 24 35  1  0  0  0  0
 36 37  1  0  0  0  0
 36 41  1  0  0  0  0
 37 38  1  0  0  0  0
 37 40  1  0  0  0  0
 37 42  1  0  0  0  0
 38 39  2  0  0  0  0
 38 46  1  0  0  0  0
 40 43  1  0  0  0  0
 40 44  1  0  0  0  0
 40 45  1  0  0  0  0
 46 47  1  0  0  0  0
 46 48  1  0  0  0  0
 47 49  1  0  0  0  0
 47 50  1  0  0  0  0
 47 51  1  0  0  0  0
M  END
$$$$

  -OEChem-05262216553D

 51 50  0     1  0  0  0  0  0999 V2000
    3.3020   -2.8087   -3.3849 C   0  0  0  0  0  0  0  0  0  0  0  0
    2.7842   -2.8710   -4.4901 O   0  0  0  0  0  0  0  0  0  0  0  0
    4.6841   -3.3877   -3.1501 C   0  0  0  0  0  0  0  0  0  0  0  0
    5.3636   -2.6006   -2.8141 H   0  0  0  0  0  0  0  0  0  0  0  0
    4.6368   -4.1640   -2.3824 H   0  0  0  0  0  0  0  0  0  0  0  0
    5.0751   -3.8236   -4.0731 H   0  0  0  0  0  0  0  0  0  0  0  0
    2.6251   -2.2249   -2.3379 N   0  0  0  0  0  0  0  0  0  0  0  0
    1.3439   -1.5131   -2.4610 C   0  0  2  0  0  0  0  0  0  0  0  0
    1.2104   -0.4129   -1.3845 C   0  0  0  0  0  0  0  0  0  0  0  0
    2.2046    0.1768   -0.9728 O   0  0  0  0  0  0  0  0  0  0  0  0
    0.2111   -2.5463   -2.3761 C   0  0  0  0  0  0  0  0  0  0  0  0
    3.1475   -2.1399   -1.4593 H   0  0  0  0  0  0  0  0  0  0  0  0
    1.2949   -1.0134   -3.4346 H   0  0  0  0  0  0  0  0  0  0  0  0
    0.1820   -3.0038   -1.3820 H   0  0  0  0  0  0  0  0  0  0  0  0
   -0.7563   -2.0773   -2.5777 H   0  0  0  0  0  0  0  0  0  0  0  0
    0.3633   -3.3371   -3.1178 H   0  0  0  0  0  0  0  0  0  0  0  0
    0.0031   -0.1240   -0.7668 N   0  0  0  0  0  0  0  0  0  0  0  0
   -0.0475    0.1809    0.6758 C   0  0  2  0  0  0  0  0  0  0  0  0
    0.8061   -0.8214    1.4969 C   0  0  0  0  0  0  0  0  0  0  0  0
    0.3196   -1.8878    1.8589 O   0  0  0  0  0  0  0  0  0  0  0  0
   -1.5025    0.2238    1.2018 C   0  0  0  0  0  0  0  0  0  0  0  0
   -2.4140    1.3594    0.6684 C   0  0  0  0  0  0  0  0  0  0  0  0
   -3.8348    1.1249    1.1991 C   0  0  0  0  0  0  0  0  0  0  0  0
   -2.4937    1.4789   -0.8607 C   0  0  0  0  0  0  0  0  0  0  0  0
   -0.7795   -0.6659   -1.1216 H   0  0  0  0  0  0  0  0  0  0  0  0
    0.3846    1.1747    0.8325 H   0  0  0  0  0  0  0  0  0  0  0  0
   -1.4671    0.3102    2.2934 H   0  0  0  0  0  0  0  0  0  0  0  0
   -1.9734   -0.7383    0.9714 H   0  0  0  0  0  0  0  0  0  0  0  0
   -2.0440    2.3121    1.0626 H   0  0  0  0  0  0  0  0  0  0  0  0
   -4.2488    0.1923    0.8023 H   0  0  0  0  0  0  0  0  0  0  0  0
   -4.4941    1.9487    0.9081 H   0  0  0  0  0  0  0  0  0  0  0  0
   -3.8291    1.0647    2.2921 H   0  0  0  0  0  0  0  0  0  0  0  0
   -2.7204    0.5090   -1.3141 H   0  0  0  0  0  0  0  0  0  0  0  0
   -3.2788    2.1854   -1.1479 H   0  0  0  0  0  0  0  0  0  0  0  0
   -1.5518    1.8559   -1.2692 H   0  0  0  0  0  0  0  0  0  0  0  0
    2.1410   -0.5456    1.7378 N   0  0  0  0  0  0  0  0  0  0  0  0
    3.1422   -1.5564    2.1232 C   0  0  2  0  0  0  0  0  0  0  0  0
    3.2358   -2.7316    1.1185 C   0  0  0  0  0  0  0  0  0  0  0  0
    4.0535   -2.6943    0.2054 O   0  0  0  0  0  0  0  0  0  0  0  0
    2.9229   -2.0326    3.5675 C   0  0  0  0  0  0  0  0  0  0  0  0
    2.4908    0.1904    1.1184 H   0  0  0  0  0  0  0  0  0  0  0  0
    4.1202   -1.0649    2.1012 H   0  0  0  0  0  0  0  0  0  0  0  0
    1.9792   -2.5741    3.6764 H   0  0  0  0  0  0  0  0  0  0  0  0
    3.7362   -2.6994    3.8700 H   0  0  0  0  0  0  0  0  0  0  0  0
    2.9085   -1.1751    4.2468 H   0  0  0  0  0  0  0  0  0  0  0  0
    2.3422   -3.7834    1.1665 N   0  0  0  0  0  0  0  0  0  0  0  0
    2.3118   -4.8638    0.1888 C   0  0  0  0  0  0  0  0  0  0  0  0
    1.5012   -3.6011    1.7197 H   0  0  0  0  0  0  0  0  0  0  0  0
    1.5702   -5.6134    0.4810 H   0  0  0  0  0  0  0  0  0  0  0  0
    2.0487   -4.4833   -0.8021 H   0  0  0  0  0  0  0  0  0  0  0  0
    3.2892   -5.3539    0.1286 H   0  0  0  0  0  0  0  0  0  0  0  0
  1  2  2  0  0  0  0
  1  3  1  0  0  0  0
  1  7  1  0  0  0  0
  3  4  1  0  0  0  0
  3  5  1  0  0  0  0
  3  6  1  0  0  0  0
  7  8  1  0  0  0  0
  7 12  1  0  0  0  0
  8  9  1  0  0  0  0
  8 11  1  0  0  0  0
  8 13  1  0  0  0  0
  9 10  2  0  0  0  0
  9 17  1  0  0  0  0
 11 14  1  0  0  0  0
 11 15  1  0  0  0  0
 11 16  1  0  0  0  0
 17 18  1  0  0  0  0
 17 25  1  0  0  0  0
 18 19  1  0  0  0  0
 18 21  1  0  0  0  0
 18 26  1  0  0  0  0
 19 20  2  0  0  0  0
 19 36  1  0  0  0  0
 21 22  1  0  0  0  0
 21 27  1  0  0  0  0
 21 28  1  0  0  0  0
 22 23  1  0  0  0  0
 22 24  1  0  0  0  0
 22 29  1  0  0  0  0
 23 30  1  0  0  0  0
 23 31  1  0  0  0  0
 23 32  1  0  0  0  0
 24 33  1  0  0  0  0
 24 34  1  0  0  0  0
 24 35  1  0  0  0  0
 36 37  1  0  0  0  0
 36 41  1  0  0  0  0
 37 38  1  0  0  0  0
 37 40  1  0  0  0  0
 37 42  1  0  0  0  0
 38 39  2  0  0  0  0
 38 46  1  0  0  0  0
 40 43  1  0  0  0  0
 40 44  1  0  0  0  0
 40 45  1  0  0  0  0
 46 47  1  0  0  0  0
 46 48  1  0  0  0  0
 47 49  1  0  0  0  0
 47 50  1  0  0  0  0
 47 51  1  0  0  0  0
M  END
$$$$

  -OEChem-05262216553D

 51 50  0     1  0  0  0  0  0999 V2000
    3.1141   -2.6895   -3.8272 C   0  0  0  0  0  0  0  0  0  0  0  0
    2.3425   -2.8396   -4.7616 O   0  0  0  0  0  0  0  0  0  0  0  0
    4.5860   -3.0179   -3.9906 C   0  0  0  0  0  0  0  0  0  0  0  0
    4.8845   -3.7684   -3.2546 H   0  0  0  0  0  0  0  0  0  0  0  0
    4.7758   -3.4122   -4.9929 H   0  0  0  0  0  0  0  0  0  0  0  0
    5.1879   -2.1175   -3.8456 H   0  0  0  0  0  0  0  0  0  0  0  0
    2.6490   -2.2222   -2.6171 N   0  0  0  0  0  0  0  0  0  0  0  0
    1.2813   -1.7399   -2.3842 C   0  0  2  0  0  0  0  0  0  0  0  0
    1.2462   -0.7030   -1.2410 C   0  0  0  0  0  0  0  0  0  0  0  0
    2.2915   -0.2774   -0.7566 O   0  0  0  0  0  0  0  0  0  0  0  0
    0.3914   -2.9476   -2.0611 C   0  0  0  0  0  0  0  0  0  0  0  0
    3.3486   -1.9746   -1.9167 H   0  0  0  0  0  0  0  0  0  0  0  0
    0.9057   -1.2455   -3.2867 H   0  0  0  0  0  0  0  0  0  0  0  0
    0.7109   -3.4194   -1.1270 H   0  0  0  0  0  0  0  0  0  0  0  0
   -0.6542   -2.6439   -1.9582 H   0  0  0  0  0  0  0  0  0  0  0  0
    0.4512   -3.6899   -2.8636 H   0  0  0  0  0  0  0  0  0  0  0  0
    0.0502   -0.2618   -0.6994 N   0  0  0  0  0  0  0  0  0  0  0  0
   -0.0362    0.1486    0.7130 C   0  0  2  0  0  0  0  0  0  0  0  0
    0.6836   -0.8644    1.6390 C   0  0  0  0  0  0  0  0  0  0  0  0
    0.1878   -1.9721    1.8168 O   0  0  0  0  0  0  0  0  0  0  0  0
   -1.5012    0.3382    1.1712 C   0  0  0  0  0  0  0  0  0  0  0  0
   -2.2989    1.4981    0.5204 C   0  0  0  0  0  0  0  0  0  0  0  0
   -3.7528    1.4119    1.0025 C   0  0  0  0  0  0  0  0  0  0  0  0
   -2.3135    1.5108   -1.0153 C   0  0  0  0  0  0  0  0  0  0  0  0
   -0.7781   -0.7072   -1.0838 H   0  0  0  0  0  0  0  0  0  0  0  0
    0.4702    1.1130    0.8222 H   0  0  0  0  0  0  0  0  0  0  0  0
   -1.5002    0.4996    2.2550 H   0  0  0  0  0  0  0  0  0  0  0  0
   -2.0361   -0.6003    0.9878 H   0  0  0  0  0  0  0  0  0  0  0  0
   -1.8699    2.4463    0.8618 H   0  0  0  0  0  0  0  0  0  0  0  0
   -4.2251    0.4900    0.6478 H   0  0  0  0  0  0  0  0  0  0  0  0
   -4.3312    2.2638    0.6311 H   0  0  0  0  0  0  0  0  0  0  0  0
   -3.7939    1.4251    2.0961 H   0  0  0  0  0  0  0  0  0  0  0  0
   -2.5982    0.5302   -1.4093 H   0  0  0  0  0  0  0  0  0  0  0  0
   -3.0315    2.2507   -1.3837 H   0  0  0  0  0  0  0  0  0  0  0  0
   -1.3314    1.7862   -1.4100 H   0  0  0  0  0  0  0  0  0  0  0  0
    1.9163   -0.5449    2.1832 N   0  0  0  0  0  0  0  0  0  0  0  0
    2.8317   -1.4796    2.8693 C   0  0  2  0  0  0  0  0  0  0  0  0
    3.3870   -2.6049    1.9631 C   0  0  0  0  0  0  0  0  0  0  0  0
    4.5970   -2.7384    1.8334 O   0  0  0  0  0  0  0  0  0  0  0  0
    2.2018   -2.0534    4.1469 C   0  0  0  0  0  0  0  0  0  0  0  0
    2.3640    0.2418    1.7146 H   0  0  0  0  0  0  0  0  0  0  0  0
    3.6996   -0.8922    3.1861 H   0  0  0  0  0  0  0  0  0  0  0  0
    1.3903   -2.7493    3.9166 H   0  0  0  0  0  0  0  0  0  0  0  0
    2.9574   -2.5942    4.7252 H   0  0  0  0  0  0  0  0  0  0  0  0
    1.8027   -1.2461    4.7680 H   0  0  0  0  0  0  0  0  0  0  0  0
    2.5439   -3.4722    1.2964 N   0  0  0  0  0  0  0  0  0  0  0  0
    2.9985   -4.5515    0.4305 C   0  0  0  0  0  0  0  0  0  0  0  0
    1.5416   -3.3000    1.4111 H   0  0  0  0  0  0  0  0  0  0  0  0
    2.1468   -5.1514    0.0963 H   0  0  0  0  0  0  0  0  0  0  0  0
    3.5068   -4.1470   -0.4505 H   0  0  0  0  0  0  0  0  0  0  0  0
    3.6917   -5.2077    0.9671 H   0  0  0  0  0  0  0  0  0  0  0  0
  1  2  2  0  0  0  0
  1  3  1  0  0  0  0
  1  7  1  0  0  0  0
  3  4  1  0  0  0  0
  3  5  1  0  0  0  0
  3  6  1  0  0  0  0
  7  8  1  0  0  0  0
  7 12  1  0  0  0  0
  8  9  1  0  0  0  0
  8 11  1  0  0  0  0
  8 13  1  0  0  0  0
  9 10  2  0  0  0  0
  9 17  1  0  0  0  0
 11 14  1  0  0  0  0
 11 15  1  0  0  0  0
 11 16  1  0  0  0  0
 17 18  1  0  0  0  0
 17 25  1  0  0  0  0
 18 19  1  0  0  0  0
 18 21  1  0  0  0  0
 18 26  1  0  0  0  0
 19 20  2  0  0  0  0
 19 36  1  0  0  0  0
 21 22  1  0  0  0  0
 21 27  1  0  0  0  0
 21 28  1  0  0  0  0
 22 23  1  0  0  0  0
 22 24  1  0  0  0  0
 22 29  1  0  0  0  0
 23 30  1  0  0  0  0
 23 31  1  0  0  0  0
 23 32  1  0  0  0  0
 24 33  1  0  0  0  0
 24 34  1  0  0  0  0
 24 35  1  0  0  0  0
 36 37  1  0  0  0  0
 36 41  1  0  0  0  0
 37 38  1  0  0  0  0
 37 40  1  0  0  0  0
 37 42  1  0  0  0  0
 38 39  2  0  0  0  0
 38 46  1  0  0  0  0
 40 43  1  0  0  0  0
 40 44  1  0  0  0  0
 40 45  1  0  0  0  0
 46 47  1  0  0  0  0
 46 48  1  0  0  0  0
 47 49  1  0  0  0  0
 47 50  1  0  0  0  0
 47 51  1  0  0  0  0
M  END
$$$$

  -OEChem-05262216553D

 51 50  0     1  0  0  0  0  0999 V2000
    3.0463   -2.5861   -3.9793 C   0  0  0  0  0  0  0  0  0  0  0  0
    2.2089   -2.7485   -4.8529 O   0  0  0  0  0  0  0  0  0  0  0  0
    4.5174   -2.8004   -4.2831 C   0  0  0  0  0  0  0  0  0  0  0  0
    4.9256   -3.5728   -3.6268 H   0  0  0  0  0  0  0  0  0  0  0  0
    4.6455   -3.1171   -5.3221 H   0  0  0  0  0  0  0  0  0  0  0  0
    5.0701   -1.8707   -4.1272 H   0  0  0  0  0  0  0  0  0  0  0  0
    2.6561   -2.1978   -2.7154 N   0  0  0  0  0  0  0  0  0  0  0  0
    1.2850   -1.8164   -2.3516 C   0  0  2  0  0  0  0  0  0  0  0  0
    1.2737   -0.8116   -1.1808 C   0  0  0  0  0  0  0  0  0  0  0  0
    2.3258   -0.4600   -0.6543 O   0  0  0  0  0  0  0  0  0  0  0  0
    0.5099   -3.0860   -1.9784 C   0  0  0  0  0  0  0  0  0  0  0  0
    3.3922   -1.9374   -2.0589 H   0  0  0  0  0  0  0  0  0  0  0  0
    0.7981   -1.3320   -3.2048 H   0  0  0  0  0  0  0  0  0  0  0  0
    0.9582   -3.5640   -1.1019 H   0  0  0  0  0  0  0  0  0  0  0  0
   -0.5336   -2.8505   -1.7488 H   0  0  0  0  0  0  0  0  0  0  0  0
    0.5242   -3.7983   -2.8096 H   0  0  0  0  0  0  0  0  0  0  0  0
    0.0849   -0.3081   -0.6800 N   0  0  0  0  0  0  0  0  0  0  0  0
   -0.0259    0.1208    0.7247 C   0  0  2  0  0  0  0  0  0  0  0  0
    0.6134   -0.9101    1.6874 C   0  0  0  0  0  0  0  0  0  0  0  0
    0.1938   -2.0630    1.6871 O   0  0  0  0  0  0  0  0  0  0  0  0
   -1.4955    0.3668    1.1374 C   0  0  0  0  0  0  0  0  0  0  0  0
   -2.2348    1.5461    0.4529 C   0  0  0  0  0  0  0  0  0  0  0  0
   -3.7045    1.5146    0.8941 C   0  0  0  0  0  0  0  0  0  0  0  0
   -2.2038    1.5436   -1.0825 C   0  0  0  0  0  0  0  0  0  0  0  0
   -0.7523   -0.7092   -1.0927 H   0  0  0  0  0  0  0  0  0  0  0  0
    0.5182    1.0640    0.8373 H   0  0  0  0  0  0  0  0  0  0  0  0
   -1.5209    0.5405    2.2189 H   0  0  0  0  0  0  0  0  0  0  0  0
   -2.0567   -0.5553    0.9479 H   0  0  0  0  0  0  0  0  0  0  0  0
   -1.7845    2.4832    0.7982 H   0  0  0  0  0  0  0  0  0  0  0  0
   -4.1982    0.6051    0.5363 H   0  0  0  0  0  0  0  0  0  0  0  0
   -4.2436    2.3806    0.4968 H   0  0  0  0  0  0  0  0  0  0  0  0
   -3.7768    1.5421    1.9859 H   0  0  0  0  0  0  0  0  0  0  0  0
   -2.5115    0.5695   -1.4754 H   0  0  0  0  0  0  0  0  0  0  0  0
   -2.8832    2.3049   -1.4789 H   0  0  0  0  0  0  0  0  0  0  0  0
   -1.2012    1.7801   -1.4497 H   0  0  0  0  0  0  0  0  0  0  0  0
    1.6658   -0.5399    2.5087 N   0  0  0  0  0  0  0  0  0  0  0  0
    2.4902   -1.4448    3.3373 C   0  0  2  0  0  0  0  0  0  0  0  0
    3.3316   -2.4656    2.5330 C   0  0  0  0  0  0  0  0  0  0  0  0
    4.5338   -2.5563    2.7458 O   0  0  0  0  0  0  0  0  0  0  0  0
    1.6489   -2.1493    4.4111 C   0  0  0  0  0  0  0  0  0  0  0  0
    2.0853    0.3556    2.2709 H   0  0  0  0  0  0  0  0  0  0  0  0
    3.2104   -0.8139    3.8684 H   0  0  0  0  0  0  0  0  0  0  0  0
    0.9771   -2.8909    3.9698 H   0  0  0  0  0  0  0  0  0  0  0  0
    2.3051   -2.6647    5.1194 H   0  0  0  0  0  0  0  0  0  0  0  0
    1.0492   -1.4198    4.9633 H   0  0  0  0  0  0  0  0  0  0  0  0
    2.7520   -3.2882    1.5872 N   0  0  0  0  0  0  0  0  0  0  0  0
    3.4874   -4.2426    0.7703 C   0  0  0  0  0  0  0  0  0  0  0  0
    1.7479   -3.1616    1.4390 H   0  0  0  0  0  0  0  0  0  0  0  0
    2.8034   -4.7733    0.1016 H   0  0  0  0  0  0  0  0  0  0  0  0
    4.2369   -3.7269    0.1615 H   0  0  0  0  0  0  0  0  0  0  0  0
    3.9920   -4.9792    1.4042 H   0  0  0  0  0  0  0  0  0  0  0  0
  1  2  2  0  0  0  0
  1  3  1  0  0  0  0
  1  7  1  0  0  0  0
  3  4  1  0  0  0  0
  3  5  1  0  0  0  0
  3  6  1  0  0  0  0
  7  8  1  0  0  0  0
  7 12  1  0  0  0  0
  8  9  1  0  0  0  0
  8 11  1  0  0  0  0
  8 13  1  0  0  0  0
  9 10  2  0  0  0  0
  9 17  1  0  0  0  0
 11 14  1  0  0  0  0
 11 15  1  0  0  0  0
 11 16  1  0  0  0  0
 17 18  1  0  0  0  0
 17 25  1  0  0  0  0
 18 19  1  0  0  0  0
 18 21  1  0  0  0  0
 18 26  1  0  0  0  0
 19 20  2  0  0  0  0
 19 36  1  0  0  0  0
 21 22  1  0  0  0  0
 21 27  1  0  0  0  0
 21 28  1  0  0  0  0
 22 23  1  0  0  0  0
 22 24  1  0  0  0  0
 22 29  1  0  0  0  0
 23 30  1  0  0  0  0
 23 31  1  0  0  0  0
 23 32  1  0  0  0  0
 24 33  1  0  0  0  0
 24 34  1  0  0  0  0
 24 35  1  0  0  0  0
 36 37  1  0  0  0  0
 36 41  1  0  0  0  0
 37 38  1  0  0  0  0
 37 40  1  0  0  0  0
 37 42  1  0  0  0  0
 38 39  2  0  0  0  0
 38 46  1  0  0  0  0
 40 43  1  0  0  0  0
 40 44  1  0  0  0  0
 40 45  1  0  0  0  0
 46 47  1  0  0  0  0
 46 48  1  0  0  0  0
 47 49  1  0  0  0  0
 47 50  1  0  0  0  0
 47 51  1  0  0  0  0
M  END
$$$$

  -OEChem-05262216553D

 51 50  0     1  0  0  0  0  0999 V2000
    2.9923   -2.4083   -4.1401 C   0  0  0  0  0  0  0  0  0  0  0  0
    2.1237   -2.4900   -4.9942 O   0  0  0  0  0  0  0  0  0  0  0  0
    4.4529   -2.5596   -4.5207 C   0  0  0  0  0  0  0  0  0  0  0  0
    4.8706   -3.4515   -4.0478 H   0  0  0  0  0  0  0  0  0  0  0  0
    4.5510   -2.6559   -5.6054 H   0  0  0  0  0  0  0  0  0  0  0  0
    5.0179   -1.6838   -4.1929 H   0  0  0  0  0  0  0  0  0  0  0  0
    2.6473   -2.1704   -2.8269 N   0  0  0  0  0  0  0  0  0  0  0  0
    1.2858   -1.8603   -2.3722 C   0  0  2  0  0  0  0  0  0  0  0  0
    1.2978   -0.9111   -1.1572 C   0  0  0  0  0  0  0  0  0  0  0  0
    2.3544   -0.6358   -0.5954 O   0  0  0  0  0  0  0  0  0  0  0  0
    0.5869   -3.1756   -2.0137 C   0  0  0  0  0  0  0  0  0  0  0  0
    3.4040   -1.9704   -2.1731 H   0  0  0  0  0  0  0  0  0  0  0  0
    0.7308   -1.3604   -3.1733 H   0  0  0  0  0  0  0  0  0  0  0  0
    1.1127   -3.6769   -1.1946 H   0  0  0  0  0  0  0  0  0  0  0  0
   -0.4457   -2.9926   -1.7019 H   0  0  0  0  0  0  0  0  0  0  0  0
    0.5703   -3.8445   -2.8800 H   0  0  0  0  0  0  0  0  0  0  0  0
    0.1230   -0.3590   -0.6757 N   0  0  0  0  0  0  0  0  0  0  0  0
   -0.0042    0.0657    0.7290 C   0  0  2  0  0  0  0  0  0  0  0  0
    0.5607   -0.9866    1.7144 C   0  0  0  0  0  0  0  0  0  0  0  0
    0.2536   -2.1653    1.5679 O   0  0  0  0  0  0  0  0  0  0  0  0
   -1.4710    0.3658    1.1109 C   0  0  0  0  0  0  0  0  0  0  0  0
   -2.1484    1.5760    0.4184 C   0  0  0  0  0  0  0  0  0  0  0  0
   -3.6273    1.5991    0.8276 C   0  0  0  0  0  0  0  0  0  0  0  0
   -2.0855    1.5756   -1.1162 C   0  0  0  0  0  0  0  0  0  0  0  0
   -0.7221   -0.7094   -1.1173 H   0  0  0  0  0  0  0  0  0  0  0  0
    0.5775    0.9843    0.8559 H   0  0  0  0  0  0  0  0  0  0  0  0
   -1.5153    0.5343    2.1925 H   0  0  0  0  0  0  0  0  0  0  0  0
   -2.0608   -0.5340    0.9028 H   0  0  0  0  0  0  0  0  0  0  0  0
   -1.6689    2.4933    0.7769 H   0  0  0  0  0  0  0  0  0  0  0  0
   -4.1463    0.7076    0.4606 H   0  0  0  0  0  0  0  0  0  0  0  0
   -4.1247    2.4840    0.4179 H   0  0  0  0  0  0  0  0  0  0  0  0
   -3.7213    1.6319    1.9177 H   0  0  0  0  0  0  0  0  0  0  0  0
   -2.4191    0.6137   -1.5180 H   0  0  0  0  0  0  0  0  0  0  0  0
   -2.7293    2.3607   -1.5250 H   0  0  0  0  0  0  0  0  0  0  0  0
   -1.0678    1.7769   -1.4623 H   0  0  0  0  0  0  0  0  0  0  0  0
    1.3719   -0.5975    2.7681 N   0  0  0  0  0  0  0  0  0  0  0  0
    2.0462   -1.4875    3.7376 C   0  0  2  0  0  0  0  0  0  0  0  0
    3.1345   -2.4040    3.1288 C   0  0  0  0  0  0  0  0  0  0  0  0
    4.2220   -2.4938    3.6838 O   0  0  0  0  0  0  0  0  0  0  0  0
    1.0303   -2.3063    4.5465 C   0  0  0  0  0  0  0  0  0  0  0  0
    1.6962    0.3648    2.7301 H   0  0  0  0  0  0  0  0  0  0  0  0
    2.5658   -0.8386    4.4499 H   0  0  0  0  0  0  0  0  0  0  0  0
    0.5564   -3.0749    3.9294 H   0  0  0  0  0  0  0  0  0  0  0  0
    1.5327   -2.8047    5.3813 H   0  0  0  0  0  0  0  0  0  0  0  0
    0.2509   -1.6537    4.9511 H   0  0  0  0  0  0  0  0  0  0  0  0
    2.9078   -3.1200    1.9705 N   0  0  0  0  0  0  0  0  0  0  0  0
    3.9124   -3.9310    1.2992 C   0  0  0  0  0  0  0  0  0  0  0  0
    1.9842   -3.0074    1.5461 H   0  0  0  0  0  0  0  0  0  0  0  0
    3.4998   -4.3564    0.3794 H   0  0  0  0  0  0  0  0  0  0  0  0
    4.7836   -3.3211    1.0381 H   0  0  0  0  0  0  0  0  0  0  0  0
    4.2363   -4.7522    1.9468 H   0  0  0  0  0  0  0  0  0  0  0  0
  1  2  2  0  0  0  0
  1  3  1  0  0  0  0
  1  7  1  0  0  0  0
  3  4  1  0  0  0  0
  3  5  1  0  0  0  0
  3  6  1  0  0  0  0
  7  8  1  0  0  0  0
  7 12  1  0  0  0  0
  8  9  1  0  0  0  0
  8 11  1  0  0  0  0
  8 13  1  0  0  0  0
  9 10  2  0  0  0  0
  9 17  1  0  0  0  0
 11 14  1  0  0  0  0
 11 15  1  0  0  0  0
 11 16  1  0  0  0  0
 17 18  1  0  0  0  0
 17 25  1  0  0  0  0
 18 19  1  0  0  0  0
 18 21  1  0  0  0  0
 18 26  1  0  0  0  0
 19 20  2  0  0  0  0
 19 36  1  0  0  0  0
 21 22  1  0  0  0  0
 21 27  1  0  0  0  0
 21 28  1  0  0  0  0
 22 23  1  0  0  0  0
 22 24  1  0  0  0  0
 22 29  1  0  0  0  0
 23 30  1  0  0  0  0
 23 31  1  0  0  0  0
 23 32  1  0  0  0  0
 24 33  1  0  0  0  0
 24 34  1  0  0  0  0
 24 35  1  0  0  0  0
 36 37  1  0  0  0  0
 36 41  1  0  0  0  0
 37 38  1  0  0  0  0
 37 40  1  0  0  0  0
 37 42  1  0  0  0  0
 38 39  2  0  0  0  0
 38 46  1  0  0  0  0
 40 43  1  0  0  0  0
 40 44  1  0  0  0  0
 40 45  1  0  0  0  0
 46 47  1  0  0  0  0
 46 48  1  0  0  0  0
 47 49  1  0  0  0  0
 47 50  1  0  0  0  0
 47 51  1  0  0  0  0
M  END
$$$$

  -OEChem-05262216553D

 51 50  0     1  0  0  0  0  0999 V2000
    3.0183   -2.3336   -4.1693 C   0  0  0  0  0  0  0  0  0  0  0  0
    2.1595   -2.3631   -5.0367 O   0  0  0  0  0  0  0  0  0  0  0  0
    4.4775   -2.5312   -4.5338 C   0  0  0  0  0  0  0  0  0  0  0  0
    4.8649   -3.4277   -4.0436 H   0  0  0  0  0  0  0  0  0  0  0  0
    4.5837   -2.6465   -5.6161 H   0  0  0  0  0  0  0  0  0  0  0  0
    5.0634   -1.6665   -4.2134 H   0  0  0  0  0  0  0  0  0  0  0  0
    2.6644   -2.1166   -2.8549 N   0  0  0  0  0  0  0  0  0  0  0  0
    1.3052   -1.7924   -2.4029 C   0  0  2  0  0  0  0  0  0  0  0  0
    1.3195   -0.9096   -1.1381 C   0  0  0  0  0  0  0  0  0  0  0  0
    2.3711   -0.6901   -0.5431 O   0  0  0  0  0  0  0  0  0  0  0  0
    0.5617   -3.1037   -2.1269 C   0  0  0  0  0  0  0  0  0  0  0  0
    3.4179   -1.9757   -2.1828 H   0  0  0  0  0  0  0  0  0  0  0  0
    0.7789   -1.2346   -3.1849 H   0  0  0  0  0  0  0  0  0  0  0  0
    1.0621   -3.6677   -1.3327 H   0  0  0  0  0  0  0  0  0  0  0  0
   -0.4682   -2.9061   -1.8150 H   0  0  0  0  0  0  0  0  0  0  0  0
    0.5338   -3.7216   -3.0300 H   0  0  0  0  0  0  0  0  0  0  0  0
    0.1490   -0.3455   -0.6591 N   0  0  0  0  0  0  0  0  0  0  0  0
   -0.0082    0.0219    0.7589 C   0  0  2  0  0  0  0  0  0  0  0  0
    0.4932   -1.0746    1.7326 C   0  0  0  0  0  0  0  0  0  0  0  0
    0.3521   -2.2582    1.4420 O   0  0  0  0  0  0  0  0  0  0  0  0
   -1.4824    0.3426    1.0965 C   0  0  0  0  0  0  0  0  0  0  0  0
   -2.1065    1.5971    0.4314 C   0  0  0  0  0  0  0  0  0  0  0  0
   -3.5992    1.6364    0.7855 C   0  0  0  0  0  0  0  0  0  0  0  0
   -1.9836    1.6652   -1.0978 C   0  0  0  0  0  0  0  0  0  0  0  0
   -0.6929   -0.6477   -1.1400 H   0  0  0  0  0  0  0  0  0  0  0  0
    0.5930    0.9186    0.9399 H   0  0  0  0  0  0  0  0  0  0  0  0
   -1.5670    0.4692    2.1815 H   0  0  0  0  0  0  0  0  0  0  0  0
   -2.0837   -0.5336    0.8290 H   0  0  0  0  0  0  0  0  0  0  0  0
   -1.6228    2.4868    0.8490 H   0  0  0  0  0  0  0  0  0  0  0  0
   -4.1224    0.7764    0.3551 H   0  0  0  0  0  0  0  0  0  0  0  0
   -4.0606    2.5512    0.4001 H   0  0  0  0  0  0  0  0  0  0  0  0
   -3.7361    1.6182    1.8714 H   0  0  0  0  0  0  0  0  0  0  0  0
   -2.3238    0.7317   -1.5565 H   0  0  0  0  0  0  0  0  0  0  0  0
   -2.5926    2.4844   -1.4932 H   0  0  0  0  0  0  0  0  0  0  0  0
   -0.9486    1.8563   -1.3949 H   0  0  0  0  0  0  0  0  0  0  0  0
    1.0012   -0.7198    2.9720 N   0  0  0  0  0  0  0  0  0  0  0  0
    1.5605   -1.6322    3.9923 C   0  0  2  0  0  0  0  0  0  0  0  0
    2.8652   -2.3448    3.5650 C   0  0  0  0  0  0  0  0  0  0  0  0
    3.8365   -2.3114    4.3095 O   0  0  0  0  0  0  0  0  0  0  0  0
    0.5170   -2.6459    4.4831 C   0  0  0  0  0  0  0  0  0  0  0  0
    1.1723    0.2729    3.1039 H   0  0  0  0  0  0  0  0  0  0  0  0
    1.8245   -1.0123    4.8553 H   0  0  0  0  0  0  0  0  0  0  0  0
    0.2944   -3.3928    3.7157 H   0  0  0  0  0  0  0  0  0  0  0  0
    0.8943   -3.1710    5.3661 H   0  0  0  0  0  0  0  0  0  0  0  0
   -0.4118   -2.1355    4.7544 H   0  0  0  0  0  0  0  0  0  0  0  0
    2.9657   -2.9913    2.3492 N   0  0  0  0  0  0  0  0  0  0  0  0
    4.2061   -3.5374    1.8182 C   0  0  0  0  0  0  0  0  0  0  0  0
    2.1449   -2.9315    1.7414 H   0  0  0  0  0  0  0  0  0  0  0  0
    4.6349   -4.2647    2.5154 H   0  0  0  0  0  0  0  0  0  0  0  0
    4.0177   -4.0420    0.8658 H   0  0  0  0  0  0  0  0  0  0  0  0
    4.9335   -2.7364    1.6499 H   0  0  0  0  0  0  0  0  0  0  0  0
  1  2  2  0  0  0  0
  1  3  1  0  0  0  0
  1  7  1  0  0  0  0
  3  4  1  0  0  0  0
  3  5  1  0  0  0  0
  3  6  1  0  0  0  0
  7  8  1  0  0  0  0
  7 12  1  0  0  0  0
  8  9  1  0  0  0  0
  8 11  1  0  0  0  0
  8 13  1  0  0  0  0
  9 10  2  0  0  0  0
  9 17  1  0  0  0  0
 11 14  1  0  0  0  0
 11 15  1  0  0  0  0
 11 16  1  0  0  0  0
 17 18  1  0  0  0  0
 17 25  1  0  0  0  0
 18 19  1  0  0  0  0
 18 21  1  0  0  0  0
 18 26  1  0  0  0  0
 19 20  2  0  0  0  0
 19 36  1  0  0  0  0
 21 22  1  0  0  0  0
 21 27  1  0  0  0  0
 21 28  1  0  0  0  0
 22 23  1  0  0  0  0
 22 24  1  0  0  0  0
 22 29  1  0  0  0  0
 23 30  1  0  0  0  0
 23 31  1  0  0  0  0
 23 32  1  0  0  0  0
 24 33  1  0  0  0  0
 24 34  1  0  0  0  0
 24 35  1  0  0  0  0
 36 37  1  0  0  0  0
 36 41  1  0  0  0  0
 37 38  1  0  0  0  0
 37 40  1  0  0  0  0
 37 42  1  0  0  0  0
 38 39  2  0  0  0  0
 38 46  1  0  0  0  0
 40 43  1  0  0  0  0
 40 44  1  0  0  0  0
 40 45  1  0  0  0  0
 46 47  1  0  0  0  0
 46 48  1  0  0  0  0
 47 49  1  0  0  0  0
 47 50  1  0  0  0  0
 47 51  1  0  0  0  0
M  END
$$$$

  -OEChem-05262216553D

 51 50  0     1  0  0  0  0  0999 V2000
    3.1770   -2.8289   -2.3414 C   0  0  0  0  0  0  0  0  0  0  0  0
    2.5382   -3.5435   -1.5882 O   0  0  0  0  0  0  0  0  0  0  0  0
    4.6684   -3.0646   -2.4905 C   0  0  0  0  0  0  0  0  0  0  0  0
    5.2203   -2.2195   -2.0716 H   0  0  0  0  0  0  0  0  0  0  0  0
    4.9616   -3.9744   -1.9593 H   0  0  0  0  0  0  0  0  0  0  0  0
    4.9279   -3.1757   -3.5458 H   0  0  0  0  0  0  0  0  0  0  0  0
    2.5870   -1.8011   -3.0564 N   0  0  0  0  0  0  0  0  0  0  0  0
    1.2576   -1.2283   -2.7621 C   0  0  2  0  0  0  0  0  0  0  0  0
    1.2152   -0.4823   -1.4064 C   0  0  0  0  0  0  0  0  0  0  0  0
    2.2486   -0.0454   -0.9079 O   0  0  0  0  0  0  0  0  0  0  0  0
    0.1398   -2.2779   -2.8838 C   0  0  0  0  0  0  0  0  0  0  0  0
    3.2529   -1.1796   -3.5049 H   0  0  0  0  0  0  0  0  0  0  0  0
    1.0615   -0.4729   -3.5284 H   0  0  0  0  0  0  0  0  0  0  0  0
    0.1211   -2.9373   -2.0101 H   0  0  0  0  0  0  0  0  0  0  0  0
   -0.8358   -1.7899   -2.9623 H   0  0  0  0  0  0  0  0  0  0  0  0
    0.2903   -2.8902   -3.7782 H   0  0  0  0  0  0  0  0  0  0  0  0
    0.0177   -0.0869   -0.8294 N   0  0  0  0  0  0  0  0  0  0  0  0
   -0.0626    0.1186    0.6295 C   0  0  2  0  0  0  0  0  0  0  0  0
    0.6083   -1.0204    1.4423 C   0  0  0  0  0  0  0  0  0  0  0  0
    0.5947   -2.1580    0.9891 O   0  0  0  0  0  0  0  0  0  0  0  0
   -1.5331    0.2661    1.0882 C   0  0  0  0  0  0  0  0  0  0  0  0
   -2.3075    1.5186    0.6002 C   0  0  0  0  0  0  0  0  0  0  0  0
   -3.7697    1.3831    1.0467 C   0  0  0  0  0  0  0  0  0  0  0  0
   -2.2993    1.7535   -0.9177 C   0  0  0  0  0  0  0  0  0  0  0  0
   -0.7941   -0.5288   -1.2486 H   0  0  0  0  0  0  0  0  0  0  0  0
    0.4716    1.0434    0.8698 H   0  0  0  0  0  0  0  0  0  0  0  0
   -1.5552    0.2741    2.1833 H   0  0  0  0  0  0  0  0  0  0  0  0
   -2.0734   -0.6305    0.7647 H   0  0  0  0  0  0  0  0  0  0  0  0
   -1.8732    2.4020    1.0805 H   0  0  0  0  0  0  0  0  0  0  0  0
   -4.2454    0.5228    0.5644 H   0  0  0  0  0  0  0  0  0  0  0  0
   -4.3358    2.2832    0.7866 H   0  0  0  0  0  0  0  0  0  0  0  0
   -3.8271    1.2484    2.1315 H   0  0  0  0  0  0  0  0  0  0  0  0
   -2.5886    0.8437   -1.4527 H   0  0  0  0  0  0  0  0  0  0  0  0
   -3.0027    2.5484   -1.1851 H   0  0  0  0  0  0  0  0  0  0  0  0
   -1.3081    2.0695   -1.2548 H   0  0  0  0  0  0  0  0  0  0  0  0
    0.9058   -0.8454    2.7849 N   0  0  0  0  0  0  0  0  0  0  0  0
    1.4690   -1.8654    3.6963 C   0  0  2  0  0  0  0  0  0  0  0  0
    2.8569   -2.4157    3.2840 C   0  0  0  0  0  0  0  0  0  0  0  0
    3.7855   -2.3324    4.0786 O   0  0  0  0  0  0  0  0  0  0  0  0
    0.4750   -3.0107    3.9378 C   0  0  0  0  0  0  0  0  0  0  0  0
    0.9262    0.1179    3.1050 H   0  0  0  0  0  0  0  0  0  0  0  0
    1.6188   -1.3728    4.6625 H   0  0  0  0  0  0  0  0  0  0  0  0
    0.3506   -3.6277    3.0433 H   0  0  0  0  0  0  0  0  0  0  0  0
    0.8373   -3.6548    4.7451 H   0  0  0  0  0  0  0  0  0  0  0  0
   -0.5023   -2.6115    4.2241 H   0  0  0  0  0  0  0  0  0  0  0  0
    3.0744   -2.9987    2.0507 N   0  0  0  0  0  0  0  0  0  0  0  0
    4.3704   -3.4665    1.5835 C   0  0  0  0  0  0  0  0  0  0  0  0
    2.2929   -2.9694    1.3872 H   0  0  0  0  0  0  0  0  0  0  0  0
    4.8119   -4.1615    2.3051 H   0  0  0  0  0  0  0  0  0  0  0  0
    4.2571   -3.9895    0.6292 H   0  0  0  0  0  0  0  0  0  0  0  0
    5.0520   -2.6220    1.4409 H   0  0  0  0  0  0  0  0  0  0  0  0
  1  2  2  0  0  0  0
  1  3  1  0  0  0  0
  1  7  1  0  0  0  0
  3  4  1  0  0  0  0
  3  5  1  0  0  0  0
  3  6  1  0  0  0  0
  7  8  1  0  0  0  0
  7 12  1  0  0  0  0
  8  9  1  0  0  0  0
  8 11  1  0  0  0  0
  8 13  1  0  0  0  0
  9 10  2  0  0  0  0
  9 17  1  0  0  0  0
 11 14  1  0  0  0  0
 11 15  1  0  0  0  0
 11 16  1  0  0  0  0
 17 18  1  0  0  0  0
 17 25  1  0  0  0  0
 18 19  1  0  0  0  0
 18 21  1  0  0  0  0
 18 26  1  0  0  0  0
 19 20  2  0  0  0  0
 19 36  1  0  0  0  0
 21 22  1  0  0  0  0
 21 27  1  0  0  0  0
 21 28  1  0  0  0  0
 22 23  1  0  0  0  0
 22 24  1  0  0  0  0
 22 29  1  0  0  0  0
 23 30  1  0  0  0  0
 23 31  1  0  0  0  0
 23 32  1  0  0  0  0
 24 33  1  0  0  0  0
 24 34  1  0  0  0  0
 24 35  1  0  0  0  0
 36 37  1  0  0  0  0
 36 41  1  0  0  0  0
 37 38  1  0  0  0  0
 37 40  1  0  0  0  0
 37 42  1  0  0  0  0
 38 39  2  0  0  0  0
 38 46  1  0  0  0  0
 40 43  1  0  0  0  0
 40 44  1  0  0  0  0
 40 45  1  0  0  0  0
 46 47  1  0  0  0  0
 46 48  1  0  0  0  0
 47 49  1  0  0  0  0
 47 50  1  0  0  0  0
 47 51  1  0  0  0  0
M  END
$$$$

  -OEChem-05262216553D

 51 50  0     1  0  0  0  0  0999 V2000
    0.8020   -2.7801   -2.1236 C   0  0  0  0  0  0  0  0  0  0  0  0
   -0.3162   -2.2920   -2.2063 O   0  0  0  0  0  0  0  0  0  0  0  0
    0.9630   -4.1897   -1.5880 C   0  0  0  0  0  0  0  0  0  0  0  0
    1.4941   -4.1640   -0.6326 H   0  0  0  0  0  0  0  0  0  0  0  0
   -0.0168   -4.6504   -1.4345 H   0  0  0  0  0  0  0  0  0  0  0  0
    1.5301   -4.7975   -2.2972 H   0  0  0  0  0  0  0  0  0  0  0  0
    1.9304   -2.0449   -2.4351 N   0  0  0  0  0  0  0  0  0  0  0  0
    1.9755   -0.5916   -2.6925 C   0  0  2  0  0  0  0  0  0  0  0  0
    1.6071    0.2341   -1.4430 C   0  0  0  0  0  0  0  0  0  0  0  0
    2.4365    0.9726   -0.9254 O   0  0  0  0  0  0  0  0  0  0  0  0
    1.1333   -0.1885   -3.9118 C   0  0  0  0  0  0  0  0  0  0  0  0
    2.8030   -2.4731   -2.1361 H   0  0  0  0  0  0  0  0  0  0  0  0
    3.0139   -0.3397   -2.9316 H   0  0  0  0  0  0  0  0  0  0  0  0
    0.0627   -0.2945   -3.7159 H   0  0  0  0  0  0  0  0  0  0  0  0
    1.3278    0.8572   -4.1702 H   0  0  0  0  0  0  0  0  0  0  0  0
    1.3931   -0.8119   -4.7725 H   0  0  0  0  0  0  0  0  0  0  0  0
    0.3665    0.1150   -0.8452 N   0  0  0  0  0  0  0  0  0  0  0  0
    0.2122   -0.0230    0.6159 C   0  0  2  0  0  0  0  0  0  0  0  0
    1.3707   -0.7418    1.3763 C   0  0  0  0  0  0  0  0  0  0  0  0
    2.1630   -1.4741    0.7890 O   0  0  0  0  0  0  0  0  0  0  0  0
   -1.1266   -0.7493    0.9182 C   0  0  0  0  0  0  0  0  0  0  0  0
   -2.4406   -0.0077    0.5535 C   0  0  0  0  0  0  0  0  0  0  0  0
   -3.6145   -0.9652    0.8002 C   0  0  0  0  0  0  0  0  0  0  0  0
   -2.5489    0.4925   -0.8953 C   0  0  0  0  0  0  0  0  0  0  0  0
   -0.2241   -0.5312   -1.3761 H   0  0  0  0  0  0  0  0  0  0  0  0
    0.1594    0.9880    1.0306 H   0  0  0  0  0  0  0  0  0  0  0  0
   -1.1799   -0.9742    1.9876 H   0  0  0  0  0  0  0  0  0  0  0  0
   -1.1085   -1.7105    0.3930 H   0  0  0  0  0  0  0  0  0  0  0  0
   -2.5442    0.8574    1.2171 H   0  0  0  0  0  0  0  0  0  0  0  0
   -3.5593   -1.8272    0.1273 H   0  0  0  0  0  0  0  0  0  0  0  0
   -4.5677   -0.4544    0.6317 H   0  0  0  0  0  0  0  0  0  0  0  0
   -3.6020   -1.3286    1.8323 H   0  0  0  0  0  0  0  0  0  0  0  0
   -2.3184   -0.3113   -1.6018 H   0  0  0  0  0  0  0  0  0  0  0  0
   -3.5629    0.8494   -1.1012 H   0  0  0  0  0  0  0  0  0  0  0  0
   -1.8681    1.3305   -1.0695 H   0  0  0  0  0  0  0  0  0  0  0  0
    1.2811   -0.8917    2.7538 N   0  0  0  0  0  0  0  0  0  0  0  0
    2.1256   -1.7335    3.6305 C   0  0  2  0  0  0  0  0  0  0  0  0
    3.6207   -1.3377    3.6904 C   0  0  0  0  0  0  0  0  0  0  0  0
    4.1861   -1.3098    4.7758 O   0  0  0  0  0  0  0  0  0  0  0  0
    1.9692   -3.2233    3.2935 C   0  0  0  0  0  0  0  0  0  0  0  0
    0.5831   -0.3115    3.2098 H   0  0  0  0  0  0  0  0  0  0  0  0
    1.7449   -1.6007    4.6484 H   0  0  0  0  0  0  0  0  0  0  0  0
    2.4461   -3.4676    2.3403 H   0  0  0  0  0  0  0  0  0  0  0  0
    2.4376   -3.8330    4.0725 H   0  0  0  0  0  0  0  0  0  0  0  0
    0.9104   -3.4917    3.2336 H   0  0  0  0  0  0  0  0  0  0  0  0
    4.3353   -1.0264    2.5509 N   0  0  0  0  0  0  0  0  0  0  0  0
    5.7380   -0.6369    2.5414 C   0  0  0  0  0  0  0  0  0  0  0  0
    3.8245   -1.0866    1.6659 H   0  0  0  0  0  0  0  0  0  0  0  0
    6.3590   -1.4266    2.9769 H   0  0  0  0  0  0  0  0  0  0  0  0
    6.0718   -0.4610    1.5143 H   0  0  0  0  0  0  0  0  0  0  0  0
    5.8831    0.2843    3.1150 H   0  0  0  0  0  0  0  0  0  0  0  0
  1  2  2  0  0  0  0
  1  3  1  0  0  0  0
  1  7  1  0  0  0  0
  3  4  1  0  0  0  0
  3  5  1  0  0  0  0
  3  6  1  0  0  0  0
  7  8  1  0  0  0  0
  7 12  1  0  0  0  0
  8  9  1  0  0  0  0
  8 11  1  0  0  0  0
  8 13  1  0  0  0  0
  9 10  2  0  0  0  0
  9 17  1  0  0  0  0
 11 14  1  0  0  0  0
 11 15  1  0  0  0  0
 11 16  1  0  0  0  0
 17 18  1  0  0  0  0
 17 25  1  0  0  0  0
 18 19  1  0  0  0  0
 18 21  1  0  0  0  0
 18 26  1  0  0  0  0
 19 20  2  0  0  0  0
 19 36  1  0  0  0  0
 21 22  1  0  0  0  0
 21 27  1  0  0  0  0
 21 28  1  0  0  0  0
 22 23  1  0  0  0  0
 22 24  1  0  0  0  0
 22 29  1  0  0  0  0
 23 30  1  0  0  0  0
 23 31  1  0  0  0  0
 23 32  1  0  0  0  0
 24 33  1  0  0  0  0
 24 34  1  0  0  0  0
 24 35  1  0  0  0  0
 36 37  1  0  0  0  0
 36 41  1  0  0  0  0
 37 38  1  0  0  0  0
 37 40  1  0  0  0  0
 37 42  1  0  0  0  0
 38 39  2  0  0  0  0
 38 46  1  0  0  0  0
 40 43  1  0  0  0  0
 40 44  1  0  0  0  0
 40 45  1  0  0  0  0
 46 47  1  0  0  0  0
 46 48  1  0  0  0  0
 47 49  1  0  0  0  0
 47 50  1  0  0  0  0
 47 51  1  0  0  0  0
M  END
$$$$

  -OEChem-05262216553D

 51 50  0     1  0  0  0  0  0999 V2000
    0.8204   -2.7832   -2.0229 C   0  0  0  0  0  0  0  0  0  0  0  0
   -0.3137   -2.3309   -2.0926 O   0  0  0  0  0  0  0  0  0  0  0  0
    1.0368   -4.1722   -1.4547 C   0  0  0  0  0  0  0  0  0  0  0  0
    1.5721   -4.1036   -0.5042 H   0  0  0  0  0  0  0  0  0  0  0  0
    0.0762   -4.6658   -1.2841 H   0  0  0  0  0  0  0  0  0  0  0  0
    1.6225   -4.7749   -2.1530 H   0  0  0  0  0  0  0  0  0  0  0  0
    1.9194   -2.0227   -2.3749 N   0  0  0  0  0  0  0  0  0  0  0  0
    1.9135   -0.5775   -2.6758 C   0  0  2  0  0  0  0  0  0  0  0  0
    1.5339    0.2760   -1.4482 C   0  0  0  0  0  0  0  0  0  0  0  0
    2.3305    1.0846   -0.9880 O   0  0  0  0  0  0  0  0  0  0  0  0
    1.0454   -0.2402   -3.8968 C   0  0  0  0  0  0  0  0  0  0  0  0
    2.8117   -2.4154   -2.0844 H   0  0  0  0  0  0  0  0  0  0  0  0
    2.9406   -0.2999   -2.9346 H   0  0  0  0  0  0  0  0  0  0  0  0
   -0.0182   -0.3844   -3.6881 H   0  0  0  0  0  0  0  0  0  0  0  0
    1.1955    0.8054   -4.1828 H   0  0  0  0  0  0  0  0  0  0  0  0
    1.3228   -0.8742   -4.7441 H   0  0  0  0  0  0  0  0  0  0  0  0
    0.3051    0.1482   -0.8290 N   0  0  0  0  0  0  0  0  0  0  0  0
    0.1661   -0.0081    0.6333 C   0  0  2  0  0  0  0  0  0  0  0  0
    1.3261   -0.7386    1.3941 C   0  0  0  0  0  0  0  0  0  0  0  0
    2.2692   -1.2576    0.8057 O   0  0  0  0  0  0  0  0  0  0  0  0
   -1.1977   -0.7018    0.9186 C   0  0  0  0  0  0  0  0  0  0  0  0
   -2.4898    0.0864    0.5697 C   0  0  0  0  0  0  0  0  0  0  0  0
   -3.6912   -0.8427    0.7944 C   0  0  0  0  0  0  0  0  0  0  0  0
   -2.5846    0.6222   -0.8672 C   0  0  0  0  0  0  0  0  0  0  0  0
   -0.2782   -0.5119   -1.3501 H   0  0  0  0  0  0  0  0  0  0  0  0
    0.1314    0.9996    1.0586 H   0  0  0  0  0  0  0  0  0  0  0  0
   -1.2704   -0.9415    1.9823 H   0  0  0  0  0  0  0  0  0  0  0  0
   -1.2070   -1.6540    0.3776 H   0  0  0  0  0  0  0  0  0  0  0  0
   -2.5693    0.9388    1.2529 H   0  0  0  0  0  0  0  0  0  0  0  0
   -3.6601   -1.6910    0.1026 H   0  0  0  0  0  0  0  0  0  0  0  0
   -4.6296   -0.3015    0.6366 H   0  0  0  0  0  0  0  0  0  0  0  0
   -3.6914   -1.2294    1.8183 H   0  0  0  0  0  0  0  0  0  0  0  0
   -2.3681   -0.1694   -1.5917 H   0  0  0  0  0  0  0  0  0  0  0  0
   -3.5904    1.0048   -1.0670 H   0  0  0  0  0  0  0  0  0  0  0  0
   -1.8862    1.4499   -1.0191 H   0  0  0  0  0  0  0  0  0  0  0  0
    1.1156   -1.1798    2.6949 N   0  0  0  0  0  0  0  0  0  0  0  0
    1.9327   -2.1322    3.4811 C   0  0  2  0  0  0  0  0  0  0  0  0
    3.3720   -1.6699    3.8124 C   0  0  0  0  0  0  0  0  0  0  0  0
    3.8304   -1.9064    4.9225 O   0  0  0  0  0  0  0  0  0  0  0  0
    1.9466   -3.5227    2.8298 C   0  0  0  0  0  0  0  0  0  0  0  0
    0.3015   -0.7873    3.1583 H   0  0  0  0  0  0  0  0  0  0  0  0
    1.4317   -2.2430    4.4483 H   0  0  0  0  0  0  0  0  0  0  0  0
    2.5479   -3.5270    1.9163 H   0  0  0  0  0  0  0  0  0  0  0  0
    2.3768   -4.2542    3.5213 H   0  0  0  0  0  0  0  0  0  0  0  0
    0.9289   -3.8377    2.5809 H   0  0  0  0  0  0  0  0  0  0  0  0
    4.1618   -1.0241    2.8823 N   0  0  0  0  0  0  0  0  0  0  0  0
    5.5501   -0.6493    3.1092 C   0  0  0  0  0  0  0  0  0  0  0  0
    3.7655   -0.9320    1.9427 H   0  0  0  0  0  0  0  0  0  0  0  0
    6.1667   -1.5415    3.2592 H   0  0  0  0  0  0  0  0  0  0  0  0
    5.9373   -0.0993    2.2459 H   0  0  0  0  0  0  0  0  0  0  0  0
    5.6352   -0.0077    3.9925 H   0  0  0  0  0  0  0  0  0  0  0  0
  1  2  2  0  0  0  0
  1  3  1  0  0  0  0
  1  7  1  0  0  0  0
  3  4  1  0  0  0  0
  3  5  1  0  0  0  0
  3  6  1  0  0  0  0
  7  8  1  0  0  0  0
  7 12  1  0  0  0  0
  8  9  1  0  0  0  0
  8 11  1  0  0  0  0
  8 13  1  0  0  0  0
  9 10  2  0  0  0  0
  9 17  1  0  0  0  0
 11 14  1  0  0  0  0
 11 15  1  0  0  0  0
 11 16  1  0  0  0  0
 17 18  1  0  0  0  0
 17 25  1  0  0  0  0
 18 19  1  0  0  0  0
 18 21  1  0  0  0  0
 18 26  1  0  0  0  0
 19 20  2  0  0  0  0
 19 36  1  0  0  0  0
 21 22  1  0  0  0  0
 21 27  1  0  0  0  0
 21 28  1  0  0  0  0
 22 23  1  0  0  0  0
 22 24  1  0  0  0  0
 22 29  1  0  0  0  0
 23 30  1  0  0  0  0
 23 31  1  0  0  0  0
 23 32  1  0  0  0  0
 24 33  1  0  0  0  0
 24 34  1  0  0  0  0
 24 35  1  0  0  0  0
 36 37  1  0  0  0  0
 36 41  1  0  0  0  0
 37 38  1  0  0  0  0
 37 40  1  0  0  0  0
 37 42  1  0  0  0  0
 38 39  2  0  0  0  0
 38 46  1  0  0  0  0
 40 43  1  0  0  0  0
 40 44  1  0  0  0  0
 40 45  1  0  0  0  0
 46 47  1  0  0  0  0
 46 48  1  0  0  0  0
 47 49  1  0  0  0  0
 47 50  1  0  0  0  0
 47 51  1  0  0  0  0
M  END
$$$$

  -OEChem-05262216553D

 51 50  0     1  0  0  0  0  0999 V2000
    0.8522   -2.7980   -2.0641 C   0  0  0  0  0  0  0  0  0  0  0  0
   -0.2871   -2.3550   -2.0536 O   0  0  0  0  0  0  0  0  0  0  0  0
    1.1027   -4.2293   -1.6301 C   0  0  0  0  0  0  0  0  0  0  0  0
    1.8350   -4.2501   -0.8193 H   0  0  0  0  0  0  0  0  0  0  0  0
    0.1738   -4.6857   -1.2768 H   0  0  0  0  0  0  0  0  0  0  0  0
    1.4845   -4.8126   -2.4716 H   0  0  0  0  0  0  0  0  0  0  0  0
    1.9267   -1.9997   -2.4055 N   0  0  0  0  0  0  0  0  0  0  0  0
    1.8897   -0.5451   -2.6519 C   0  0  2  0  0  0  0  0  0  0  0  0
    1.5110    0.2661   -1.3957 C   0  0  0  0  0  0  0  0  0  0  0  0
    2.2760    1.1163   -0.9603 O   0  0  0  0  0  0  0  0  0  0  0  0
    0.9963   -0.1891   -3.8491 C   0  0  0  0  0  0  0  0  0  0  0  0
    2.8403   -2.4049   -2.2186 H   0  0  0  0  0  0  0  0  0  0  0  0
    2.9074   -0.2385   -2.9155 H   0  0  0  0  0  0  0  0  0  0  0  0
   -0.0605   -0.3635   -3.6292 H   0  0  0  0  0  0  0  0  0  0  0  0
    1.1193    0.8679   -4.1048 H   0  0  0  0  0  0  0  0  0  0  0  0
    1.2737   -0.7900   -4.7201 H   0  0  0  0  0  0  0  0  0  0  0  0
    0.2798    0.1301   -0.7842 N   0  0  0  0  0  0  0  0  0  0  0  0
    0.1159   -0.1004    0.6665 C   0  0  2  0  0  0  0  0  0  0  0  0
    1.2461   -0.8967    1.4125 C   0  0  0  0  0  0  0  0  0  0  0  0
    2.3552   -1.0939    0.9335 O   0  0  0  0  0  0  0  0  0  0  0  0
   -1.2911   -0.7262    0.8986 C   0  0  0  0  0  0  0  0  0  0  0  0
   -2.5271    0.1602    0.5823 C   0  0  0  0  0  0  0  0  0  0  0  0
   -3.7862   -0.7037    0.7406 C   0  0  0  0  0  0  0  0  0  0  0  0
   -2.5686    0.7836   -0.8215 C   0  0  0  0  0  0  0  0  0  0  0  0
   -0.3011   -0.5064   -1.3357 H   0  0  0  0  0  0  0  0  0  0  0  0
    0.1180    0.8863    1.1401 H   0  0  0  0  0  0  0  0  0  0  0  0
   -1.3970   -1.0061    1.9491 H   0  0  0  0  0  0  0  0  0  0  0  0
   -1.3521   -1.6482    0.3110 H   0  0  0  0  0  0  0  0  0  0  0  0
   -2.5638    0.9756    1.3129 H   0  0  0  0  0  0  0  0  0  0  0  0
   -3.7959   -1.5117    0.0016 H   0  0  0  0  0  0  0  0  0  0  0  0
   -4.6874   -0.0976    0.6032 H   0  0  0  0  0  0  0  0  0  0  0  0
   -3.8250   -1.1465    1.7406 H   0  0  0  0  0  0  0  0  0  0  0  0
   -2.3828    0.0252   -1.5886 H   0  0  0  0  0  0  0  0  0  0  0  0
   -3.5482    1.2327   -1.0129 H   0  0  0  0  0  0  0  0  0  0  0  0
   -1.8233    1.5788   -0.9138 H   0  0  0  0  0  0  0  0  0  0  0  0
    0.9340   -1.6658    2.5274 N   0  0  0  0  0  0  0  0  0  0  0  0
    1.7962   -2.6335    3.2432 C   0  0  2  0  0  0  0  0  0  0  0  0
    3.0355   -2.0292    3.9456 C   0  0  0  0  0  0  0  0  0  0  0  0
    3.2785   -2.3487    5.1021 O   0  0  0  0  0  0  0  0  0  0  0  0
    2.2010   -3.8033    2.3353 C   0  0  0  0  0  0  0  0  0  0  0  0
    0.0040   -1.5206    2.9070 H   0  0  0  0  0  0  0  0  0  0  0  0
    1.1831   -3.0579    4.0449 H   0  0  0  0  0  0  0  0  0  0  0  0
    2.9207   -3.4865    1.5752 H   0  0  0  0  0  0  0  0  0  0  0  0
    2.6656   -4.5944    2.9323 H   0  0  0  0  0  0  0  0  0  0  0  0
    1.3213   -4.2183    1.8349 H   0  0  0  0  0  0  0  0  0  0  0  0
    3.8821   -1.1530    3.2972 N   0  0  0  0  0  0  0  0  0  0  0  0
    5.0691   -0.5618    3.8977 C   0  0  0  0  0  0  0  0  0  0  0  0
    3.6479   -0.9344    2.3244 H   0  0  0  0  0  0  0  0  0  0  0  0
    5.5710    0.0899    3.1760 H   0  0  0  0  0  0  0  0  0  0  0  0
    4.7974    0.0361    4.7735 H   0  0  0  0  0  0  0  0  0  0  0  0
    5.7715   -1.3427    4.2065 H   0  0  0  0  0  0  0  0  0  0  0  0
  1  2  2  0  0  0  0
  1  3  1  0  0  0  0
  1  7  1  0  0  0  0
  3  4  1  0  0  0  0
  3  5  1  0  0  0  0
  3  6  1  0  0  0  0
  7  8  1  0  0  0  0
  7 12  1  0  0  0  0
  8  9  1  0  0  0  0
  8 11  1  0  0  0  0
  8 13  1  0  0  0  0
  9 10  2  0  0  0  0
  9 17  1  0  0  0  0
 11 14  1  0  0  0  0
 11 15  1  0  0  0  0
 11 16  1  0  0  0  0
 17 18  1  0  0  0  0
 17 25  1  0  0  0  0
 18 19  1  0  0  0  0
 18 21  1  0  0  0  0
 18 26  1  0  0  0  0
 19 20  2  0  0  0  0
 19 36  1  0  0  0  0
 21 22  1  0  0  0  0
 21 27  1  0  0  0  0
 21 28  1  0  0  0  0
 22 23  1  0  0  0  0
 22 24  1  0  0  0  0
 22 29  1  0  0  0  0
 23 30  1  0  0  0  0
 23 31  1  0  0  0  0
 23 32  1  0  0  0  0
 24 33  1  0  0  0  0
 24 34  1  0  0  0  0
 24 35  1  0  0  0  0
 36 37  1  0  0  0  0
 36 41  1  0  0  0  0
 37 38  1  0  0  0  0
 37 40  1  0  0  0  0
 37 42  1  0  0  0  0
 38 39  2  0  0  0  0
 38 46  1  0  0  0  0
 40 43  1  0  0  0  0
 40 44  1  0  0  0  0
 40 45  1  0  0  0  0
 46 47  1  0  0  0  0
 46 48  1  0  0  0  0
 47 49  1  0  0  0  0
 47 50  1  0  0  0  0
 47 51  1  0  0  0  0
M  END
$$$$

  -OEChem-05262216553D

 51 50  0     1  0  0  0  0  0999 V2000
    0.7385   -2.7990   -2.2701 C   0  0  0  0  0  0  0  0  0  0  0  0
   -0.3644   -2.2865   -2.1523 O   0  0  0  0  0  0  0  0  0  0  0  0
    0.8917   -4.2962   -2.0815 C   0  0  0  0  0  0  0  0  0  0  0  0
    1.6421   -4.5029   -1.3146 H   0  0  0  0  0  0  0  0  0  0  0  0
   -0.0594   -4.7376   -1.7702 H   0  0  0  0  0  0  0  0  0  0  0  0
    1.2042   -4.7600   -3.0203 H   0  0  0  0  0  0  0  0  0  0  0  0
    1.8592   -2.0300   -2.5185 N   0  0  0  0  0  0  0  0  0  0  0  0
    1.9137   -0.5601   -2.6529 C   0  0  2  0  0  0  0  0  0  0  0  0
    1.5627    0.2010   -1.3564 C   0  0  0  0  0  0  0  0  0  0  0  0
    2.3214    1.0631   -0.9378 O   0  0  0  0  0  0  0  0  0  0  0  0
    1.0619   -0.0730   -3.8338 C   0  0  0  0  0  0  0  0  0  0  0  0
    2.7471   -2.5250   -2.5057 H   0  0  0  0  0  0  0  0  0  0  0  0
    2.9524   -0.2983   -2.8811 H   0  0  0  0  0  0  0  0  0  0  0  0
   -0.0051   -0.2230   -3.6471 H   0  0  0  0  0  0  0  0  0  0  0  0
    1.2310    0.9957   -3.9999 H   0  0  0  0  0  0  0  0  0  0  0  0
    1.3348   -0.6118   -4.7459 H   0  0  0  0  0  0  0  0  0  0  0  0
    0.3237    0.0749   -0.7588 N   0  0  0  0  0  0  0  0  0  0  0  0
    0.1239   -0.1826    0.6815 C   0  0  2  0  0  0  0  0  0  0  0  0
    1.2334   -1.0150    1.4107 C   0  0  0  0  0  0  0  0  0  0  0  0
    2.4280   -0.8386    1.2284 O   0  0  0  0  0  0  0  0  0  0  0  0
   -1.2984   -0.7735    0.8986 C   0  0  0  0  0  0  0  0  0  0  0  0
   -2.5077    0.1506    0.5912 C   0  0  0  0  0  0  0  0  0  0  0  0
   -3.7910   -0.6800    0.7316 C   0  0  0  0  0  0  0  0  0  0  0  0
   -2.5221    0.7917   -0.8050 C   0  0  0  0  0  0  0  0  0  0  0  0
   -0.2725   -0.5217   -1.3379 H   0  0  0  0  0  0  0  0  0  0  0  0
    0.1466    0.7931    1.1776 H   0  0  0  0  0  0  0  0  0  0  0  0
   -1.4090   -1.0565    1.9491 H   0  0  0  0  0  0  0  0  0  0  0  0
   -1.3834   -1.6863    0.2992 H   0  0  0  0  0  0  0  0  0  0  0  0
   -2.5244    0.9571    1.3322 H   0  0  0  0  0  0  0  0  0  0  0  0
   -3.8203   -1.4773   -0.0183 H   0  0  0  0  0  0  0  0  0  0  0  0
   -4.6740   -0.0467    0.5995 H   0  0  0  0  0  0  0  0  0  0  0  0
   -3.8465   -1.1349    1.7255 H   0  0  0  0  0  0  0  0  0  0  0  0
   -2.3593    0.0363   -1.5805 H   0  0  0  0  0  0  0  0  0  0  0  0
   -3.4852    1.2763   -0.9936 H   0  0  0  0  0  0  0  0  0  0  0  0
   -1.7498    1.5621   -0.8852 H   0  0  0  0  0  0  0  0  0  0  0  0
    0.8867   -2.0423    2.2801 N   0  0  0  0  0  0  0  0  0  0  0  0
    1.7854   -2.9950    2.9695 C   0  0  2  0  0  0  0  0  0  0  0  0
    2.7062   -2.3838    4.0524 C   0  0  0  0  0  0  0  0  0  0  0  0
    2.8187   -2.9577    5.1279 O   0  0  0  0  0  0  0  0  0  0  0  0
    2.6012   -3.8182    1.9630 C   0  0  0  0  0  0  0  0  0  0  0  0
   -0.1099   -2.1767    2.4169 H   0  0  0  0  0  0  0  0  0  0  0  0
    1.1387   -3.7011    3.5008 H   0  0  0  0  0  0  0  0  0  0  0  0
    3.3518   -3.2013    1.4605 H   0  0  0  0  0  0  0  0  0  0  0  0
    3.1213   -4.6304    2.4809 H   0  0  0  0  0  0  0  0  0  0  0  0
    1.9423   -4.2545    1.2072 H   0  0  0  0  0  0  0  0  0  0  0  0
    3.4195   -1.2232    3.8315 N   0  0  0  0  0  0  0  0  0  0  0  0
    4.3519   -0.6410    4.7862 C   0  0  0  0  0  0  0  0  0  0  0  0
    3.3433   -0.8194    2.8930 H   0  0  0  0  0  0  0  0  0  0  0  0
    4.7549    0.2974    4.3935 H   0  0  0  0  0  0  0  0  0  0  0  0
    3.8481   -0.4298    5.7350 H   0  0  0  0  0  0  0  0  0  0  0  0
    5.1851   -1.3261    4.9733 H   0  0  0  0  0  0  0  0  0  0  0  0
  1  2  2  0  0  0  0
  1  3  1  0  0  0  0
  1  7  1  0  0  0  0
  3  4  1  0  0  0  0
  3  5  1  0  0  0  0
  3  6  1  0  0  0  0
  7  8  1  0  0  0  0
  7 12  1  0  0  0  0
  8  9  1  0  0  0  0
  8 11  1  0  0  0  0
  8 13  1  0  0  0  0
  9 10  2  0  0  0  0
  9 17  1  0  0  0  0
 11 14  1  0  0  0  0
 11 15  1  0  0  0  0
 11 16  1  0  0  0  0
 17 18  1  0  0  0  0
 17 25  1  0  0  0  0
 18 19  1  0  0  0  0
 18 21  1  0  0  0  0
 18 26  1  0  0  0  0
 19 20  2  0  0  0  0
 19 36  1  0  0  0  0
 21 22  1  0  0  0  0
 21 27  1  0  0  0  0
 21 28  1  0  0  0  0
 22 23  1  0  0  0  0
 22 24  1  0  0  0  0
 22 29  1  0  0  0  0
 23 30  1  0  0  0  0
 23 31  1  0  0  0  0
 23 32  1  0  0  0  0
 24 33  1  0  0  0  0
 24 34  1  0  0  0  0
 24 35  1  0  0  0  0
 36 37  1  0  0  0  0
 36 41  1  0  0  0  0
 37 38  1  0  0  0  0
 37 40  1  0  0  0  0
 37 42  1  0  0  0  0
 38 39  2  0  0  0  0
 38 46  1  0  0  0  0
 40 43  1  0  0  0  0
 40 44  1  0  0  0  0
 40 45  1  0  0  0  0
 46 47  1  0  0  0  0
 46 48  1  0  0  0  0
 47 49  1  0  0  0  0
 47 50  1  0  0  0  0
 47 51  1  0  0  0  0
M  END
$$$$

  -OEChem-05262216553D

 51 50  0     1  0  0  0  0  0999 V2000
    0.7624   -2.7346   -2.5352 C   0  0  0  0  0  0  0  0  0  0  0  0
   -0.3250   -2.2619   -2.2403 O   0  0  0  0  0  0  0  0  0  0  0  0
    0.9423   -4.2405   -2.5551 C   0  0  0  0  0  0  0  0  0  0  0  0
    1.6703   -4.5399   -1.7971 H   0  0  0  0  0  0  0  0  0  0  0  0
   -0.0090   -4.7375   -2.3447 H   0  0  0  0  0  0  0  0  0  0  0  0
    1.2960   -4.5622   -3.5377 H   0  0  0  0  0  0  0  0  0  0  0  0
    1.8473   -1.9187   -2.7957 N   0  0  0  0  0  0  0  0  0  0  0  0
    1.8749   -0.4423   -2.7569 C   0  0  2  0  0  0  0  0  0  0  0  0
    1.6236    0.1485   -1.3518 C   0  0  0  0  0  0  0  0  0  0  0  0
    2.4946    0.8241   -0.8303 O   0  0  0  0  0  0  0  0  0  0  0  0
    0.9213    0.1566   -3.8013 C   0  0  0  0  0  0  0  0  0  0  0  0
    2.7303   -2.3938   -2.9637 H   0  0  0  0  0  0  0  0  0  0  0  0
    2.8872   -0.1309   -3.0371 H   0  0  0  0  0  0  0  0  0  0  0  0
   -0.1240   -0.0521   -3.5570 H   0  0  0  0  0  0  0  0  0  0  0  0
    1.0504    1.2427   -3.8464 H   0  0  0  0  0  0  0  0  0  0  0  0
    1.1356   -0.2579   -4.7909 H   0  0  0  0  0  0  0  0  0  0  0  0
    0.3900    0.0155   -0.7426 N   0  0  0  0  0  0  0  0  0  0  0  0
    0.1673   -0.2599    0.6900 C   0  0  2  0  0  0  0  0  0  0  0  0
    1.2721   -1.1023    1.3995 C   0  0  0  0  0  0  0  0  0  0  0  0
    2.3809   -0.6481    1.6333 O   0  0  0  0  0  0  0  0  0  0  0  0
   -1.2488   -0.8635    0.8956 C   0  0  0  0  0  0  0  0  0  0  0  0
   -2.4625    0.0537    0.5889 C   0  0  0  0  0  0  0  0  0  0  0  0
   -3.7404   -0.7870    0.7162 C   0  0  0  0  0  0  0  0  0  0  0  0
   -2.4706    0.7053   -0.8026 C   0  0  0  0  0  0  0  0  0  0  0  0
   -0.2424   -0.5152   -1.3468 H   0  0  0  0  0  0  0  0  0  0  0  0
    0.1840    0.7075    1.2031 H   0  0  0  0  0  0  0  0  0  0  0  0
   -1.3502   -1.1636    1.9437 H   0  0  0  0  0  0  0  0  0  0  0  0
   -1.3264   -1.7680    0.2827 H   0  0  0  0  0  0  0  0  0  0  0  0
   -2.4897    0.8540    1.3366 H   0  0  0  0  0  0  0  0  0  0  0  0
   -3.7582   -1.5817   -0.0369 H   0  0  0  0  0  0  0  0  0  0  0  0
   -4.6272   -0.1601    0.5801 H   0  0  0  0  0  0  0  0  0  0  0  0
   -3.7995   -1.2460    1.7080 H   0  0  0  0  0  0  0  0  0  0  0  0
   -2.2993   -0.0432   -1.5828 H   0  0  0  0  0  0  0  0  0  0  0  0
   -3.4348    1.1867   -0.9933 H   0  0  0  0  0  0  0  0  0  0  0  0
   -1.7018    1.4801   -0.8723 H   0  0  0  0  0  0  0  0  0  0  0  0
    0.9536   -2.3229    1.9815 N   0  0  0  0  0  0  0  0  0  0  0  0
    1.8662   -3.2612    2.6705 C   0  0  2  0  0  0  0  0  0  0  0  0
    2.3714   -2.7995    4.0574 C   0  0  0  0  0  0  0  0  0  0  0  0
    2.3467   -3.5892    4.9929 O   0  0  0  0  0  0  0  0  0  0  0  0
    3.0420   -3.6546    1.7648 C   0  0  0  0  0  0  0  0  0  0  0  0
    0.0018   -2.6400    1.8244 H   0  0  0  0  0  0  0  0  0  0  0  0
    1.2915   -4.1744    2.8552 H   0  0  0  0  0  0  0  0  0  0  0  0
    3.7360   -2.8192    1.6316 H   0  0  0  0  0  0  0  0  0  0  0  0
    3.5950   -4.4871    2.2110 H   0  0  0  0  0  0  0  0  0  0  0  0
    2.6784   -3.9670    0.7817 H   0  0  0  0  0  0  0  0  0  0  0  0
    2.8599   -1.5254    4.2622 N   0  0  0  0  0  0  0  0  0  0  0  0
    3.4081   -1.0507    5.5246 C   0  0  0  0  0  0  0  0  0  0  0  0
    2.9110   -0.9257    3.4327 H   0  0  0  0  0  0  0  0  0  0  0  0
    4.3020   -1.6233    5.7926 H   0  0  0  0  0  0  0  0  0  0  0  0
    3.6832    0.0052    5.4418 H   0  0  0  0  0  0  0  0  0  0  0  0
    2.6694   -1.1527    6.3263 H   0  0  0  0  0  0  0  0  0  0  0  0
  1  2  2  0  0  0  0
  1  3  1  0  0  0  0
  1  7  1  0  0  0  0
  3  4  1  0  0  0  0
  3  5  1  0  0  0  0
  3  6  1  0  0  0  0
  7  8  1  0  0  0  0
  7 12  1  0  0  0  0
  8  9  1  0  0  0  0
  8 11  1  0  0  0  0
  8 13  1  0  0  0  0
  9 10  2  0  0  0  0
  9 17  1  0  0  0  0
 11 14  1  0  0  0  0
 11 15  1  0  0  0  0
 11 16  1  0  0  0  0
 17 18  1  0  0  0  0
 17 25  1  0  0  0  0
 18 19  1  0  0  0  0
 18 21  1  0  0  0  0
 18 26  1  0  0  0  0
 19 20  2  0  0  0  0
 19 36  1  0  0  0  0
 21 22  1  0  0  0  0
 21 27  1  0  0  0  0
 21 28  1  0  0  0  0
 22 23  1  0  0  0  0
 22 24  1  0  0  0  0
 22 29  1  0  0  0  0
 23 30  1  0  0  0  0
 23 31  1  0  0  0  0
 23 32  1  0  0  0  0
 24 33  1  0  0  0  0
 24 34  1  0  0  0  0
 24 35  1  0  0  0  0
 36 37  1  0  0  0  0
 36 41  1  0  0  0  0
 37 38  1  0  0  0  0
 37 40  1  0  0  0  0
 37 42  1  0  0  0  0
 38 39  2  0  0  0  0
 38 46  1  0  0  0  0
 40 43  1  0  0  0  0
 40 44  1  0  0  0  0
 40 45  1  0  0  0  0
 46 47  1  0  0  0  0
 46 48  1  0  0  0  0
 47 49  1  0  0  0  0
 47 50  1  0  0  0  0
 47 51  1  0  0  0  0
M  END
$$$$

  -OEChem-05262216553D

 51 50  0     1  0  0  0  0  0999 V2000
    1.2475   -2.8049   -2.4520 C   0  0  0  0  0  0  0  0  0  0  0  0
    0.1704   -2.5650   -1.9242 O   0  0  0  0  0  0  0  0  0  0  0  0
    1.7468   -4.2362   -2.5118 C   0  0  0  0  0  0  0  0  0  0  0  0
    2.7426   -4.3049   -2.0668 H   0  0  0  0  0  0  0  0  0  0  0  0
    1.0708   -4.8967   -1.9615 H   0  0  0  0  0  0  0  0  0  0  0  0
    1.7963   -4.5706   -3.5511 H   0  0  0  0  0  0  0  0  0  0  0  0
    2.0338   -1.7913   -2.9690 N   0  0  0  0  0  0  0  0  0  0  0  0
    1.7481   -0.3460   -2.8882 C   0  0  2  0  0  0  0  0  0  0  0  0
    1.6072    0.1522   -1.4324 C   0  0  0  0  0  0  0  0  0  0  0  0
    2.5997    0.5554   -0.8509 O   0  0  0  0  0  0  0  0  0  0  0  0
    0.5328    0.0106   -3.7594 C   0  0  0  0  0  0  0  0  0  0  0  0
    2.9595   -2.0657   -3.2870 H   0  0  0  0  0  0  0  0  0  0  0  0
    2.6079    0.1887   -3.3053 H   0  0  0  0  0  0  0  0  0  0  0  0
   -0.3728   -0.4965   -3.4149 H   0  0  0  0  0  0  0  0  0  0  0  0
    0.3548    1.0903   -3.7332 H   0  0  0  0  0  0  0  0  0  0  0  0
    0.7157   -0.2830   -4.7975 H   0  0  0  0  0  0  0  0  0  0  0  0
    0.3845    0.0703   -0.7919 N   0  0  0  0  0  0  0  0  0  0  0  0
    0.1876   -0.2218    0.6392 C   0  0  2  0  0  0  0  0  0  0  0  0
    1.2769   -1.1282    1.2780 C   0  0  0  0  0  0  0  0  0  0  0  0
    2.2307   -0.6262    1.8564 O   0  0  0  0  0  0  0  0  0  0  0  0
   -1.2359   -0.7838    0.8893 C   0  0  0  0  0  0  0  0  0  0  0  0
   -2.4301    0.1734    0.6385 C   0  0  0  0  0  0  0  0  0  0  0  0
   -3.7286   -0.6283    0.8026 C   0  0  0  0  0  0  0  0  0  0  0  0
   -2.4655    0.8417   -0.7441 C   0  0  0  0  0  0  0  0  0  0  0  0
   -0.3014   -0.3887   -1.3889 H   0  0  0  0  0  0  0  0  0  0  0  0
    0.2592    0.7321    1.1730 H   0  0  0  0  0  0  0  0  0  0  0  0
   -1.2981   -1.1064    1.9347 H   0  0  0  0  0  0  0  0  0  0  0  0
   -1.3662   -1.6722    0.2621 H   0  0  0  0  0  0  0  0  0  0  0  0
   -2.4042    0.9638    1.3966 H   0  0  0  0  0  0  0  0  0  0  0  0
   -3.8048   -1.4048    0.0347 H   0  0  0  0  0  0  0  0  0  0  0  0
   -4.5989    0.0300    0.7180 H   0  0  0  0  0  0  0  0  0  0  0  0
   -3.7604   -1.1075    1.7861 H   0  0  0  0  0  0  0  0  0  0  0  0
   -2.3440    0.0974   -1.5373 H   0  0  0  0  0  0  0  0  0  0  0  0
   -3.4208    1.3538   -0.8961 H   0  0  0  0  0  0  0  0  0  0  0  0
   -1.6759    1.5934   -0.8310 H   0  0  0  0  0  0  0  0  0  0  0  0
    0.9865   -2.4588    1.5473 N   0  0  0  0  0  0  0  0  0  0  0  0
    1.8455   -3.4481    2.2315 C   0  0  2  0  0  0  0  0  0  0  0  0
    1.9889   -3.2519    3.7586 C   0  0  0  0  0  0  0  0  0  0  0  0
    1.9022   -4.2250    4.4970 O   0  0  0  0  0  0  0  0  0  0  0  0
    3.2238   -3.5423    1.5617 C   0  0  0  0  0  0  0  0  0  0  0  0
    0.1678   -2.8166    1.0621 H   0  0  0  0  0  0  0  0  0  0  0  0
    1.3632   -4.4223    2.1020 H   0  0  0  0  0  0  0  0  0  0  0  0
    3.8157   -2.6405    1.7446 H   0  0  0  0  0  0  0  0  0  0  0  0
    3.7768   -4.3979    1.9616 H   0  0  0  0  0  0  0  0  0  0  0  0
    3.1140   -3.6738    0.4817 H   0  0  0  0  0  0  0  0  0  0  0  0
    2.2260   -2.0083    4.3073 N   0  0  0  0  0  0  0  0  0  0  0  0
    2.4511   -1.7678    5.7252 C   0  0  0  0  0  0  0  0  0  0  0  0
    2.3670   -1.2454    3.6380 H   0  0  0  0  0  0  0  0  0  0  0  0
    3.3595   -2.2788    6.0607 H   0  0  0  0  0  0  0  0  0  0  0  0
    2.5667   -0.6954    5.9101 H   0  0  0  0  0  0  0  0  0  0  0  0
    1.6028   -2.1302    6.3150 H   0  0  0  0  0  0  0  0  0  0  0  0
  1  2  2  0  0  0  0
  1  3  1  0  0  0  0
  1  7  1  0  0  0  0
  3  4  1  0  0  0  0
  3  5  1  0  0  0  0
  3  6  1  0  0  0  0
  7  8  1  0  0  0  0
  7 12  1  0  0  0  0
  8  9  1  0  0  0  0
  8 11  1  0  0  0  0
  8 13  1  0  0  0  0
  9 10  2  0  0  0  0
  9 17  1  0  0  0  0
 11 14  1  0  0  0  0
 11 15  1  0  0  0  0
 11 16  1  0  0  0  0
 17 18  1  0  0  0  0
 17 25  1  0  0  0  0
 18 19  1  0  0  0  0
 18 21  1  0  0  0  0
 18 26  1  0  0  0  0
 19 20  2  0  0  0  0
 19 36  1  0  0  0  0
 21 22  1  0  0  0  0
 21 27  1  0  0  0  0
 21 28  1  0  0  0  0
 22 23  1  0  0  0  0
 22 24  1  0  0  0  0
 22 29  1  0  0  0  0
 23 30  1  0  0  0  0
 23 31  1  0  0  0  0
 23 32  1  0  0  0  0
 24 33  1  0  0  0  0
 24 34  1  0  0  0  0
 24 35  1  0  0  0  0
 36 37  1  0  0  0  0
 36 41  1  0  0  0  0
 37 38  1  0  0  0  0
 37 40  1  0  0  0  0
 37 42  1  0  0  0  0
 38 39  2  0  0  0  0
 38 46  1  0  0  0  0
 40 43  1  0  0  0  0
 40 44  1  0  0  0  0
 40 45  1  0  0  0  0
 46 47  1  0  0  0  0
 46 48  1  0  0  0  0
 47 49  1  0  0  0  0
 47 50  1  0  0  0  0
 47 51  1  0  0  0  0
M  END
$$$$

  -OEChem-05262216553D

 51 50  0     1  0  0  0  0  0999 V2000
    1.4195   -2.8615   -2.3580 C   0  0  0  0  0  0  0  0  0  0  0  0
    0.3805   -2.6804   -1.7360 O   0  0  0  0  0  0  0  0  0  0  0  0
    2.0221   -4.2529   -2.4115 C   0  0  0  0  0  0  0  0  0  0  0  0
    3.0630   -4.2256   -2.0795 H   0  0  0  0  0  0  0  0  0  0  0  0
    1.4648   -4.9327   -1.7608 H   0  0  0  0  0  0  0  0  0  0  0  0
    1.9848   -4.6353   -3.4344 H   0  0  0  0  0  0  0  0  0  0  0  0
    2.0725   -1.8172   -2.9883 N   0  0  0  0  0  0  0  0  0  0  0  0
    1.6807   -0.3955   -2.9358 C   0  0  2  0  0  0  0  0  0  0  0  0
    1.5838    0.1396   -1.4888 C   0  0  0  0  0  0  0  0  0  0  0  0
    2.6097    0.4552   -0.9088 O   0  0  0  0  0  0  0  0  0  0  0  0
    0.3951   -0.1753   -3.7492 C   0  0  0  0  0  0  0  0  0  0  0  0
    2.9870   -2.0352   -3.3752 H   0  0  0  0  0  0  0  0  0  0  0  0
    2.4706    0.1905   -3.4173 H   0  0  0  0  0  0  0  0  0  0  0  0
   -0.4414   -0.7505   -3.3419 H   0  0  0  0  0  0  0  0  0  0  0  0
    0.1224    0.8848   -3.7447 H   0  0  0  0  0  0  0  0  0  0  0  0
    0.5500   -0.4864   -4.7869 H   0  0  0  0  0  0  0  0  0  0  0  0
    0.3707    0.1137   -0.8251 N   0  0  0  0  0  0  0  0  0  0  0  0
    0.2059   -0.1531    0.6142 C   0  0  2  0  0  0  0  0  0  0  0  0
    1.2867   -1.0882    1.2162 C   0  0  0  0  0  0  0  0  0  0  0  0
    2.1053   -0.6321    2.0045 O   0  0  0  0  0  0  0  0  0  0  0  0
   -1.2143   -0.6886    0.9258 C   0  0  0  0  0  0  0  0  0  0  0  0
   -2.4023    0.2815    0.7002 C   0  0  0  0  0  0  0  0  0  0  0  0
   -3.7065   -0.4958    0.9256 C   0  0  0  0  0  0  0  0  0  0  0  0
   -2.4739    0.9260   -0.6919 C   0  0  0  0  0  0  0  0  0  0  0  0
   -0.3625   -0.2918   -1.4009 H   0  0  0  0  0  0  0  0  0  0  0  0
    0.3189    0.8040    1.1348 H   0  0  0  0  0  0  0  0  0  0  0  0
   -1.2379   -0.9985    1.9767 H   0  0  0  0  0  0  0  0  0  0  0  0
   -1.3811   -1.5845    0.3180 H   0  0  0  0  0  0  0  0  0  0  0  0
   -2.3374    1.0843    1.4426 H   0  0  0  0  0  0  0  0  0  0  0  0
   -3.8202   -1.2884    0.1788 H   0  0  0  0  0  0  0  0  0  0  0  0
   -4.5693    0.1742    0.8550 H   0  0  0  0  0  0  0  0  0  0  0  0
   -3.7124   -0.9525    1.9205 H   0  0  0  0  0  0  0  0  0  0  0  0
   -2.3933    0.1660   -1.4753 H   0  0  0  0  0  0  0  0  0  0  0  0
   -3.4247    1.4529   -0.8198 H   0  0  0  0  0  0  0  0  0  0  0  0
   -1.6747    1.6617   -0.8190 H   0  0  0  0  0  0  0  0  0  0  0  0
    1.0649   -2.4572    1.2087 N   0  0  0  0  0  0  0  0  0  0  0  0
    1.9130   -3.5035    1.8152 C   0  0  2  0  0  0  0  0  0  0  0  0
    1.8446   -3.5916    3.3567 C   0  0  0  0  0  0  0  0  0  0  0  0
    1.7947   -4.6920    3.8923 O   0  0  0  0  0  0  0  0  0  0  0  0
    3.3685   -3.3820    1.3423 C   0  0  0  0  0  0  0  0  0  0  0  0
    0.4187   -2.7581    0.4780 H   0  0  0  0  0  0  0  0  0  0  0  0
    1.5352   -4.4623    1.4463 H   0  0  0  0  0  0  0  0  0  0  0  0
    3.8554   -2.5066    1.7826 H   0  0  0  0  0  0  0  0  0  0  0  0
    3.9334   -4.2709    1.6397 H   0  0  0  0  0  0  0  0  0  0  0  0
    3.4108   -3.2909    0.2537 H   0  0  0  0  0  0  0  0  0  0  0  0
    1.8619   -2.4582    4.1436 N   0  0  0  0  0  0  0  0  0  0  0  0
    1.9021   -2.4751    5.5986 C   0  0  0  0  0  0  0  0  0  0  0  0
    2.0104   -1.5753    3.6456 H   0  0  0  0  0  0  0  0  0  0  0  0
    1.8678   -1.4529    5.9876 H   0  0  0  0  0  0  0  0  0  0  0  0
    1.0444   -3.0255    5.9989 H   0  0  0  0  0  0  0  0  0  0  0  0
    2.8231   -2.9512    5.9507 H   0  0  0  0  0  0  0  0  0  0  0  0
  1  2  2  0  0  0  0
  1  3  1  0  0  0  0
  1  7  1  0  0  0  0
  3  4  1  0  0  0  0
  3  5  1  0  0  0  0
  3  6  1  0  0  0  0
  7  8  1  0  0  0  0
  7 12  1  0  0  0  0
  8  9  1  0  0  0  0
  8 11  1  0  0  0  0
  8 13  1  0  0  0  0
  9 10  2  0  0  0  0
  9 17  1  0  0  0  0
 11 14  1  0  0  0  0
 11 15  1  0  0  0  0
 11 16  1  0  0  0  0
 17 18  1  0  0  0  0
 17 25  1  0  0  0  0
 18 19  1  0  0  0  0
 18 21  1  0  0  0  0
 18 26  1  0  0  0  0
 19 20  2  0  0  0  0
 19 36  1  0  0  0  0
 21 22  1  0  0  0  0
 21 27  1  0  0  0  0
 21 28  1  0  0  0  0
 22 23  1  0  0  0  0
 22 24  1  0  0  0  0
 22 29  1  0  0  0  0
 23 30  1  0  0  0  0
 23 31  1  0  0  0  0
 23 32  1  0  0  0  0
 24 33  1  0  0  0  0
 24 34  1  0  0  0  0
 24 35  1  0  0  0  0
 36 37  1  0  0  0  0
 36 41  1  0  0  0  0
 37 38  1  0  0  0  0
 37 40  1  0  0  0  0
 37 42  1  0  0  0  0
 38 39  2  0  0  0  0
 38 46  1  0  0  0  0
 40 43  1  0  0  0  0
 40 44  1  0  0  0  0
 40 45  1  0  0  0  0
 46 47  1  0  0  0  0
 46 48  1  0  0  0  0
 47 49  1  0  0  0  0
 47 50  1  0  0  0  0
 47 51  1  0  0  0  0
M  END
$$$$

  -OEChem-05262216553D

 51 50  0     1  0  0  0  0  0999 V2000
    1.4663   -2.8734   -2.4362 C   0  0  0  0  0  0  0  0  0  0  0  0
    0.4345   -2.7334   -1.7920 O   0  0  0  0  0  0  0  0  0  0  0  0
    2.1154   -4.2420   -2.5160 C   0  0  0  0  0  0  0  0  0  0  0  0
    3.1276   -4.2006   -2.1062 H   0  0  0  0  0  0  0  0  0  0  0  0
    1.5348   -4.9711   -1.9434 H   0  0  0  0  0  0  0  0  0  0  0  0
    2.1644   -4.5720   -3.5565 H   0  0  0  0  0  0  0  0  0  0  0  0
    2.0791   -1.7944   -3.0474 N   0  0  0  0  0  0  0  0  0  0  0  0
    1.6477   -0.3881   -2.9367 C   0  0  2  0  0  0  0  0  0  0  0  0
    1.5471    0.0855   -1.4684 C   0  0  0  0  0  0  0  0  0  0  0  0
    2.5752    0.3559   -0.8681 O   0  0  0  0  0  0  0  0  0  0  0  0
    0.3499   -0.1733   -3.7326 C   0  0  0  0  0  0  0  0  0  0  0  0
    2.9951   -1.9728   -3.4506 H   0  0  0  0  0  0  0  0  0  0  0  0
    2.4168    0.2397   -3.3987 H   0  0  0  0  0  0  0  0  0  0  0  0
   -0.4659   -0.7894   -3.3434 H   0  0  0  0  0  0  0  0  0  0  0  0
    0.0456    0.8772   -3.6834 H   0  0  0  0  0  0  0  0  0  0  0  0
    0.5062   -0.4372   -4.7830 H   0  0  0  0  0  0  0  0  0  0  0  0
    0.3272    0.0695   -0.8149 N   0  0  0  0  0  0  0  0  0  0  0  0
    0.1443   -0.1466    0.6314 C   0  0  2  0  0  0  0  0  0  0  0  0
    1.2243   -1.0459    1.2792 C   0  0  0  0  0  0  0  0  0  0  0  0
    1.8888   -0.6173    2.2147 O   0  0  0  0  0  0  0  0  0  0  0  0
   -1.2607   -0.7156    0.9435 C   0  0  0  0  0  0  0  0  0  0  0  0
   -2.4762    0.2044    0.6612 C   0  0  0  0  0  0  0  0  0  0  0  0
   -3.7562   -0.6081    0.8998 C   0  0  0  0  0  0  0  0  0  0  0  0
   -2.5478    0.7853   -0.7591 C   0  0  0  0  0  0  0  0  0  0  0  0
   -0.4149   -0.3152   -1.3935 H   0  0  0  0  0  0  0  0  0  0  0  0
    0.2285    0.8292    1.1219 H   0  0  0  0  0  0  0  0  0  0  0  0
   -1.2896   -0.9860    2.0052 H   0  0  0  0  0  0  0  0  0  0  0  0
   -1.3872   -1.6406    0.3707 H   0  0  0  0  0  0  0  0  0  0  0  0
   -2.4502    1.0397    1.3694 H   0  0  0  0  0  0  0  0  0  0  0  0
   -3.8280   -1.4380    0.1893 H   0  0  0  0  0  0  0  0  0  0  0  0
   -4.6407    0.0261    0.7836 H   0  0  0  0  0  0  0  0  0  0  0  0
   -3.7637   -1.0185    1.9147 H   0  0  0  0  0  0  0  0  0  0  0  0
   -2.4315   -0.0048   -1.5074 H   0  0  0  0  0  0  0  0  0  0  0  0
   -3.5132    1.2743   -0.9227 H   0  0  0  0  0  0  0  0  0  0  0  0
   -1.7714    1.5409   -0.9077 H   0  0  0  0  0  0  0  0  0  0  0  0
    1.1751   -2.4114    1.0447 N   0  0  0  0  0  0  0  0  0  0  0  0
    2.1068   -3.4343    1.5593 C   0  0  2  0  0  0  0  0  0  0  0  0
    1.9509   -3.7755    3.0588 C   0  0  0  0  0  0  0  0  0  0  0  0
    1.9845   -4.9476    3.4135 O   0  0  0  0  0  0  0  0  0  0  0  0
    3.5596   -3.0639    1.2295 C   0  0  0  0  0  0  0  0  0  0  0  0
    0.6283   -2.6644    0.2184 H   0  0  0  0  0  0  0  0  0  0  0  0
    1.8815   -4.3598    1.0201 H   0  0  0  0  0  0  0  0  0  0  0  0
    3.8948   -2.2108    1.8271 H   0  0  0  0  0  0  0  0  0  0  0  0
    4.2201   -3.9100    1.4430 H   0  0  0  0  0  0  0  0  0  0  0  0
    3.6566   -2.8041    0.1714 H   0  0  0  0  0  0  0  0  0  0  0  0
    1.7939   -2.7884    4.0100 N   0  0  0  0  0  0  0  0  0  0  0  0
    1.7151   -3.0362    5.4421 C   0  0  0  0  0  0  0  0  0  0  0  0
    1.8551   -1.8252    3.6666 H   0  0  0  0  0  0  0  0  0  0  0  0
    2.6398   -3.4997    5.8005 H   0  0  0  0  0  0  0  0  0  0  0  0
    1.5667   -2.0945    5.9793 H   0  0  0  0  0  0  0  0  0  0  0  0
    0.8745   -3.6997    5.6703 H   0  0  0  0  0  0  0  0  0  0  0  0
  1  2  2  0  0  0  0
  1  3  1  0  0  0  0
  1  7  1  0  0  0  0
  3  4  1  0  0  0  0
  3  5  1  0  0  0  0
  3  6  1  0  0  0  0
  7  8  1  0  0  0  0
  7 12  1  0  0  0  0
  8  9  1  0  0  0  0
  8 11  1  0  0  0  0
  8 13  1  0  0  0  0
  9 10  2  0  0  0  0
  9 17  1  0  0  0  0
 11 14  1  0  0  0  0
 11 15  1  0  0  0  0
 11 16  1  0  0  0  0
 17 18  1  0  0  0  0
 17 25  1  0  0  0  0
 18 19  1  0  0  0  0
 18 21  1  0  0  0  0
 18 26  1  0  0  0  0
 19 20  2  0  0  0  0
 19 36  1  0  0  0  0
 21 22  1  0  0  0  0
 21 27  1  0  0  0  0
 21 28  1  0  0  0  0
 22 23  1  0  0  0  0
 22 24  1  0  0  0  0
 22 29  1  0  0  0  0
 23 30  1  0  0  0  0
 23 31  1  0  0  0  0
 23 32  1  0  0  0  0
 24 33  1  0  0  0  0
 24 34  1  0  0  0  0
 24 35  1  0  0  0  0
 36 37  1  0  0  0  0
 36 41  1  0  0  0  0
 37 38  1  0  0  0  0
 37 40  1  0  0  0  0
 37 42  1  0  0  0  0
 38 39  2  0  0  0  0
 38 46  1  0  0  0  0
 40 43  1  0  0  0  0
 40 44  1  0  0  0  0
 40 45  1  0  0  0  0
 46 47  1  0  0  0  0
 46 48  1  0  0  0  0
 47 49  1  0  0  0  0
 47 50  1  0  0  0  0
 47 51  1  0  0  0  0
M  END
$$$$

  -OEChem-05262216553D

 51 50  0     1  0  0  0  0  0999 V2000
    1.5304   -2.9022   -2.5665 C   0  0  0  0  0  0  0  0  0  0  0  0
    0.5114   -2.8139   -1.8940 O   0  0  0  0  0  0  0  0  0  0  0  0
    2.2357   -4.2394   -2.6871 C   0  0  0  0  0  0  0  0  0  0  0  0
    3.2301   -4.1785   -2.2377 H   0  0  0  0  0  0  0  0  0  0  0  0
    1.6648   -5.0173   -2.1719 H   0  0  0  0  0  0  0  0  0  0  0  0
    2.3349   -4.5164   -3.7395 H   0  0  0  0  0  0  0  0  0  0  0  0
    2.0841   -1.7829   -3.1595 N   0  0  0  0  0  0  0  0  0  0  0  0
    1.5984   -0.4022   -2.9799 C   0  0  2  0  0  0  0  0  0  0  0  0
    1.5240    0.0047   -1.4895 C   0  0  0  0  0  0  0  0  0  0  0  0
    2.5659    0.2232   -0.8908 O   0  0  0  0  0  0  0  0  0  0  0  0
    0.2709   -0.2125   -3.7318 C   0  0  0  0  0  0  0  0  0  0  0  0
    3.0024   -1.9083   -3.5774 H   0  0  0  0  0  0  0  0  0  0  0  0
    2.3272    0.2755   -3.4367 H   0  0  0  0  0  0  0  0  0  0  0  0
   -0.5086   -0.8729   -3.3409 H   0  0  0  0  0  0  0  0  0  0  0  0
   -0.0721    0.8227   -3.6396 H   0  0  0  0  0  0  0  0  0  0  0  0
    0.4068   -0.4363   -4.7942 H   0  0  0  0  0  0  0  0  0  0  0  0
    0.3110    0.0269   -0.8211 N   0  0  0  0  0  0  0  0  0  0  0  0
    0.1373   -0.1531    0.6332 C   0  0  2  0  0  0  0  0  0  0  0  0
    1.1959   -1.0568    1.3060 C   0  0  0  0  0  0  0  0  0  0  0  0
    1.7276   -0.6979    2.3498 O   0  0  0  0  0  0  0  0  0  0  0  0
   -1.2674   -0.7098    0.9635 C   0  0  0  0  0  0  0  0  0  0  0  0
   -2.4819    0.2064    0.6649 C   0  0  0  0  0  0  0  0  0  0  0  0
   -3.7625   -0.5974    0.9272 C   0  0  0  0  0  0  0  0  0  0  0  0
   -2.5591    0.7600   -0.7658 C   0  0  0  0  0  0  0  0  0  0  0  0
   -0.4610   -0.3097   -1.3898 H   0  0  0  0  0  0  0  0  0  0  0  0
    0.2342    0.8320    1.1022 H   0  0  0  0  0  0  0  0  0  0  0  0
   -1.2935   -0.9538    2.0317 H   0  0  0  0  0  0  0  0  0  0  0  0
   -1.3960   -1.6497    0.4153 H   0  0  0  0  0  0  0  0  0  0  0  0
   -2.4505    1.0558    1.3562 H   0  0  0  0  0  0  0  0  0  0  0  0
   -3.8438   -1.4372    0.2294 H   0  0  0  0  0  0  0  0  0  0  0  0
   -4.6456    0.0385    0.8099 H   0  0  0  0  0  0  0  0  0  0  0  0
   -3.7626   -0.9930    1.9478 H   0  0  0  0  0  0  0  0  0  0  0  0
   -2.4498   -0.0447   -1.4994 H   0  0  0  0  0  0  0  0  0  0  0  0
   -3.5240    1.2492   -0.9333 H   0  0  0  0  0  0  0  0  0  0  0  0
   -1.7812    1.5103   -0.9329 H   0  0  0  0  0  0  0  0  0  0  0  0
    1.3168   -2.3691    0.8767 N   0  0  0  0  0  0  0  0  0  0  0  0
    2.2959   -3.3713    1.3385 C   0  0  2  0  0  0  0  0  0  0  0  0
    2.0559   -3.9311    2.7591 C   0  0  0  0  0  0  0  0  0  0  0  0
    2.2025   -5.1301    2.9625 O   0  0  0  0  0  0  0  0  0  0  0  0
    3.7262   -2.8344    1.1948 C   0  0  0  0  0  0  0  0  0  0  0  0
    0.8337   -2.5686   -0.0030 H   0  0  0  0  0  0  0  0  0  0  0  0
    2.2046   -4.2284    0.6642 H   0  0  0  0  0  0  0  0  0  0  0  0
    3.9212   -2.0342    1.9149 H   0  0  0  0  0  0  0  0  0  0  0  0
    4.4481   -3.6372    1.3728 H   0  0  0  0  0  0  0  0  0  0  0  0
    3.8856   -2.4393    0.1870 H   0  0  0  0  0  0  0  0  0  0  0  0
    1.7068   -3.1078    3.8100 N   0  0  0  0  0  0  0  0  0  0  0  0
    1.5599   -3.5552    5.1872 C   0  0  0  0  0  0  0  0  0  0  0  0
    1.6924   -2.1052    3.6021 H   0  0  0  0  0  0  0  0  0  0  0  0
    2.5071   -3.9556    5.5627 H   0  0  0  0  0  0  0  0  0  0  0  0
    1.2595   -2.7177    5.8241 H   0  0  0  0  0  0  0  0  0  0  0  0
    0.7941   -4.3343    5.2574 H   0  0  0  0  0  0  0  0  0  0  0  0
  1  2  2  0  0  0  0
  1  3  1  0  0  0  0
  1  7  1  0  0  0  0
  3  4  1  0  0  0  0
  3  5  1  0  0  0  0
  3  6  1  0  0  0  0
  7  8  1  0  0  0  0
  7 12  1  0  0  0  0
  8  9  1  0  0  0  0
  8 11  1  0  0  0  0
  8 13  1  0  0  0  0
  9 10  2  0  0  0  0
  9 17  1  0  0  0  0
 11 14  1  0  0  0  0
 11 15  1  0  0  0  0
 11 16  1  0  0  0  0
 17 18  1  0  0  0  0
 17 25  1  0  0  0  0
 18 19  1  0  0  0  0
 18 21  1  0  0  0  0
 18 26  1  0  0  0  0
 19 20  2  0  0  0  0
 19 36  1  0  0  0  0
 21 22  1  0  0  0  0
 21 27  1  0  0  0  0
 21 28  1  0  0  0  0
 22 23  1  0  0  0  0
 22 24  1  0  0  0  0
 22 29  1  0  0  0  0
 23 30  1  0  0  0  0
 23 31  1  0  0  0  0
 23 32  1  0  0  0  0
 24 33  1  0  0  0  0
 24 34  1  0  0  0  0
 24 35  1  0  0  0  0
 36 37  1  0  0  0  0
 36 41  1  0  0  0  0
 37 38  1  0  0  0  0
 37 40  1  0  0  0  0
 37 42  1  0  0  0  0
 38 39  2  0  0  0  0
 38 46  1  0  0  0  0
 40 43  1  0  0  0  0
 40 44  1  0  0  0  0
 40 45  1  0  0  0  0
 46 47  1  0  0  0  0
 46 48  1  0  0  0  0
 47 49  1  0  0  0  0
 47 50  1  0  0  0  0
 47 51  1  0  0  0  0
M  END
$$$$

  -OEChem-05262216553D

 51 50  0     1  0  0  0  0  0999 V2000
    1.6282   -2.9076   -2.7363 C   0  0  0  0  0  0  0  0  0  0  0  0
    0.6481   -2.8886   -2.0041 O   0  0  0  0  0  0  0  0  0  0  0  0
    2.3632   -4.2116   -2.9806 C   0  0  0  0  0  0  0  0  0  0  0  0
    3.3903   -4.1360   -2.6145 H   0  0  0  0  0  0  0  0  0  0  0  0
    1.8636   -5.0322   -2.4574 H   0  0  0  0  0  0  0  0  0  0  0  0
    2.3805   -4.4369   -4.0498 H   0  0  0  0  0  0  0  0  0  0  0  0
    2.1066   -1.7361   -3.2919 N   0  0  0  0  0  0  0  0  0  0  0  0
    1.5683   -0.3920   -3.0132 C   0  0  2  0  0  0  0  0  0  0  0  0
    1.5266   -0.0736   -1.4997 C   0  0  0  0  0  0  0  0  0  0  0  0
    2.5824    0.0896   -0.9070 O   0  0  0  0  0  0  0  0  0  0  0  0
    0.2090   -0.2221   -3.7117 C   0  0  0  0  0  0  0  0  0  0  0  0
    3.0039   -1.7985   -3.7658 H   0  0  0  0  0  0  0  0  0  0  0  0
    2.2508    0.3436   -3.4510 H   0  0  0  0  0  0  0  0  0  0  0  0
   -0.5290   -0.9333   -3.3283 H   0  0  0  0  0  0  0  0  0  0  0  0
   -0.1724    0.7923   -3.5579 H   0  0  0  0  0  0  0  0  0  0  0  0
    0.3172   -0.3881   -4.7879 H   0  0  0  0  0  0  0  0  0  0  0  0
    0.3249   -0.0066   -0.8128 N   0  0  0  0  0  0  0  0  0  0  0  0
    0.1572   -0.1821    0.6441 C   0  0  2  0  0  0  0  0  0  0  0  0
    1.1726   -1.1257    1.3326 C   0  0  0  0  0  0  0  0  0  0  0  0
    1.5607   -0.8695    2.4665 O   0  0  0  0  0  0  0  0  0  0  0  0
   -1.2660   -0.6906    0.9734 C   0  0  0  0  0  0  0  0  0  0  0  0
   -2.4498    0.2676    0.6793 C   0  0  0  0  0  0  0  0  0  0  0  0
   -3.7570   -0.4929    0.9404 C   0  0  0  0  0  0  0  0  0  0  0  0
   -2.5132    0.8291   -0.7495 C   0  0  0  0  0  0  0  0  0  0  0  0
   -0.4798   -0.2639   -1.3768 H   0  0  0  0  0  0  0  0  0  0  0  0
    0.2910    0.7991    1.1113 H   0  0  0  0  0  0  0  0  0  0  0  0
   -1.3014   -0.9356    2.0410 H   0  0  0  0  0  0  0  0  0  0  0  0
   -1.4241   -1.6255    0.4241 H   0  0  0  0  0  0  0  0  0  0  0  0
   -2.3886    1.1133    1.3731 H   0  0  0  0  0  0  0  0  0  0  0  0
   -3.8636   -1.3322    0.2457 H   0  0  0  0  0  0  0  0  0  0  0  0
   -4.6184    0.1711    0.8174 H   0  0  0  0  0  0  0  0  0  0  0  0
   -3.7735   -0.8842    1.9627 H   0  0  0  0  0  0  0  0  0  0  0  0
   -2.4360    0.0238   -1.4865 H   0  0  0  0  0  0  0  0  0  0  0  0
   -3.4608    1.3529   -0.9111 H   0  0  0  0  0  0  0  0  0  0  0  0
   -1.7099    1.5518   -0.9176 H   0  0  0  0  0  0  0  0  0  0  0  0
    1.4803   -2.3436    0.7465 N   0  0  0  0  0  0  0  0  0  0  0  0
    2.5038   -3.3138    1.1798 C   0  0  2  0  0  0  0  0  0  0  0  0
    2.1810   -4.0904    2.4761 C   0  0  0  0  0  0  0  0  0  0  0  0
    2.4212   -5.2905    2.5317 O   0  0  0  0  0  0  0  0  0  0  0  0
    3.8792   -2.6410    1.2749 C   0  0  0  0  0  0  0  0  0  0  0  0
    1.0724   -2.4861   -0.1805 H   0  0  0  0  0  0  0  0  0  0  0  0
    2.5697   -4.0692    0.3906 H   0  0  0  0  0  0  0  0  0  0  0  0
    3.9146   -1.9311    2.1065 H   0  0  0  0  0  0  0  0  0  0  0  0
    4.6561   -3.3951    1.4352 H   0  0  0  0  0  0  0  0  0  0  0  0
    4.1029   -2.1017    0.3494 H   0  0  0  0  0  0  0  0  0  0  0  0
    1.6583   -3.4573    3.5851 N   0  0  0  0  0  0  0  0  0  0  0  0
    1.4213   -4.1105    4.8640 C   0  0  0  0  0  0  0  0  0  0  0  0
    1.5622   -2.4404    3.5119 H   0  0  0  0  0  0  0  0  0  0  0  0
    0.9783   -3.4028    5.5713 H   0  0  0  0  0  0  0  0  0  0  0  0
    0.7331   -4.9531    4.7410 H   0  0  0  0  0  0  0  0  0  0  0  0
    2.3621   -4.4804    5.2848 H   0  0  0  0  0  0  0  0  0  0  0  0
  1  2  2  0  0  0  0
  1  3  1  0  0  0  0
  1  7  1  0  0  0  0
  3  4  1  0  0  0  0
  3  5  1  0  0  0  0
  3  6  1  0  0  0  0
  7  8  1  0  0  0  0
  7 12  1  0  0  0  0
  8  9  1  0  0  0  0
  8 11  1  0  0  0  0
  8 13  1  0  0  0  0
  9 10  2  0  0  0  0
  9 17  1  0  0  0  0
 11 14  1  0  0  0  0
 11 15  1  0  0  0  0
 11 16  1  0  0  0  0
 17 18  1  0  0  0  0
 17 25  1  0  0  0  0
 18 19  1  0  0  0  0
 18 21  1  0  0  0  0
 18 26  1  0  0  0  0
 19 20  2  0  0  0  0
 19 36  1  0  0  0  0
 21 22  1  0  0  0  0
 21 27  1  0  0  0  0
 21 28  1  0  0  0  0
 22 23  1  0  0  0  0
 22 24  1  0  0  0  0
 22 29  1  0  0  0  0
 23 30  1  0  0  0  0
 23 31  1  0  0  0  0
 23 32  1  0  0  0  0
 24 33  1  0  0  0  0
 24 34  1  0  0  0  0
 24 35  1  0  0  0  0
 36 37  1  0  0  0  0
 36 41  1  0  0  0  0
 37 38  1  0  0  0  0
 37 40  1  0  0  0  0
 37 42  1  0  0  0  0
 38 39  2  0  0  0  0
 38 46  1  0  0  0  0
 40 43  1  0  0  0  0
 40 44  1  0  0  0  0
 40 45  1  0  0  0  0
 46 47  1  0  0  0  0
 46 48  1  0  0  0  0
 47 49  1  0  0  0  0
 47 50  1  0  0  0  0
 47 51  1  0  0  0  0
M  END
$$$$

  -OEChem-05262216553D

 51 50  0     1  0  0  0  0  0999 V2000
    1.8252   -2.8592   -2.8643 C   0  0  0  0  0  0  0  0  0  0  0  0
    0.8947   -2.9462   -2.0753 O   0  0  0  0  0  0  0  0  0  0  0  0
    2.6821   -4.0744   -3.1635 C   0  0  0  0  0  0  0  0  0  0  0  0
    3.7167   -3.8845   -2.8670 H   0  0  0  0  0  0  0  0  0  0  0  0
    2.3129   -4.9434   -2.6110 H   0  0  0  0  0  0  0  0  0  0  0  0
    2.6520   -4.2994   -4.2325 H   0  0  0  0  0  0  0  0  0  0  0  0
    2.1391   -1.6394   -3.4325 N   0  0  0  0  0  0  0  0  0  0  0  0
    1.4735   -0.3660   -3.1020 C   0  0  2  0  0  0  0  0  0  0  0  0
    1.4687   -0.0780   -1.5807 C   0  0  0  0  0  0  0  0  0  0  0  0
    2.5359    0.1166   -1.0183 O   0  0  0  0  0  0  0  0  0  0  0  0
    0.0731   -0.3373   -3.7362 C   0  0  0  0  0  0  0  0  0  0  0  0
    3.0082   -1.5998   -3.9581 H   0  0  0  0  0  0  0  0  0  0  0  0
    2.0515    0.4455   -3.5557 H   0  0  0  0  0  0  0  0  0  0  0  0
   -0.5687   -1.1183   -3.3171 H   0  0  0  0  0  0  0  0  0  0  0  0
   -0.4018    0.6342   -3.5665 H   0  0  0  0  0  0  0  0  0  0  0  0
    0.1466   -0.4976   -4.8164 H   0  0  0  0  0  0  0  0  0  0  0  0
    0.2889   -0.0277   -0.8555 N   0  0  0  0  0  0  0  0  0  0  0  0
    0.1583   -0.2125    0.6056 C   0  0  2  0  0  0  0  0  0  0  0  0
    1.1797   -1.1465    1.3060 C   0  0  0  0  0  0  0  0  0  0  0  0
    1.4073   -0.9828    2.4995 O   0  0  0  0  0  0  0  0  0  0  0  0
   -1.2571   -0.7391    0.9454 C   0  0  0  0  0  0  0  0  0  0  0  0
   -2.4572    0.2060    0.6751 C   0  0  0  0  0  0  0  0  0  0  0  0
   -3.7496   -0.5763    0.9446 C   0  0  0  0  0  0  0  0  0  0  0  0
   -2.5484    0.7829   -0.7458 C   0  0  0  0  0  0  0  0  0  0  0  0
   -0.5327   -0.2764   -1.3980 H   0  0  0  0  0  0  0  0  0  0  0  0
    0.2857    0.7697    1.0724 H   0  0  0  0  0  0  0  0  0  0  0  0
   -1.2818   -0.9952    2.0108 H   0  0  0  0  0  0  0  0  0  0  0  0
   -1.4085   -1.6711    0.3890 H   0  0  0  0  0  0  0  0  0  0  0  0
   -2.3989    1.0445    1.3778 H   0  0  0  0  0  0  0  0  0  0  0  0
   -3.8523   -1.4108    0.2435 H   0  0  0  0  0  0  0  0  0  0  0  0
   -4.6226    0.0754    0.8393 H   0  0  0  0  0  0  0  0  0  0  0  0
   -3.7475   -0.9774    1.9631 H   0  0  0  0  0  0  0  0  0  0  0  0
   -2.4705   -0.0126   -1.4932 H   0  0  0  0  0  0  0  0  0  0  0  0
   -3.5056    1.2945   -0.8882 H   0  0  0  0  0  0  0  0  0  0  0  0
   -1.7582    1.5195   -0.9162 H   0  0  0  0  0  0  0  0  0  0  0  0
    1.7439   -2.2209    0.6370 N   0  0  0  0  0  0  0  0  0  0  0  0
    2.8051   -3.1282    1.1129 C   0  0  2  0  0  0  0  0  0  0  0  0
    2.3877   -4.1015    2.2384 C   0  0  0  0  0  0  0  0  0  0  0  0
    2.7175   -5.2795    2.1692 O   0  0  0  0  0  0  0  0  0  0  0  0
    4.0572   -2.3349    1.5086 C   0  0  0  0  0  0  0  0  0  0  0  0
    1.4299   -2.3403   -0.3282 H   0  0  0  0  0  0  0  0  0  0  0  0
    3.0811   -3.7576    0.2613 H   0  0  0  0  0  0  0  0  0  0  0  0
    3.8850   -1.7522    2.4184 H   0  0  0  0  0  0  0  0  0  0  0  0
    4.8917   -3.0182    1.6932 H   0  0  0  0  0  0  0  0  0  0  0  0
    4.3405   -1.6488    0.7043 H   0  0  0  0  0  0  0  0  0  0  0  0
    1.6744   -3.6663    3.3370 N   0  0  0  0  0  0  0  0  0  0  0  0
    1.3082   -4.5107    4.4648 C   0  0  0  0  0  0  0  0  0  0  0  0
    1.4819   -2.6612    3.3732 H   0  0  0  0  0  0  0  0  0  0  0  0
    2.2049   -4.8916    4.9647 H   0  0  0  0  0  0  0  0  0  0  0  0
    0.7231   -3.9364    5.1897 H   0  0  0  0  0  0  0  0  0  0  0  0
    0.7037   -5.3591    4.1274 H   0  0  0  0  0  0  0  0  0  0  0  0
  1  2  2  0  0  0  0
  1  3  1  0  0  0  0
  1  7  1  0  0  0  0
  3  4  1  0  0  0  0
  3  5  1  0  0  0  0
  3  6  1  0  0  0  0
  7  8  1  0  0  0  0
  7 12  1  0  0  0  0
  8  9  1  0  0  0  0
  8 11  1  0  0  0  0
  8 13  1  0  0  0  0
  9 10  2  0  0  0  0
  9 17  1  0  0  0  0
 11 14  1  0  0  0  0
 11 15  1  0  0  0  0
 11 16  1  0  0  0  0
 17 18  1  0  0  0  0
 17 25  1  0  0  0  0
 18 19  1  0  0  0  0
 18 21  1  0  0  0  0
 18 26  1  0  0  0  0
 19 20  2  0  0  0  0
 19 36  1  0  0  0  0
 21 22  1  0  0  0  0
 21 27  1  0  0  0  0
 21 28  1  0  0  0  0
 22 23  1  0  0  0  0
 22 24  1  0  0  0  0
 22 29  1  0  0  0  0
 23 30  1  0  0  0  0
 23 31  1  0  0  0  0
 23 32  1  0  0  0  0
 24 33  1  0  0  0  0
 24 34  1  0  0  0  0
 24 35  1  0  0  0  0
 36 37  1  0  0  0  0
 36 41  1  0  0  0  0
 37 38  1  0  0  0  0
 37 40  1  0  0  0  0
 37 42  1  0  0  0  0
 38 39  2  0  0  0  0
 38 46  1  0  0  0  0
 40 43  1  0  0  0  0
 40 44  1  0  0  0  0
 40 45  1  0  0  0  0
 46 47  1  0  0  0  0
 46 48  1  0  0  0  0
 47 49  1  0  0  0  0
 47 50  1  0  0  0  0
 47 51  1  0  0  0  0
M  END
$$$$

  -OEChem-05262216553D

 51 50  0     1  0  0  0  0  0999 V2000
    2.0936   -2.7983   -3.0189 C   0  0  0  0  0  0  0  0  0  0  0  0
    1.2504   -3.0373   -2.1669 O   0  0  0  0  0  0  0  0  0  0  0  0
    3.1276   -3.8488   -3.3759 C   0  0  0  0  0  0  0  0  0  0  0  0
    4.1308   -3.4771   -3.1528 H   0  0  0  0  0  0  0  0  0  0  0  0
    2.9549   -4.7603   -2.7960 H   0  0  0  0  0  0  0  0  0  0  0  0
    3.0635   -4.0917   -4.4393 H   0  0  0  0  0  0  0  0  0  0  0  0
    2.1453   -1.5481   -3.6060 N   0  0  0  0  0  0  0  0  0  0  0  0
    1.3054   -0.4075   -3.1959 C   0  0  2  0  0  0  0  0  0  0  0  0
    1.3929   -0.1292   -1.6744 C   0  0  0  0  0  0  0  0  0  0  0  0
    2.4917    0.0582   -1.1736 O   0  0  0  0  0  0  0  0  0  0  0  0
   -0.1319   -0.6232   -3.6984 C   0  0  0  0  0  0  0  0  0  0  0  0
    2.9652   -1.3558   -4.1749 H   0  0  0  0  0  0  0  0  0  0  0  0
    1.6912    0.4914   -3.6871 H   0  0  0  0  0  0  0  0  0  0  0  0
   -0.6020   -1.4764   -3.1992 H   0  0  0  0  0  0  0  0  0  0  0  0
   -0.7389    0.2683   -3.5128 H   0  0  0  0  0  0  0  0  0  0  0  0
   -0.1285   -0.8158   -4.7758 H   0  0  0  0  0  0  0  0  0  0  0  0
    0.2615   -0.0425   -0.8807 N   0  0  0  0  0  0  0  0  0  0  0  0
    0.1918   -0.2459    0.5837 C   0  0  2  0  0  0  0  0  0  0  0  0
    1.1869   -1.2318    1.2636 C   0  0  0  0  0  0  0  0  0  0  0  0
    1.2884   -1.1989    2.4853 O   0  0  0  0  0  0  0  0  0  0  0  0
   -1.2462   -0.6863    0.9620 C   0  0  0  0  0  0  0  0  0  0  0  0
   -2.3901    0.3425    0.7534 C   0  0  0  0  0  0  0  0  0  0  0  0
   -3.7237   -0.3570    1.0507 C   0  0  0  0  0  0  0  0  0  0  0  0
   -2.4938    0.9641   -0.6477 C   0  0  0  0  0  0  0  0  0  0  0  0
   -0.6010   -0.2356   -1.3801 H   0  0  0  0  0  0  0  0  0  0  0  0
    0.3891    0.7244    1.0510 H   0  0  0  0  0  0  0  0  0  0  0  0
   -1.2581   -0.9641    2.0221 H   0  0  0  0  0  0  0  0  0  0  0  0
   -1.4766   -1.5940    0.3932 H   0  0  0  0  0  0  0  0  0  0  0  0
   -2.2513    1.1563    1.4736 H   0  0  0  0  0  0  0  0  0  0  0  0
   -3.9129   -1.1577    0.3282 H   0  0  0  0  0  0  0  0  0  0  0  0
   -4.5510    0.3581    1.0012 H   0  0  0  0  0  0  0  0  0  0  0  0
   -3.7116   -0.7914    2.0554 H   0  0  0  0  0  0  0  0  0  0  0  0
   -2.5005    0.1869   -1.4179 H   0  0  0  0  0  0  0  0  0  0  0  0
   -3.4176    1.5441   -0.7390 H   0  0  0  0  0  0  0  0  0  0  0  0
   -1.6614    1.6495   -0.8303 H   0  0  0  0  0  0  0  0  0  0  0  0
    1.9317   -2.1596    0.5544 N   0  0  0  0  0  0  0  0  0  0  0  0
    3.0214   -3.0239    1.0464 C   0  0  2  0  0  0  0  0  0  0  0  0
    2.5897   -4.1645    1.9953 C   0  0  0  0  0  0  0  0  0  0  0  0
    3.0819   -5.2786    1.8609 O   0  0  0  0  0  0  0  0  0  0  0  0
    4.1414   -2.1820    1.6707 C   0  0  0  0  0  0  0  0  0  0  0  0
    1.7429   -2.1889   -0.4489 H   0  0  0  0  0  0  0  0  0  0  0  0
    3.4454   -3.5156    0.1655 H   0  0  0  0  0  0  0  0  0  0  0  0
    3.8202   -1.7355    2.6161 H   0  0  0  0  0  0  0  0  0  0  0  0
    5.0165   -2.8088    1.8680 H   0  0  0  0  0  0  0  0  0  0  0  0
    4.4355   -1.3787    0.9880 H   0  0  0  0  0  0  0  0  0  0  0  0
    1.6871   -3.9485    3.0169 N   0  0  0  0  0  0  0  0  0  0  0  0
    1.2985   -4.9576    3.9912 C   0  0  0  0  0  0  0  0  0  0  0  0
    1.3751   -2.9809    3.1368 H   0  0  0  0  0  0  0  0  0  0  0  0
    0.5741   -4.5404    4.6970 H   0  0  0  0  0  0  0  0  0  0  0  0
    0.8387   -5.8154    3.4894 H   0  0  0  0  0  0  0  0  0  0  0  0
    2.1722   -5.3035    4.5533 H   0  0  0  0  0  0  0  0  0  0  0  0
  1  2  2  0  0  0  0
  1  3  1  0  0  0  0
  1  7  1  0  0  0  0
  3  4  1  0  0  0  0
  3  5  1  0  0  0  0
  3  6  1  0  0  0  0
  7  8  1  0  0  0  0
  7 12  1  0  0  0  0
  8  9  1  0  0  0  0
  8 11  1  0  0  0  0
  8 13  1  0  0  0  0
  9 10  2  0  0  0  0
  9 17  1  0  0  0  0
 11 14  1  0  0  0  0
 11 15  1  0  0  0  0
 11 16  1  0  0  0  0
 17 18  1  0  0  0  0
 17 25  1  0  0  0  0
 18 19  1  0  0  0  0
 18 21  1  0  0  0  0
 18 26  1  0  0  0  0
 19 20  2  0  0  0  0
 19 36  1  0  0  0  0
 21 22  1  0  0  0  0
 21 27  1  0  0  0  0
 21 28  1  0  0  0  0
 22 23  1  0  0  0  0
 22 24  1  0  0  0  0
 22 29  1  0  0  0  0
 23 30  1  0  0  0  0
 23 31  1  0  0  0  0
 23 32  1  0  0  0  0
 24 33  1  0  0  0  0
 24 34  1  0  0  0  0
 24 35  1  0  0  0  0
 36 37  1  0  0  0  0
 36 41  1  0  0  0  0
 37 38  1  0  0  0  0
 37 40  1  0  0  0  0
 37 42  1  0  0  0  0
 38 39  2  0  0  0  0
 38 46  1  0  0  0  0
 40 43  1  0  0  0  0
 40 44  1  0  0  0  0
 40 45  1  0  0  0  0
 46 47  1  0  0  0  0
 46 48  1  0  0  0  0
 47 49  1  0  0  0  0
 47 50  1  0  0  0  0
 47 51  1  0  0  0  0
M  END
$$$$

  -OEChem-05262216553D

 51 50  0     1  0  0  0  0  0999 V2000
    0.6168   -2.6377   -3.0877 C   0  0  0  0  0  0  0  0  0  0  0  0
   -0.4150   -2.1983   -2.6059 O   0  0  0  0  0  0  0  0  0  0  0  0
    0.7539   -4.1260   -3.3451 C   0  0  0  0  0  0  0  0  0  0  0  0
    1.5048   -4.5530   -2.6753 H   0  0  0  0  0  0  0  0  0  0  0  0
   -0.2012   -4.6293   -3.1689 H   0  0  0  0  0  0  0  0  0  0  0  0
    1.0564   -4.3021   -4.3802 H   0  0  0  0  0  0  0  0  0  0  0  0
    1.6782   -1.7949   -3.3617 N   0  0  0  0  0  0  0  0  0  0  0  0
    1.7286   -0.3379   -3.1228 C   0  0  2  0  0  0  0  0  0  0  0  0
    1.6709    0.0396   -1.6252 C   0  0  0  0  0  0  0  0  0  0  0  0
    2.6791    0.4710   -1.0853 O   0  0  0  0  0  0  0  0  0  0  0  0
    0.6571    0.4017   -3.9388 C   0  0  0  0  0  0  0  0  0  0  0  0
    2.5203   -2.2439   -3.7133 H   0  0  0  0  0  0  0  0  0  0  0  0
    2.6990    0.0148   -3.4883 H   0  0  0  0  0  0  0  0  0  0  0  0
   -0.3516    0.1666   -3.5873 H   0  0  0  0  0  0  0  0  0  0  0  0
    0.8028    1.4832   -3.8548 H   0  0  0  0  0  0  0  0  0  0  0  0
    0.7282    0.1252   -4.9951 H   0  0  0  0  0  0  0  0  0  0  0  0
    0.5156   -0.1429   -0.8893 N   0  0  0  0  0  0  0  0  0  0  0  0
    0.3586   -0.3238    0.5736 C   0  0  2  0  0  0  0  0  0  0  0  0
    1.4899   -1.0132    1.4029 C   0  0  0  0  0  0  0  0  0  0  0  0
    1.2798   -1.2765    2.5817 O   0  0  0  0  0  0  0  0  0  0  0  0
   -1.0012   -1.0348    0.8255 C   0  0  0  0  0  0  0  0  0  0  0  0
   -2.2970   -0.2528    0.4720 C   0  0  0  0  0  0  0  0  0  0  0  0
   -3.4907   -1.1984    0.6616 C   0  0  0  0  0  0  0  0  0  0  0  0
   -2.3859    0.3361   -0.9439 C   0  0  0  0  0  0  0  0  0  0  0  0
   -0.2052   -0.6166   -1.4426 H   0  0  0  0  0  0  0  0  0  0  0  0
    0.2880    0.6801    1.0036 H   0  0  0  0  0  0  0  0  0  0  0  0
   -1.0802   -1.2963    1.8856 H   0  0  0  0  0  0  0  0  0  0  0  0
   -0.9917   -1.9765    0.2656 H   0  0  0  0  0  0  0  0  0  0  0  0
   -2.3927    0.5762    1.1815 H   0  0  0  0  0  0  0  0  0  0  0  0
   -3.4463   -2.0258   -0.0542 H   0  0  0  0  0  0  0  0  0  0  0  0
   -4.4330   -0.6616    0.5140 H   0  0  0  0  0  0  0  0  0  0  0  0
   -3.4924   -1.6144    1.6740 H   0  0  0  0  0  0  0  0  0  0  0  0
   -2.1933   -0.4324   -1.6974 H   0  0  0  0  0  0  0  0  0  0  0  0
   -3.3851    0.7454   -1.1225 H   0  0  0  0  0  0  0  0  0  0  0  0
   -1.6726    1.1551   -1.0706 H   0  0  0  0  0  0  0  0  0  0  0  0
    2.6658   -1.4798    0.8393 N   0  0  0  0  0  0  0  0  0  0  0  0
    3.7608   -2.2210    1.4963 C   0  0  2  0  0  0  0  0  0  0  0  0
    3.3878   -3.6610    1.9143 C   0  0  0  0  0  0  0  0  0  0  0  0
    4.0394   -4.6047    1.4836 O   0  0  0  0  0  0  0  0  0  0  0  0
    4.3537   -1.4328    2.6731 C   0  0  0  0  0  0  0  0  0  0  0  0
    2.8933   -1.0241   -0.0449 H   0  0  0  0  0  0  0  0  0  0  0  0
    4.5581   -2.3219    0.7530 H   0  0  0  0  0  0  0  0  0  0  0  0
    3.6543   -1.3799    3.5123 H   0  0  0  0  0  0  0  0  0  0  0  0
    5.2691   -1.9186    3.0248 H   0  0  0  0  0  0  0  0  0  0  0  0
    4.6002   -0.4136    2.3605 H   0  0  0  0  0  0  0  0  0  0  0  0
    2.3121   -3.9061    2.7434 N   0  0  0  0  0  0  0  0  0  0  0  0
    1.8505   -5.2357    3.1142 C   0  0  0  0  0  0  0  0  0  0  0  0
    1.7546   -3.0869    3.0019 H   0  0  0  0  0  0  0  0  0  0  0  0
    0.9974   -5.1611    3.7953 H   0  0  0  0  0  0  0  0  0  0  0  0
    1.5384   -5.7940    2.2258 H   0  0  0  0  0  0  0  0  0  0  0  0
    2.6482   -5.7906    3.6187 H   0  0  0  0  0  0  0  0  0  0  0  0
  1  2  2  0  0  0  0
  1  3  1  0  0  0  0
  1  7  1  0  0  0  0
  3  4  1  0  0  0  0
  3  5  1  0  0  0  0
  3  6  1  0  0  0  0
  7  8  1  0  0  0  0
  7 12  1  0  0  0  0
  8  9  1  0  0  0  0
  8 11  1  0  0  0  0
  8 13  1  0  0  0  0
  9 10  2  0  0  0  0
  9 17  1  0  0  0  0
 11 14  1  0  0  0  0
 11 15  1  0  0  0  0
 11 16  1  0  0  0  0
 17 18  1  0  0  0  0
 17 25  1  0  0  0  0
 18 19  1  0  0  0  0
 18 21  1  0  0  0  0
 18 26  1  0  0  0  0
 19 20  2  0  0  0  0
 19 36  1  0  0  0  0
 21 22  1  0  0  0  0
 21 27  1  0  0  0  0
 21 28  1  0  0  0  0
 22 23  1  0  0  0  0
 22 24  1  0  0  0  0
 22 29  1  0  0  0  0
 23 30  1  0  0  0  0
 23 31  1  0  0  0  0
 23 32  1  0  0  0  0
 24 33  1  0  0  0  0
 24 34  1  0  0  0  0
 24 35  1  0  0  0  0
 36 37  1  0  0  0  0
 36 41  1  0  0  0  0
 37 38  1  0  0  0  0
 37 40  1  0  0  0  0
 37 42  1  0  0  0  0
 38 39  2  0  0  0  0
 38 46  1  0  0  0  0
 40 43  1  0  0  0  0
 40 44  1  0  0  0  0
 40 45  1  0  0  0  0
 46 47  1  0  0  0  0
 46 48  1  0  0  0  0
 47 49  1  0  0  0  0
 47 50  1  0  0  0  0
 47 51  1  0  0  0  0
M  END
$$$$

  -OEChem-05262216553D

 51 50  0     1  0  0  0  0  0999 V2000
    0.9197   -2.9993   -2.2950 C   0  0  0  0  0  0  0  0  0  0  0  0
   -0.2045   -2.5223   -2.2928 O   0  0  0  0  0  0  0  0  0  0  0  0
    1.0902   -4.4977   -2.1262 C   0  0  0  0  0  0  0  0  0  0  0  0
    1.9904   -4.7200   -1.5499 H   0  0  0  0  0  0  0  0  0  0  0  0
    0.2265   -4.9179   -1.6039 H   0  0  0  0  0  0  0  0  0  0  0  0
    1.1762   -4.9710   -3.1072 H   0  0  0  0  0  0  0  0  0  0  0  0
    2.0220   -2.1875   -2.4813 N   0  0  0  0  0  0  0  0  0  0  0  0
    2.0192   -0.7439   -2.8097 C   0  0  2  0  0  0  0  0  0  0  0  0
    1.5791    0.1677   -1.6436 C   0  0  0  0  0  0  0  0  0  0  0  0
    2.3166    1.0738   -1.2792 O   0  0  0  0  0  0  0  0  0  0  0  0
    1.2014   -0.4483   -4.0752 C   0  0  0  0  0  0  0  0  0  0  0  0
    2.9147   -2.6171   -2.2306 H   0  0  0  0  0  0  0  0  0  0  0  0
    3.0558   -0.4731   -3.0365 H   0  0  0  0  0  0  0  0  0  0  0  0
    0.1288   -0.5658   -3.8954 H   0  0  0  0  0  0  0  0  0  0  0  0
    1.3788    0.5810   -4.4021 H   0  0  0  0  0  0  0  0  0  0  0  0
    1.4956   -1.1235   -4.8843 H   0  0  0  0  0  0  0  0  0  0  0  0
    0.4281   -0.0910   -0.9265 N   0  0  0  0  0  0  0  0  0  0  0  0
    0.2443   -0.0310    0.5443 C   0  0  2  0  0  0  0  0  0  0  0  0
    1.4689   -0.3508    1.4710 C   0  0  0  0  0  0  0  0  0  0  0  0
    1.2776   -0.8882    2.5568 O   0  0  0  0  0  0  0  0  0  0  0  0
   -1.0037   -0.8857    0.9085 C   0  0  0  0  0  0  0  0  0  0  0  0
   -2.3857   -0.3843    0.4048 C   0  0  0  0  0  0  0  0  0  0  0  0
   -3.4347   -1.4501    0.7489 C   0  0  0  0  0  0  0  0  0  0  0  0
   -2.5096   -0.0667   -1.0927 C   0  0  0  0  0  0  0  0  0  0  0  0
   -0.1135   -0.8401   -1.3703 H   0  0  0  0  0  0  0  0  0  0  0  0
   -0.0006    1.0089    0.7813 H   0  0  0  0  0  0  0  0  0  0  0  0
   -1.0879   -0.9534    1.9977 H   0  0  0  0  0  0  0  0  0  0  0  0
   -0.8333   -1.9014    0.5355 H   0  0  0  0  0  0  0  0  0  0  0  0
   -2.6281    0.5314    0.9546 H   0  0  0  0  0  0  0  0  0  0  0  0
   -3.2418   -2.3741    0.1940 H   0  0  0  0  0  0  0  0  0  0  0  0
   -4.4387   -1.0960    0.4947 H   0  0  0  0  0  0  0  0  0  0  0  0
   -3.4151   -1.6766    1.8195 H   0  0  0  0  0  0  0  0  0  0  0  0
   -2.1845   -0.9157   -1.6994 H   0  0  0  0  0  0  0  0  0  0  0  0
   -3.5505    0.1555   -1.3479 H   0  0  0  0  0  0  0  0  0  0  0  0
   -1.9166    0.8137   -1.3548 H   0  0  0  0  0  0  0  0  0  0  0  0
    2.7695   -0.3833    0.9969 N   0  0  0  0  0  0  0  0  0  0  0  0
    3.8079   -1.3682    1.3354 C   0  0  2  0  0  0  0  0  0  0  0  0
    3.3350   -2.8006    1.0093 C   0  0  0  0  0  0  0  0  0  0  0  0
    3.6137   -3.2947   -0.0799 O   0  0  0  0  0  0  0  0  0  0  0  0
    4.3093   -1.2141    2.7798 C   0  0  0  0  0  0  0  0  0  0  0  0
    2.9056    0.1463    0.1342 H   0  0  0  0  0  0  0  0  0  0  0  0
    4.6664   -1.1700    0.6858 H   0  0  0  0  0  0  0  0  0  0  0  0
    3.5385   -1.4787    3.5084 H   0  0  0  0  0  0  0  0  0  0  0  0
    5.1729   -1.8649    2.9474 H   0  0  0  0  0  0  0  0  0  0  0  0
    4.6145   -0.1792    2.9624 H   0  0  0  0  0  0  0  0  0  0  0  0
    2.4514   -3.4450    1.8532 N   0  0  0  0  0  0  0  0  0  0  0  0
    1.7490   -4.6730    1.5097 C   0  0  0  0  0  0  0  0  0  0  0  0
    2.0351   -2.8371    2.5641 H   0  0  0  0  0  0  0  0  0  0  0  0
    0.9251   -4.4592    0.8223 H   0  0  0  0  0  0  0  0  0  0  0  0
    2.4277   -5.3921    1.0394 H   0  0  0  0  0  0  0  0  0  0  0  0
    1.3383   -5.1341    2.4131 H   0  0  0  0  0  0  0  0  0  0  0  0
  1  2  2  0  0  0  0
  1  3  1  0  0  0  0
  1  7  1  0  0  0  0
  3  4  1  0  0  0  0
  3  5  1  0  0  0  0
  3  6  1  0  0  0  0
  7  8  1  0  0  0  0
  7 12  1  0  0  0  0
  8  9  1  0  0  0  0
  8 11  1  0  0  0  0
  8 13  1  0  0  0  0
  9 10  2  0  0  0  0
  9 17  1  0  0  0  0
 11 14  1  0  0  0  0
 11 15  1  0  0  0  0
 11 16  1  0  0  0  0
 17 18  1  0  0  0  0
 17 25  1  0  0  0  0
 18 19  1  0  0  0  0
 18 21  1  0  0  0  0
 18 26  1  0  0  0  0
 19 20  2  0  0  0  0
 19 36  1  0  0  0  0
 21 22  1  0  0  0  0
 21 27  1  0  0  0  0
 21 28  1  0  0  0  0
 22 23  1  0  0  0  0
 22 24  1  0  0  0  0
 22 29  1  0  0  0  0
 23 30  1  0  0  0  0
 23 31  1  0  0  0  0
 23 32  1  0  0  0  0
 24 33  1  0  0  0  0
 24 34  1  0  0  0  0
 24 35  1  0  0  0  0
 36 37  1  0  0  0  0
 36 41  1  0  0  0  0
 37 38  1  0  0  0  0
 37 40  1  0  0  0  0
 37 42  1  0  0  0  0
 38 39  2  0  0  0  0
 38 46  1  0  0  0  0
 40 43  1  0  0  0  0
 40 44  1  0  0  0  0
 40 45  1  0  0  0  0
 46 47  1  0  0  0  0
 46 48  1  0  0  0  0
 47 49  1  0  0  0  0
 47 50  1  0  0  0  0
 47 51  1  0  0  0  0
M  END
$$$$

  -OEChem-05262216553D

 51 50  0     1  0  0  0  0  0999 V2000
    2.5699   -0.7874   -2.3101 C   0  0  0  0  0  0  0  0  0  0  0  0
    1.6855    0.0566   -2.3446 O   0  0  0  0  0  0  0  0  0  0  0  0
    4.0181   -0.3762   -2.1245 C   0  0  0  0  0  0  0  0  0  0  0  0
    4.0948    0.7112   -2.0397 H   0  0  0  0  0  0  0  0  0  0  0  0
    4.4245   -0.8305   -1.2175 H   0  0  0  0  0  0  0  0  0  0  0  0
    4.6105   -0.7063   -2.9815 H   0  0  0  0  0  0  0  0  0  0  0  0
    2.2302   -2.1227   -2.3392 N   0  0  0  0  0  0  0  0  0  0  0  0
    0.8393   -2.5943   -2.3534 C   0  0  2  0  0  0  0  0  0  0  0  0
    0.2009   -2.4922   -0.9492 C   0  0  0  0  0  0  0  0  0  0  0  0
    0.0902   -3.4745   -0.2302 O   0  0  0  0  0  0  0  0  0  0  0  0
    0.8424   -4.0233   -2.9066 C   0  0  0  0  0  0  0  0  0  0  0  0
    2.9553   -2.7782   -2.0319 H   0  0  0  0  0  0  0  0  0  0  0  0
    0.2445   -1.9793   -3.0372 H   0  0  0  0  0  0  0  0  0  0  0  0
    1.4624   -4.6760   -2.2853 H   0  0  0  0  0  0  0  0  0  0  0  0
   -0.1753   -4.4256   -2.9251 H   0  0  0  0  0  0  0  0  0  0  0  0
    1.2385   -4.0355   -3.9266 H   0  0  0  0  0  0  0  0  0  0  0  0
   -0.4267   -1.3294   -0.5545 N   0  0  0  0  0  0  0  0  0  0  0  0
   -0.1095   -0.4982    0.6320 C   0  0  2  0  0  0  0  0  0  0  0  0
    0.4933   -1.1353    1.9332 C   0  0  0  0  0  0  0  0  0  0  0  0
    0.1356   -0.8001    3.0520 O   0  0  0  0  0  0  0  0  0  0  0  0
   -1.3728    0.3473    0.9647 C   0  0  0  0  0  0  0  0  0  0  0  0
   -1.8149    1.4276   -0.0625 C   0  0  0  0  0  0  0  0  0  0  0  0
   -3.1513    2.0144    0.4138 C   0  0  0  0  0  0  0  0  0  0  0  0
   -2.0045    0.9582   -1.5134 C   0  0  0  0  0  0  0  0  0  0  0  0
   -0.5583   -0.7333   -1.3678 H   0  0  0  0  0  0  0  0  0  0  0  0
    0.6657    0.2046    0.3121 H   0  0  0  0  0  0  0  0  0  0  0  0
   -1.2082    0.8816    1.9061 H   0  0  0  0  0  0  0  0  0  0  0  0
   -2.2012   -0.3498    1.1313 H   0  0  0  0  0  0  0  0  0  0  0  0
   -1.0635    2.2247   -0.0648 H   0  0  0  0  0  0  0  0  0  0  0  0
   -3.9371    1.2521    0.3972 H   0  0  0  0  0  0  0  0  0  0  0  0
   -3.4583    2.8443   -0.2304 H   0  0  0  0  0  0  0  0  0  0  0  0
   -3.0589    2.3955    1.4356 H   0  0  0  0  0  0  0  0  0  0  0  0
   -2.6074    0.0452   -1.5501 H   0  0  0  0  0  0  0  0  0  0  0  0
   -2.5134    1.7287   -2.1010 H   0  0  0  0  0  0  0  0  0  0  0  0
   -1.0379    0.7767   -1.9906 H   0  0  0  0  0  0  0  0  0  0  0  0
    1.3112   -2.2373    2.0263 N   0  0  0  0  0  0  0  0  0  0  0  0
    2.5885   -2.2222    1.2897 C   0  0  2  0  0  0  0  0  0  0  0  0
    2.9895   -3.5582    0.6287 C   0  0  0  0  0  0  0  0  0  0  0  0
    3.8028   -3.5452   -0.2918 O   0  0  0  0  0  0  0  0  0  0  0  0
    3.6791   -1.7885    2.2740 C   0  0  0  0  0  0  0  0  0  0  0  0
    1.3667   -2.5393    2.9955 H   0  0  0  0  0  0  0  0  0  0  0  0
    2.5389   -1.4808    0.4876 H   0  0  0  0  0  0  0  0  0  0  0  0
    3.7770   -2.5176    3.0847 H   0  0  0  0  0  0  0  0  0  0  0  0
    4.6435   -1.7078    1.7620 H   0  0  0  0  0  0  0  0  0  0  0  0
    3.4385   -0.8132    2.7091 H   0  0  0  0  0  0  0  0  0  0  0  0
    2.4498   -4.7507    1.0663 N   0  0  0  0  0  0  0  0  0  0  0  0
    2.7250   -6.0258    0.4178 C   0  0  0  0  0  0  0  0  0  0  0  0
    1.5529   -4.6457    1.5392 H   0  0  0  0  0  0  0  0  0  0  0  0
    2.3236   -6.0352   -0.5998 H   0  0  0  0  0  0  0  0  0  0  0  0
    3.8034   -6.2106    0.3738 H   0  0  0  0  0  0  0  0  0  0  0  0
    2.2607   -6.8409    0.9814 H   0  0  0  0  0  0  0  0  0  0  0  0
  1  2  2  0  0  0  0
  1  3  1  0  0  0  0
  1  7  1  0  0  0  0
  3  4  1  0  0  0  0
  3  5  1  0  0  0  0
  3  6  1  0  0  0  0
  7  8  1  0  0  0  0
  7 12  1  0  0  0  0
  8  9  1  0  0  0  0
  8 11  1  0  0  0  0
  8 13  1  0  0  0  0
  9 10  2  0  0  0  0
  9 17  1  0  0  0  0
 11 14  1  0  0  0  0
 11 15  1  0  0  0  0
 11 16  1  0  0  0  0
 17 18  1  0  0  0  0
 17 25  1  0  0  0  0
 18 19  1  0  0  0  0
 18 21  1  0  0  0  0
 18 26  1  0  0  0  0
 19 20  2  0  0  0  0
 19 36  1  0  0  0  0
 21 22  1  0  0  0  0
 21 27  1  0  0  0  0
 21 28  1  0  0  0  0
 22 23  1  0  0  0  0
 22 24  1  0  0  0  0
 22 29  1  0  0  0  0
 23 30  1  0  0  0  0
 23 31  1  0  0  0  0
 23 32  1  0  0  0  0
 24 33  1  0  0  0  0
 24 34  1  0  0  0  0
 24 35  1  0  0  0  0
 36 37  1  0  0  0  0
 36 41  1  0  0  0  0
 37 38  1  0  0  0  0
 37 40  1  0  0  0  0
 37 42  1  0  0  0  0
 38 39  2  0  0  0  0
 38 46  1  0  0  0  0
 40 43  1  0  0  0  0
 40 44  1  0  0  0  0
 40 45  1  0  0  0  0
 46 47  1  0  0  0  0
 46 48  1  0  0  0  0
 47 49  1  0  0  0  0
 47 50  1  0  0  0  0
 47 51  1  0  0  0  0
M  END
$$$$

  -OEChem-05262216553D

 51 50  0     1  0  0  0  0  0999 V2000
    0.6689   -1.3322   -3.9069 C   0  0  0  0  0  0  0  0  0  0  0  0
   -0.1094   -1.7661   -3.0721 O   0  0  0  0  0  0  0  0  0  0  0  0
    0.1534   -0.6960   -5.1834 C   0  0  0  0  0  0  0  0  0  0  0  0
   -0.9370   -0.7703   -5.2272 H   0  0  0  0  0  0  0  0  0  0  0  0
    0.4357    0.3593   -5.2160 H   0  0  0  0  0  0  0  0  0  0  0  0
    0.5746   -1.2067   -6.0529 H   0  0  0  0  0  0  0  0  0  0  0  0
    2.0199   -1.3553   -3.6324 N   0  0  0  0  0  0  0  0  0  0  0  0
    2.6068   -2.0342   -2.4650 C   0  0  2  0  0  0  0  0  0  0  0  0
    2.5130   -1.2067   -1.1566 C   0  0  0  0  0  0  0  0  0  0  0  0
    3.5014   -1.0093   -0.4612 O   0  0  0  0  0  0  0  0  0  0  0  0
    4.0500   -2.3991   -2.8378 C   0  0  0  0  0  0  0  0  0  0  0  0
    2.6451   -0.9621   -4.3307 H   0  0  0  0  0  0  0  0  0  0  0  0
    2.0669   -2.9703   -2.2831 H   0  0  0  0  0  0  0  0  0  0  0  0
    4.6456   -1.4960   -3.0059 H   0  0  0  0  0  0  0  0  0  0  0  0
    4.5166   -2.9758   -2.0324 H   0  0  0  0  0  0  0  0  0  0  0  0
    4.0682   -3.0070   -3.7477 H   0  0  0  0  0  0  0  0  0  0  0  0
    1.3289   -0.5823   -0.8087 N   0  0  0  0  0  0  0  0  0  0  0  0
    0.8032   -0.3350    0.5557 C   0  0  2  0  0  0  0  0  0  0  0  0
    1.1628   -1.3435    1.6987 C   0  0  0  0  0  0  0  0  0  0  0  0
    0.2772   -1.7854    2.4218 O   0  0  0  0  0  0  0  0  0  0  0  0
   -0.7234   -0.0508    0.4762 C   0  0  0  0  0  0  0  0  0  0  0  0
   -1.1724    1.2502   -0.2449 C   0  0  0  0  0  0  0  0  0  0  0  0
   -2.7045    1.2439   -0.3309 C   0  0  0  0  0  0  0  0  0  0  0  0
   -0.6279    1.4801   -1.6612 C   0  0  0  0  0  0  0  0  0  0  0  0
    0.5957   -0.7884   -1.4932 H   0  0  0  0  0  0  0  0  0  0  0  0
    1.2690    0.5977    0.8875 H   0  0  0  0  0  0  0  0  0  0  0  0
   -1.1265    0.0103    1.4926 H   0  0  0  0  0  0  0  0  0  0  0  0
   -1.1982   -0.9113   -0.0079 H   0  0  0  0  0  0  0  0  0  0  0  0
   -0.8599    2.0999    0.3714 H   0  0  0  0  0  0  0  0  0  0  0  0
   -3.0529    0.4189   -0.9612 H   0  0  0  0  0  0  0  0  0  0  0  0
   -3.0693    2.1842   -0.7562 H   0  0  0  0  0  0  0  0  0  0  0  0
   -3.1435    1.1292    0.6652 H   0  0  0  0  0  0  0  0  0  0  0  0
   -0.8485    0.6228   -2.3009 H   0  0  0  0  0  0  0  0  0  0  0  0
   -1.0928    2.3656   -2.1059 H   0  0  0  0  0  0  0  0  0  0  0  0
    0.4511    1.6543   -1.6434 H   0  0  0  0  0  0  0  0  0  0  0  0
    2.4419   -1.8345    1.8964 N   0  0  0  0  0  0  0  0  0  0  0  0
    2.9011   -2.8443    2.8733 C   0  0  2  0  0  0  0  0  0  0  0  0
    2.3670   -4.2751    2.6311 C   0  0  0  0  0  0  0  0  0  0  0  0
    3.1400   -5.2241    2.6717 O   0  0  0  0  0  0  0  0  0  0  0  0
    2.6286   -2.3976    4.3163 C   0  0  0  0  0  0  0  0  0  0  0  0
    3.1345   -1.4922    1.2248 H   0  0  0  0  0  0  0  0  0  0  0  0
    3.9884   -2.9084    2.7631 H   0  0  0  0  0  0  0  0  0  0  0  0
    1.5591   -2.4179    4.5442 H   0  0  0  0  0  0  0  0  0  0  0  0
    3.1379   -3.0676    5.0160 H   0  0  0  0  0  0  0  0  0  0  0  0
    3.0010   -1.3815    4.4762 H   0  0  0  0  0  0  0  0  0  0  0  0
    1.0286   -4.5101    2.3879 N   0  0  0  0  0  0  0  0  0  0  0  0
    0.4452   -5.8340    2.2269 C   0  0  0  0  0  0  0  0  0  0  0  0
    0.4178   -3.6893    2.4244 H   0  0  0  0  0  0  0  0  0  0  0  0
    0.9256   -6.3665    1.3998 H   0  0  0  0  0  0  0  0  0  0  0  0
    0.5685   -6.4202    3.1433 H   0  0  0  0  0  0  0  0  0  0  0  0
   -0.6238   -5.7502    2.0090 H   0  0  0  0  0  0  0  0  0  0  0  0
  1  2  2  0  0  0  0
  1  3  1  0  0  0  0
  1  7  1  0  0  0  0
  3  4  1  0  0  0  0
  3  5  1  0  0  0  0
  3  6  1  0  0  0  0
  7  8  1  0  0  0  0
  7 12  1  0  0  0  0
  8  9  1  0  0  0  0
  8 11  1  0  0  0  0
  8 13  1  0  0  0  0
  9 10  2  0  0  0  0
  9 17  1  0  0  0  0
 11 14  1  0  0  0  0
 11 15  1  0  0  0  0
 11 16  1  0  0  0  0
 17 18  1  0  0  0  0
 17 25  1  0  0  0  0
 18 19  1  0  0  0  0
 18 21  1  0  0  0  0
 18 26  1  0  0  0  0
 19 20  2  0  0  0  0
 19 36  1  0  0  0  0
 21 22  1  0  0  0  0
 21 27  1  0  0  0  0
 21 28  1  0  0  0  0
 22 23  1  0  0  0  0
 22 24  1  0  0  0  0
 22 29  1  0  0  0  0
 23 30  1  0  0  0  0
 23 31  1  0  0  0  0
 23 32  1  0  0  0  0
 24 33  1  0  0  0  0
 24 34  1  0  0  0  0
 24 35  1  0  0  0  0
 36 37  1  0  0  0  0
 36 41  1  0  0  0  0
 37 38  1  0  0  0  0
 37 40  1  0  0  0  0
 37 42  1  0  0  0  0
 38 39  2  0  0  0  0
 38 46  1  0  0  0  0
 40 43  1  0  0  0  0
 40 44  1  0  0  0  0
 40 45  1  0  0  0  0
 46 47  1  0  0  0  0
 46 48  1  0  0  0  0
 47 49  1  0  0  0  0
 47 50  1  0  0  0  0
 47 51  1  0  0  0  0
M  END
$$$$

  -OEChem-05262216553D

 51 50  0     1  0  0  0  0  0999 V2000
    3.2999   -2.2332   -3.8399 C   0  0  0  0  0  0  0  0  0  0  0  0
    2.8238   -1.8774   -4.9077 O   0  0  0  0  0  0  0  0  0  0  0  0
    4.7653   -2.6129   -3.7489 C   0  0  0  0  0  0  0  0  0  0  0  0
    5.2729   -1.9614   -3.0331 H   0  0  0  0  0  0  0  0  0  0  0  0
    4.8615   -3.6487   -3.4150 H   0  0  0  0  0  0  0  0  0  0  0  0
    5.2454   -2.5078   -4.7254 H   0  0  0  0  0  0  0  0  0  0  0  0
    2.5134   -2.3038   -2.7102 N   0  0  0  0  0  0  0  0  0  0  0  0
    1.1770   -1.6965   -2.6017 C   0  0  2  0  0  0  0  0  0  0  0  0
    1.1632   -0.5051   -1.6155 C   0  0  0  0  0  0  0  0  0  0  0  0
    2.1494    0.2064   -1.4705 O   0  0  0  0  0  0  0  0  0  0  0  0
    0.2107   -2.8103   -2.1815 C   0  0  0  0  0  0  0  0  0  0  0  0
    3.0251   -2.4975   -1.8435 H   0  0  0  0  0  0  0  0  0  0  0  0
    0.8497   -1.3089   -3.5723 H   0  0  0  0  0  0  0  0  0  0  0  0
    0.4339   -3.1488   -1.1652 H   0  0  0  0  0  0  0  0  0  0  0  0
   -0.8247   -2.4590   -2.2159 H   0  0  0  0  0  0  0  0  0  0  0  0
    0.3020   -3.6637   -2.8613 H   0  0  0  0  0  0  0  0  0  0  0  0
    0.0483   -0.2115   -0.8492 N   0  0  0  0  0  0  0  0  0  0  0  0
    0.0713    0.1057    0.5975 C   0  0  2  0  0  0  0  0  0  0  0  0
    1.2095   -0.5676    1.4293 C   0  0  0  0  0  0  0  0  0  0  0  0
    0.9341   -1.4500    2.2361 O   0  0  0  0  0  0  0  0  0  0  0  0
   -1.3209   -0.1752    1.2228 C   0  0  0  0  0  0  0  0  0  0  0  0
   -2.5038    0.7155    0.7583 C   0  0  0  0  0  0  0  0  0  0  0  0
   -3.7920    0.1675    1.3874 C   0  0  0  0  0  0  0  0  0  0  0  0
   -2.7231    0.7983   -0.7600 C   0  0  0  0  0  0  0  0  0  0  0  0
   -0.7686   -0.7439   -1.1332 H   0  0  0  0  0  0  0  0  0  0  0  0
    0.2526    1.1818    0.6867 H   0  0  0  0  0  0  0  0  0  0  0  0
   -1.2398   -0.0540    2.3090 H   0  0  0  0  0  0  0  0  0  0  0  0
   -1.5702   -1.2251    1.0343 H   0  0  0  0  0  0  0  0  0  0  0  0
   -2.3353    1.7320    1.1303 H   0  0  0  0  0  0  0  0  0  0  0  0
   -4.0104   -0.8380    1.0136 H   0  0  0  0  0  0  0  0  0  0  0  0
   -4.6406    0.8175    1.1517 H   0  0  0  0  0  0  0  0  0  0  0  0
   -3.6943    0.1193    2.4766 H   0  0  0  0  0  0  0  0  0  0  0  0
   -2.7582   -0.2018   -1.2028 H   0  0  0  0  0  0  0  0  0  0  0  0
   -3.6678    1.3050   -0.9816 H   0  0  0  0  0  0  0  0  0  0  0  0
   -1.9259    1.3765   -1.2359 H   0  0  0  0  0  0  0  0  0  0  0  0
    2.5434   -0.3390    1.1397 N   0  0  0  0  0  0  0  0  0  0  0  0
    3.6622   -1.2430    1.4574 C   0  0  2  0  0  0  0  0  0  0  0  0
    3.4929   -2.6397    0.8152 C   0  0  0  0  0  0  0  0  0  0  0  0
    4.0175   -2.8831   -0.2668 O   0  0  0  0  0  0  0  0  0  0  0  0
    3.9259   -1.3142    2.9698 C   0  0  0  0  0  0  0  0  0  0  0  0
    2.6710    0.2316    0.2970 H   0  0  0  0  0  0  0  0  0  0  0  0
    4.5606   -0.8093    1.0058 H   0  0  0  0  0  0  0  0  0  0  0  0
    3.1030   -1.7973    3.5033 H   0  0  0  0  0  0  0  0  0  0  0  0
    4.8390   -1.8852    3.1639 H   0  0  0  0  0  0  0  0  0  0  0  0
    4.0552   -0.3064    3.3758 H   0  0  0  0  0  0  0  0  0  0  0  0
    2.6520   -3.5818    1.3733 N   0  0  0  0  0  0  0  0  0  0  0  0
    2.3638   -4.8726    0.7623 C   0  0  0  0  0  0  0  0  0  0  0  0
    2.0164   -3.2213    2.0896 H   0  0  0  0  0  0  0  0  0  0  0  0
    1.6651   -5.4370    1.3872 H   0  0  0  0  0  0  0  0  0  0  0  0
    1.9172   -4.7423   -0.2281 H   0  0  0  0  0  0  0  0  0  0  0  0
    3.2832   -5.4583    0.6587 H   0  0  0  0  0  0  0  0  0  0  0  0
  1  2  2  0  0  0  0
  1  3  1  0  0  0  0
  1  7  1  0  0  0  0
  3  4  1  0  0  0  0
  3  5  1  0  0  0  0
  3  6  1  0  0  0  0
  7  8  1  0  0  0  0
  7 12  1  0  0  0  0
  8  9  1  0  0  0  0
  8 11  1  0  0  0  0
  8 13  1  0  0  0  0
  9 10  2  0  0  0  0
  9 17  1  0  0  0  0
 11 14  1  0  0  0  0
 11 15  1  0  0  0  0
 11 16  1  0  0  0  0
 17 18  1  0  0  0  0
 17 25  1  0  0  0  0
 18 19  1  0  0  0  0
 18 21  1  0  0  0  0
 18 26  1  0  0  0  0
 19 20  2  0  0  0  0
 19 36  1  0  0  0  0
 21 22  1  0  0  0  0
 21 27  1  0  0  0  0
 21 28  1  0  0  0  0
 22 23  1  0  0  0  0
 22 24  1  0  0  0  0
 22 29  1  0  0  0  0
 23 30  1  0  0  0  0
 23 31  1  0  0  0  0
 23 32  1  0  0  0  0
 24 33  1  0  0  0  0
 24 34  1  0  0  0  0
 24 35  1  0  0  0  0
 36 37  1  0  0  0  0
 36 41  1  0  0  0  0
 37 38  1  0  0  0  0
 37 40  1  0  0  0  0
 37 42  1  0  0  0  0
 38 39  2  0  0  0  0
 38 46  1  0  0  0  0
 40 43  1  0  0  0  0
 40 44  1  0  0  0  0
 40 45  1  0  0  0  0
 46 47  1  0  0  0  0
 46 48  1  0  0  0  0
 47 49  1  0  0  0  0
 47 50  1  0  0  0  0
 47 51  1  0  0  0  0
M  END
$$$$

  -OEChem-05262216553D

 51 50  0     1  0  0  0  0  0999 V2000
    3.3054   -2.6551   -3.5903 C   0  0  0  0  0  0  0  0  0  0  0  0
    2.6629   -2.8468   -4.6119 O   0  0  0  0  0  0  0  0  0  0  0  0
    4.7554   -3.0912   -3.5026 C   0  0  0  0  0  0  0  0  0  0  0  0
    5.3903   -2.2283   -3.2875 H   0  0  0  0  0  0  0  0  0  0  0  0
    4.8748   -3.8252   -2.7021 H   0  0  0  0  0  0  0  0  0  0  0  0
    5.0745   -3.5400   -4.4470 H   0  0  0  0  0  0  0  0  0  0  0  0
    2.7088   -2.0558   -2.5036 N   0  0  0  0  0  0  0  0  0  0  0  0
    1.3515   -1.4896   -2.4996 C   0  0  2  0  0  0  0  0  0  0  0  0
    1.2231   -0.3322   -1.4840 C   0  0  0  0  0  0  0  0  0  0  0  0
    2.1845    0.3815   -1.2240 O   0  0  0  0  0  0  0  0  0  0  0  0
    0.3607   -2.6239   -2.1989 C   0  0  0  0  0  0  0  0  0  0  0  0
    3.3217   -1.8625   -1.7042 H   0  0  0  0  0  0  0  0  0  0  0  0
    1.1272   -1.0739   -3.4879 H   0  0  0  0  0  0  0  0  0  0  0  0
    0.5013   -2.9957   -1.1788 H   0  0  0  0  0  0  0  0  0  0  0  0
   -0.6708   -2.2769   -2.3084 H   0  0  0  0  0  0  0  0  0  0  0  0
    0.5117   -3.4552   -2.8952 H   0  0  0  0  0  0  0  0  0  0  0  0
    0.0458   -0.0770   -0.8004 N   0  0  0  0  0  0  0  0  0  0  0  0
    0.0013    0.1597    0.6591 C   0  0  2  0  0  0  0  0  0  0  0  0
    1.1087   -0.5828    1.4652 C   0  0  0  0  0  0  0  0  0  0  0  0
    0.8455   -1.6359    2.0366 O   0  0  0  0  0  0  0  0  0  0  0  0
   -1.4061   -0.1714    1.2198 C   0  0  0  0  0  0  0  0  0  0  0  0
   -2.5850    0.7278    0.7615 C   0  0  0  0  0  0  0  0  0  0  0  0
   -3.8884    0.1342    1.3141 C   0  0  0  0  0  0  0  0  0  0  0  0
   -2.7495    0.8862   -0.7575 C   0  0  0  0  0  0  0  0  0  0  0  0
   -0.7355   -0.6250   -1.1485 H   0  0  0  0  0  0  0  0  0  0  0  0
    0.1751    1.2276    0.8257 H   0  0  0  0  0  0  0  0  0  0  0  0
   -1.3593   -0.1154    2.3131 H   0  0  0  0  0  0  0  0  0  0  0  0
   -1.6361   -1.2111    0.9622 H   0  0  0  0  0  0  0  0  0  0  0  0
   -2.4440    1.7254    1.1909 H   0  0  0  0  0  0  0  0  0  0  0  0
   -4.0793   -0.8532    0.8818 H   0  0  0  0  0  0  0  0  0  0  0  0
   -4.7365    0.7853    1.0794 H   0  0  0  0  0  0  0  0  0  0  0  0
   -3.8313    0.0317    2.4024 H   0  0  0  0  0  0  0  0  0  0  0  0
   -2.7522   -0.0899   -1.2519 H   0  0  0  0  0  0  0  0  0  0  0  0
   -3.6932    1.3906   -0.9883 H   0  0  0  0  0  0  0  0  0  0  0  0
   -1.9443    1.4991   -1.1722 H   0  0  0  0  0  0  0  0  0  0  0  0
    2.4178   -0.1327    1.4413 N   0  0  0  0  0  0  0  0  0  0  0  0
    3.5991   -0.9533    1.7668 C   0  0  2  0  0  0  0  0  0  0  0  0
    3.7175   -2.2164    0.8792 C   0  0  0  0  0  0  0  0  0  0  0  0
    4.4286   -2.2008   -0.1199 O   0  0  0  0  0  0  0  0  0  0  0  0
    3.6621   -1.2831    3.2661 C   0  0  0  0  0  0  0  0  0  0  0  0
    2.5677    0.5527    0.6941 H   0  0  0  0  0  0  0  0  0  0  0  0
    4.4816   -0.3443    1.5444 H   0  0  0  0  0  0  0  0  0  0  0  0
    2.8465   -1.9445    3.5700 H   0  0  0  0  0  0  0  0  0  0  0  0
    4.6088   -1.7798    3.5004 H   0  0  0  0  0  0  0  0  0  0  0  0
    3.5986   -0.3640    3.8560 H   0  0  0  0  0  0  0  0  0  0  0  0
    2.9450   -3.3342    1.1257 N   0  0  0  0  0  0  0  0  0  0  0  0
    2.9193   -4.5096    0.2648 C   0  0  0  0  0  0  0  0  0  0  0  0
    2.1681   -3.1831    1.7742 H   0  0  0  0  0  0  0  0  0  0  0  0
    2.2696   -5.2768    0.6966 H   0  0  0  0  0  0  0  0  0  0  0  0
    2.5416   -4.2554   -0.7296 H   0  0  0  0  0  0  0  0  0  0  0  0
    3.9251   -4.9297    0.1615 H   0  0  0  0  0  0  0  0  0  0  0  0
  1  2  2  0  0  0  0
  1  3  1  0  0  0  0
  1  7  1  0  0  0  0
  3  4  1  0  0  0  0
  3  5  1  0  0  0  0
  3  6  1  0  0  0  0
  7  8  1  0  0  0  0
  7 12  1  0  0  0  0
  8  9  1  0  0  0  0
  8 11  1  0  0  0  0
  8 13  1  0  0  0  0
  9 10  2  0  0  0  0
  9 17  1  0  0  0  0
 11 14  1  0  0  0  0
 11 15  1  0  0  0  0
 11 16  1  0  0  0  0
 17 18  1  0  0  0  0
 17 25  1  0  0  0  0
 18 19  1  0  0  0  0
 18 21  1  0  0  0  0
 18 26  1  0  0  0  0
 19 20  2  0  0  0  0
 19 36  1  0  0  0  0
 21 22  1  0  0  0  0
 21 27  1  0  0  0  0
 21 28  1  0  0  0  0
 22 23  1  0  0  0  0
 22 24  1  0  0  0  0
 22 29  1  0  0  0  0
 23 30  1  0  0  0  0
 23 31  1  0  0  0  0
 23 32  1  0  0  0  0
 24 33  1  0  0  0  0
 24 34  1  0  0  0  0
 24 35  1  0  0  0  0
 36 37  1  0  0  0  0
 36 41  1  0  0  0  0
 37 38  1  0  0  0  0
 37 40  1  0  0  0  0
 37 42  1  0  0  0  0
 38 39  2  0  0  0  0
 38 46  1  0  0  0  0
 40 43  1  0  0  0  0
 40 44  1  0  0  0  0
 40 45  1  0  0  0  0
 46 47  1  0  0  0  0
 46 48  1  0  0  0  0
 47 49  1  0  0  0  0
 47 50  1  0  0  0  0
 47 51  1  0  0  0  0
M  END
$$$$

  -OEChem-05262216553D

 51 50  0     1  0  0  0  0  0999 V2000
    3.4310   -2.5875   -3.4578 C   0  0  0  0  0  0  0  0  0  0  0  0
    2.8170   -2.8579   -4.4792 O   0  0  0  0  0  0  0  0  0  0  0  0
    4.9085   -2.9088   -3.3414 C   0  0  0  0  0  0  0  0  0  0  0  0
    5.4765   -1.9879   -3.1872 H   0  0  0  0  0  0  0  0  0  0  0  0
    5.0789   -3.5747   -2.4919 H   0  0  0  0  0  0  0  0  0  0  0  0
    5.2640   -3.3971   -4.2526 H   0  0  0  0  0  0  0  0  0  0  0  0
    2.7810   -1.9978   -2.3977 N   0  0  0  0  0  0  0  0  0  0  0  0
    1.3977   -1.5008   -2.4349 C   0  0  2  0  0  0  0  0  0  0  0  0
    1.2129   -0.3163   -1.4618 C   0  0  0  0  0  0  0  0  0  0  0  0
    2.1668    0.3882   -1.1483 O   0  0  0  0  0  0  0  0  0  0  0  0
    0.4578   -2.6667   -2.0987 C   0  0  0  0  0  0  0  0  0  0  0  0
    3.3725   -1.7185   -1.6067 H   0  0  0  0  0  0  0  0  0  0  0  0
    1.1656   -1.1326   -3.4401 H   0  0  0  0  0  0  0  0  0  0  0  0
    0.6148   -3.0013   -1.0682 H   0  0  0  0  0  0  0  0  0  0  0  0
   -0.5877   -2.3679   -2.2161 H   0  0  0  0  0  0  0  0  0  0  0  0
    0.6456   -3.5104   -2.7704 H   0  0  0  0  0  0  0  0  0  0  0  0
    0.0082   -0.0321   -0.8388 N   0  0  0  0  0  0  0  0  0  0  0  0
   -0.0415    0.1912    0.6215 C   0  0  2  0  0  0  0  0  0  0  0  0
    1.0449   -0.6130    1.3909 C   0  0  0  0  0  0  0  0  0  0  0  0
    0.7953   -1.7483    1.7838 O   0  0  0  0  0  0  0  0  0  0  0  0
   -1.4510   -0.1171    1.1855 C   0  0  0  0  0  0  0  0  0  0  0  0
   -2.6125    0.8081    0.7367 C   0  0  0  0  0  0  0  0  0  0  0  0
   -3.9253    0.2367    1.2898 C   0  0  0  0  0  0  0  0  0  0  0  0
   -2.7771    0.9760   -0.7813 C   0  0  0  0  0  0  0  0  0  0  0  0
   -0.7626   -0.5877   -1.1975 H   0  0  0  0  0  0  0  0  0  0  0  0
    0.1623    1.2504    0.8079 H   0  0  0  0  0  0  0  0  0  0  0  0
   -1.3967   -0.0725    2.2790 H   0  0  0  0  0  0  0  0  0  0  0  0
   -1.7034   -1.1494    0.9186 H   0  0  0  0  0  0  0  0  0  0  0  0
   -2.4500    1.8005    1.1708 H   0  0  0  0  0  0  0  0  0  0  0  0
   -4.1386   -0.7430    0.8499 H   0  0  0  0  0  0  0  0  0  0  0  0
   -4.7607    0.9074    1.0647 H   0  0  0  0  0  0  0  0  0  0  0  0
   -3.8653    0.1239    2.3769 H   0  0  0  0  0  0  0  0  0  0  0  0
   -2.8016    0.0019   -1.2794 H   0  0  0  0  0  0  0  0  0  0  0  0
   -3.7103    1.5014   -1.0080 H   0  0  0  0  0  0  0  0  0  0  0  0
   -1.9597    1.5727   -1.1960 H   0  0  0  0  0  0  0  0  0  0  0  0
    2.2943   -0.0616    1.6189 N   0  0  0  0  0  0  0  0  0  0  0  0
    3.4859   -0.8555    1.9766 C   0  0  2  0  0  0  0  0  0  0  0  0
    3.7569   -2.0419    1.0139 C   0  0  0  0  0  0  0  0  0  0  0  0
    4.4835   -1.8908    0.0375 O   0  0  0  0  0  0  0  0  0  0  0  0
    3.4218   -1.2968    3.4467 C   0  0  0  0  0  0  0  0  0  0  0  0
    2.4783    0.7207    0.9866 H   0  0  0  0  0  0  0  0  0  0  0  0
    4.3536   -0.1942    1.8839 H   0  0  0  0  0  0  0  0  0  0  0  0
    2.5850   -1.9773    3.6267 H   0  0  0  0  0  0  0  0  0  0  0  0
    4.3474   -1.8099    3.7255 H   0  0  0  0  0  0  0  0  0  0  0  0
    3.3015   -0.4243    4.0960 H   0  0  0  0  0  0  0  0  0  0  0  0
    3.1315   -3.2609    1.1924 N   0  0  0  0  0  0  0  0  0  0  0  0
    3.2620   -4.3804    0.2683 C   0  0  0  0  0  0  0  0  0  0  0  0
    2.3018   -3.2211    1.7882 H   0  0  0  0  0  0  0  0  0  0  0  0
    2.8043   -5.2763    0.6984 H   0  0  0  0  0  0  0  0  0  0  0  0
    2.7654   -4.1592   -0.6806 H   0  0  0  0  0  0  0  0  0  0  0  0
    4.3173   -4.5971    0.0721 H   0  0  0  0  0  0  0  0  0  0  0  0
  1  2  2  0  0  0  0
  1  3  1  0  0  0  0
  1  7  1  0  0  0  0
  3  4  1  0  0  0  0
  3  5  1  0  0  0  0
  3  6  1  0  0  0  0
  7  8  1  0  0  0  0
  7 12  1  0  0  0  0
  8  9  1  0  0  0  0
  8 11  1  0  0  0  0
  8 13  1  0  0  0  0
  9 10  2  0  0  0  0
  9 17  1  0  0  0  0
 11 14  1  0  0  0  0
 11 15  1  0  0  0  0
 11 16  1  0  0  0  0
 17 18  1  0  0  0  0
 17 25  1  0  0  0  0
 18 19  1  0  0  0  0
 18 21  1  0  0  0  0
 18 26  1  0  0  0  0
 19 20  2  0  0  0  0
 19 36  1  0  0  0  0
 21 22  1  0  0  0  0
 21 27  1  0  0  0  0
 21 28  1  0  0  0  0
 22 23  1  0  0  0  0
 22 24  1  0  0  0  0
 22 29  1  0  0  0  0
 23 30  1  0  0  0  0
 23 31  1  0  0  0  0
 23 32  1  0  0  0  0
 24 33  1  0  0  0  0
 24 34  1  0  0  0  0
 24 35  1  0  0  0  0
 36 37  1  0  0  0  0
 36 41  1  0  0  0  0
 37 38  1  0  0  0  0
 37 40  1  0  0  0  0
 37 42  1  0  0  0  0
 38 39  2  0  0  0  0
 38 46  1  0  0  0  0
 40 43  1  0  0  0  0
 40 44  1  0  0  0  0
 40 45  1  0  0  0  0
 46 47  1  0  0  0  0
 46 48  1  0  0  0  0
 47 49  1  0  0  0  0
 47 50  1  0  0  0  0
 47 51  1  0  0  0  0
M  END
$$$$

  -OEChem-05262216553D

 51 50  0     1  0  0  0  0  0999 V2000
    3.5196   -2.5724   -3.3251 C   0  0  0  0  0  0  0  0  0  0  0  0
    2.9390   -2.9383   -4.3363 O   0  0  0  0  0  0  0  0  0  0  0  0
    5.0177   -2.7661   -3.1882 C   0  0  0  0  0  0  0  0  0  0  0  0
    5.2344   -3.3897   -2.3178 H   0  0  0  0  0  0  0  0  0  0  0  0
    5.4210   -3.2505   -4.0814 H   0  0  0  0  0  0  0  0  0  0  0  0
    5.5064   -1.7972   -3.0589 H   0  0  0  0  0  0  0  0  0  0  0  0
    2.8150   -1.9871   -2.2979 N   0  0  0  0  0  0  0  0  0  0  0  0
    1.4075   -1.5686   -2.3838 C   0  0  2  0  0  0  0  0  0  0  0  0
    1.1600   -0.3307   -1.4952 C   0  0  0  0  0  0  0  0  0  0  0  0
    2.0899    0.4126   -1.1966 O   0  0  0  0  0  0  0  0  0  0  0  0
    0.5253   -2.7556   -1.9765 C   0  0  0  0  0  0  0  0  0  0  0  0
    3.3761   -1.6096   -1.5250 H   0  0  0  0  0  0  0  0  0  0  0  0
    1.1674   -1.2814   -3.4132 H   0  0  0  0  0  0  0  0  0  0  0  0
    0.7065   -3.0283   -0.9320 H   0  0  0  0  0  0  0  0  0  0  0  0
   -0.5339   -2.5117   -2.0978 H   0  0  0  0  0  0  0  0  0  0  0  0
    0.7481   -3.6236   -2.6052 H   0  0  0  0  0  0  0  0  0  0  0  0
   -0.0599   -0.0342   -0.9053 N   0  0  0  0  0  0  0  0  0  0  0  0
   -0.0906    0.2295    0.5490 C   0  0  2  0  0  0  0  0  0  0  0  0
    1.0125   -0.5639    1.3016 C   0  0  0  0  0  0  0  0  0  0  0  0
    0.8182   -1.7476    1.5615 O   0  0  0  0  0  0  0  0  0  0  0  0
   -1.4812   -0.0760    1.1560 C   0  0  0  0  0  0  0  0  0  0  0  0
   -2.6619    0.8231    0.7072 C   0  0  0  0  0  0  0  0  0  0  0  0
   -3.9542    0.2552    1.3092 C   0  0  0  0  0  0  0  0  0  0  0  0
   -2.8622    0.9418   -0.8109 C   0  0  0  0  0  0  0  0  0  0  0  0
   -0.8114   -0.6341   -1.2318 H   0  0  0  0  0  0  0  0  0  0  0  0
    0.1134    1.2936    0.7052 H   0  0  0  0  0  0  0  0  0  0  0  0
   -1.4001   -0.0005    2.2461 H   0  0  0  0  0  0  0  0  0  0  0  0
   -1.7288   -1.1182    0.9244 H   0  0  0  0  0  0  0  0  0  0  0  0
   -2.4999    1.8300    1.1070 H   0  0  0  0  0  0  0  0  0  0  0  0
   -4.1655   -0.7412    0.9070 H   0  0  0  0  0  0  0  0  0  0  0  0
   -4.8024    0.9086    1.0815 H   0  0  0  0  0  0  0  0  0  0  0  0
   -3.8673    0.1789    2.3977 H   0  0  0  0  0  0  0  0  0  0  0  0
   -2.8891   -0.0478   -1.2776 H   0  0  0  0  0  0  0  0  0  0  0  0
   -3.8048    1.4524   -1.0323 H   0  0  0  0  0  0  0  0  0  0  0  0
   -2.0596    1.5317   -1.2625 H   0  0  0  0  0  0  0  0  0  0  0  0
    2.1564    0.0626    1.7640 N   0  0  0  0  0  0  0  0  0  0  0  0
    3.3615   -0.6876    2.1702 C   0  0  2  0  0  0  0  0  0  0  0  0
    3.7768   -1.8140    1.1813 C   0  0  0  0  0  0  0  0  0  0  0  0
    4.4546   -1.5532    0.1927 O   0  0  0  0  0  0  0  0  0  0  0  0
    3.1857   -1.1982    3.6085 C   0  0  0  0  0  0  0  0  0  0  0  0
    2.3347    0.9449    1.2854 H   0  0  0  0  0  0  0  0  0  0  0  0
    4.1992    0.0167    2.1807 H   0  0  0  0  0  0  0  0  0  0  0  0
    2.3519   -1.9023    3.6832 H   0  0  0  0  0  0  0  0  0  0  0  0
    4.0968   -1.7031    3.9444 H   0  0  0  0  0  0  0  0  0  0  0  0
    2.9872   -0.3596    4.2826 H   0  0  0  0  0  0  0  0  0  0  0  0
    3.3432   -3.1144    1.3643 N   0  0  0  0  0  0  0  0  0  0  0  0
    3.5885   -4.1866    0.4079 C   0  0  0  0  0  0  0  0  0  0  0  0
    2.5154   -3.1905    1.9556 H   0  0  0  0  0  0  0  0  0  0  0  0
    2.9790   -4.0485   -0.4898 H   0  0  0  0  0  0  0  0  0  0  0  0
    4.6441   -4.2143    0.1182 H   0  0  0  0  0  0  0  0  0  0  0  0
    3.3329   -5.1522    0.8549 H   0  0  0  0  0  0  0  0  0  0  0  0
  1  2  2  0  0  0  0
  1  3  1  0  0  0  0
  1  7  1  0  0  0  0
  3  4  1  0  0  0  0
  3  5  1  0  0  0  0
  3  6  1  0  0  0  0
  7  8  1  0  0  0  0
  7 12  1  0  0  0  0
  8  9  1  0  0  0  0
  8 11  1  0  0  0  0
  8 13  1  0  0  0  0
  9 10  2  0  0  0  0
  9 17  1  0  0  0  0
 11 14  1  0  0  0  0
 11 15  1  0  0  0  0
 11 16  1  0  0  0  0
 17 18  1  0  0  0  0
 17 25  1  0  0  0  0
 18 19  1  0  0  0  0
 18 21  1  0  0  0  0
 18 26  1  0  0  0  0
 19 20  2  0  0  0  0
 19 36  1  0  0  0  0
 21 22  1  0  0  0  0
 21 27  1  0  0  0  0
 21 28  1  0  0  0  0
 22 23  1  0  0  0  0
 22 24  1  0  0  0  0
 22 29  1  0  0  0  0
 23 30  1  0  0  0  0
 23 31  1  0  0  0  0
 23 32  1  0  0  0  0
 24 33  1  0  0  0  0
 24 34  1  0  0  0  0
 24 35  1  0  0  0  0
 36 37  1  0  0  0  0
 36 41  1  0  0  0  0
 37 38  1  0  0  0  0
 37 40  1  0  0  0  0
 37 42  1  0  0  0  0
 38 39  2  0  0  0  0
 38 46  1  0  0  0  0
 40 43  1  0  0  0  0
 40 44  1  0  0  0  0
 40 45  1  0  0  0  0
 46 47  1  0  0  0  0
 46 48  1  0  0  0  0
 47 49  1  0  0  0  0
 47 50  1  0  0  0  0
 47 51  1  0  0  0  0
M  END
$$$$

  -OEChem-05262216553D

 51 50  0     1  0  0  0  0  0999 V2000
    2.9244   -2.4548   -4.2418 C   0  0  0  0  0  0  0  0  0  0  0  0
    1.9980   -2.7167   -4.9928 O   0  0  0  0  0  0  0  0  0  0  0  0
    4.3548   -2.5202   -4.7427 C   0  0  0  0  0  0  0  0  0  0  0  0
    4.9208   -3.2499   -4.1588 H   0  0  0  0  0  0  0  0  0  0  0  0
    4.3730   -2.8202   -5.7942 H   0  0  0  0  0  0  0  0  0  0  0  0
    4.8291   -1.5403   -4.6475 H   0  0  0  0  0  0  0  0  0  0  0  0
    2.6708   -2.0907   -2.9367 N   0  0  0  0  0  0  0  0  0  0  0  0
    1.3291   -1.8681   -2.3829 C   0  0  2  0  0  0  0  0  0  0  0  0
    1.3543   -0.8363   -1.2370 C   0  0  0  0  0  0  0  0  0  0  0  0
    2.4236   -0.4367   -0.7866 O   0  0  0  0  0  0  0  0  0  0  0  0
    0.7858   -3.2085   -1.8754 C   0  0  0  0  0  0  0  0  0  0  0  0
    3.4579   -1.7586   -2.3797 H   0  0  0  0  0  0  0  0  0  0  0  0
    0.6670   -1.4781   -3.1635 H   0  0  0  0  0  0  0  0  0  0  0  0
    1.4320   -3.6083   -1.0872 H   0  0  0  0  0  0  0  0  0  0  0  0
   -0.2229   -3.0891   -1.4690 H   0  0  0  0  0  0  0  0  0  0  0  0
    0.7422   -3.9355   -2.6926 H   0  0  0  0  0  0  0  0  0  0  0  0
    0.1774   -0.3220   -0.7186 N   0  0  0  0  0  0  0  0  0  0  0  0
    0.0467    0.0987    0.6893 C   0  0  2  0  0  0  0  0  0  0  0  0
    0.9477   -0.7019    1.6633 C   0  0  0  0  0  0  0  0  0  0  0  0
    0.7854   -1.9140    1.7585 O   0  0  0  0  0  0  0  0  0  0  0  0
   -1.4189    0.0021    1.1738 C   0  0  0  0  0  0  0  0  0  0  0  0
   -2.4481    0.9606    0.5209 C   0  0  0  0  0  0  0  0  0  0  0  0
   -3.8439    0.5895    1.0400 C   0  0  0  0  0  0  0  0  0  0  0  0
   -2.4939    0.9391   -1.0141 C   0  0  0  0  0  0  0  0  0  0  0  0
   -0.6629   -0.7119   -1.1352 H   0  0  0  0  0  0  0  0  0  0  0  0
    0.3550    1.1463    0.7524 H   0  0  0  0  0  0  0  0  0  0  0  0
   -1.4342    0.1857    2.2539 H   0  0  0  0  0  0  0  0  0  0  0  0
   -1.7548   -1.0296    1.0209 H   0  0  0  0  0  0  0  0  0  0  0  0
   -2.2161    1.9835    0.8369 H   0  0  0  0  0  0  0  0  0  0  0  0
   -4.1240   -0.4174    0.7139 H   0  0  0  0  0  0  0  0  0  0  0  0
   -4.5927    1.2957    0.6673 H   0  0  0  0  0  0  0  0  0  0  0  0
   -3.8651    0.6184    2.1340 H   0  0  0  0  0  0  0  0  0  0  0  0
   -2.5832   -0.0863   -1.3859 H   0  0  0  0  0  0  0  0  0  0  0  0
   -3.3532    1.5120   -1.3776 H   0  0  0  0  0  0  0  0  0  0  0  0
   -1.5953    1.3992   -1.4349 H   0  0  0  0  0  0  0  0  0  0  0  0
    1.9066   -0.0560    2.4269 N   0  0  0  0  0  0  0  0  0  0  0  0
    2.8886   -0.6928    3.3306 C   0  0  2  0  0  0  0  0  0  0  0  0
    3.9373   -1.5834    2.6232 C   0  0  0  0  0  0  0  0  0  0  0  0
    5.1238   -1.4410    2.8899 O   0  0  0  0  0  0  0  0  0  0  0  0
    2.1931   -1.4626    4.4620 C   0  0  0  0  0  0  0  0  0  0  0  0
    2.1103    0.8963    2.1356 H   0  0  0  0  0  0  0  0  0  0  0  0
    3.4522    0.1187    3.8025 H   0  0  0  0  0  0  0  0  0  0  0  0
    1.7096   -2.3697    4.0884 H   0  0  0  0  0  0  0  0  0  0  0  0
    2.9273   -1.7574    5.2181 H   0  0  0  0  0  0  0  0  0  0  0  0
    1.4356   -0.8346    4.9398 H   0  0  0  0  0  0  0  0  0  0  0  0
    3.5621   -2.5398    1.7014 N   0  0  0  0  0  0  0  0  0  0  0  0
    4.4983   -3.3262    0.9130 C   0  0  0  0  0  0  0  0  0  0  0  0
    2.5626   -2.5881    1.4909 H   0  0  0  0  0  0  0  0  0  0  0  0
    5.1358   -2.6695    0.3123 H   0  0  0  0  0  0  0  0  0  0  0  0
    5.1320   -3.9352    1.5660 H   0  0  0  0  0  0  0  0  0  0  0  0
    3.9535   -3.9930    0.2379 H   0  0  0  0  0  0  0  0  0  0  0  0
  1  2  2  0  0  0  0
  1  3  1  0  0  0  0
  1  7  1  0  0  0  0
  3  4  1  0  0  0  0
  3  5  1  0  0  0  0
  3  6  1  0  0  0  0
  7  8  1  0  0  0  0
  7 12  1  0  0  0  0
  8  9  1  0  0  0  0
  8 11  1  0  0  0  0
  8 13  1  0  0  0  0
  9 10  2  0  0  0  0
  9 17  1  0  0  0  0
 11 14  1  0  0  0  0
 11 15  1  0  0  0  0
 11 16  1  0  0  0  0
 17 18  1  0  0  0  0
 17 25  1  0  0  0  0
 18 19  1  0  0  0  0
 18 21  1  0  0  0  0
 18 26  1  0  0  0  0
 19 20  2  0  0  0  0
 19 36  1  0  0  0  0
 21 22  1  0  0  0  0
 21 27  1  0  0  0  0
 21 28  1  0  0  0  0
 22 23  1  0  0  0  0
 22 24  1  0  0  0  0
 22 29  1  0  0  0  0
 23 30  1  0  0  0  0
 23 31  1  0  0  0  0
 23 32  1  0  0  0  0
 24 33  1  0  0  0  0
 24 34  1  0  0  0  0
 24 35  1  0  0  0  0
 36 37  1  0  0  0  0
 36 41  1  0  0  0  0
 37 38  1  0  0  0  0
 37 40  1  0  0  0  0
 37 42  1  0  0  0  0
 38 39  2  0  0  0  0
 38 46  1  0  0  0  0
 40 43  1  0  0  0  0
 40 44  1  0  0  0  0
 40 45  1  0  0  0  0
 46 47  1  0  0  0  0
 46 48  1  0  0  0  0
 47 49  1  0  0  0  0
 47 50  1  0  0  0  0
 47 51  1  0  0  0  0
M  END
$$$$

  -OEChem-05262216553D

 51 50  0     1  0  0  0  0  0999 V2000
    2.9602   -2.3892   -4.2712 C   0  0  0  0  0  0  0  0  0  0  0  0
    2.0619   -2.4821   -5.0930 O   0  0  0  0  0  0  0  0  0  0  0  0
    4.4079   -2.5266   -4.7035 C   0  0  0  0  0  0  0  0  0  0  0  0
    4.8685   -3.3799   -4.1995 H   0  0  0  0  0  0  0  0  0  0  0  0
    4.4652   -2.6827   -5.7844 H   0  0  0  0  0  0  0  0  0  0  0  0
    4.9617   -1.6195   -4.4487 H   0  0  0  0  0  0  0  0  0  0  0  0
    2.6618   -2.1455   -2.9479 N   0  0  0  0  0  0  0  0  0  0  0  0
    1.3163   -1.8394   -2.4451 C   0  0  2  0  0  0  0  0  0  0  0  0
    1.3685   -0.9052   -1.2189 C   0  0  0  0  0  0  0  0  0  0  0  0
    2.4485   -0.6008   -0.7208 O   0  0  0  0  0  0  0  0  0  0  0  0
    0.6234   -3.1570   -2.0826 C   0  0  0  0  0  0  0  0  0  0  0  0
    3.4407   -1.9322   -2.3256 H   0  0  0  0  0  0  0  0  0  0  0  0
    0.7392   -1.3277   -3.2228 H   0  0  0  0  0  0  0  0  0  0  0  0
    1.1694   -3.6690   -1.2833 H   0  0  0  0  0  0  0  0  0  0  0  0
   -0.3999   -2.9744   -1.7418 H   0  0  0  0  0  0  0  0  0  0  0  0
    0.5821   -3.8168   -2.9552 H   0  0  0  0  0  0  0  0  0  0  0  0
    0.2072   -0.3532   -0.7027 N   0  0  0  0  0  0  0  0  0  0  0  0
    0.0644    0.0545    0.7083 C   0  0  2  0  0  0  0  0  0  0  0  0
    0.9103   -0.7810    1.7030 C   0  0  0  0  0  0  0  0  0  0  0  0
    0.8649   -2.0053    1.6466 O   0  0  0  0  0  0  0  0  0  0  0  0
   -1.4124   -0.0009    1.1641 C   0  0  0  0  0  0  0  0  0  0  0  0
   -2.3990    0.9976    0.5047 C   0  0  0  0  0  0  0  0  0  0  0  0
   -3.8152    0.6649    0.9936 C   0  0  0  0  0  0  0  0  0  0  0  0
   -2.4201    0.9910   -1.0310 C   0  0  0  0  0  0  0  0  0  0  0  0
   -0.6430   -0.6755   -1.1550 H   0  0  0  0  0  0  0  0  0  0  0  0
    0.4083    1.0902    0.7858 H   0  0  0  0  0  0  0  0  0  0  0  0
   -1.4435    0.1717    2.2457 H   0  0  0  0  0  0  0  0  0  0  0  0
   -1.7768   -1.0202    0.9931 H   0  0  0  0  0  0  0  0  0  0  0  0
   -2.1406    2.0094    0.8353 H   0  0  0  0  0  0  0  0  0  0  0  0
   -4.1196   -0.3309    0.6553 H   0  0  0  0  0  0  0  0  0  0  0  0
   -4.5352    1.3960    0.6121 H   0  0  0  0  0  0  0  0  0  0  0  0
   -3.8567    0.6876    2.0872 H   0  0  0  0  0  0  0  0  0  0  0  0
   -2.5362   -0.0281   -1.4131 H   0  0  0  0  0  0  0  0  0  0  0  0
   -3.2546    1.5940   -1.4033 H   0  0  0  0  0  0  0  0  0  0  0  0
   -1.5006    1.4255   -1.4334 H   0  0  0  0  0  0  0  0  0  0  0  0
    1.6380   -0.1537    2.7017 N   0  0  0  0  0  0  0  0  0  0  0  0
    2.5100   -0.8059    3.7022 C   0  0  2  0  0  0  0  0  0  0  0  0
    3.7692   -1.4903    3.1201 C   0  0  0  0  0  0  0  0  0  0  0  0
    4.8455   -1.3383    3.6838 O   0  0  0  0  0  0  0  0  0  0  0  0
    1.7211   -1.7815    4.5866 C   0  0  0  0  0  0  0  0  0  0  0  0
    1.7244    0.8541    2.6087 H   0  0  0  0  0  0  0  0  0  0  0  0
    2.8780   -0.0123    4.3603 H   0  0  0  0  0  0  0  0  0  0  0  0
    1.4302   -2.6770    4.0298 H   0  0  0  0  0  0  0  0  0  0  0  0
    2.3364   -2.0965    5.4352 H   0  0  0  0  0  0  0  0  0  0  0  0
    0.8177   -1.3006    4.9732 H   0  0  0  0  0  0  0  0  0  0  0  0
    3.7090   -2.2604    1.9763 N   0  0  0  0  0  0  0  0  0  0  0  0
    4.8714   -2.8377    1.3183 C   0  0  0  0  0  0  0  0  0  0  0  0
    2.7920   -2.3319    1.5288 H   0  0  0  0  0  0  0  0  0  0  0  0
    4.5616   -3.3943    0.4287 H   0  0  0  0  0  0  0  0  0  0  0  0
    5.5659   -2.0496    1.0095 H   0  0  0  0  0  0  0  0  0  0  0  0
    5.3927   -3.5244    1.9933 H   0  0  0  0  0  0  0  0  0  0  0  0
  1  2  2  0  0  0  0
  1  3  1  0  0  0  0
  1  7  1  0  0  0  0
  3  4  1  0  0  0  0
  3  5  1  0  0  0  0
  3  6  1  0  0  0  0
  7  8  1  0  0  0  0
  7 12  1  0  0  0  0
  8  9  1  0  0  0  0
  8 11  1  0  0  0  0
  8 13  1  0  0  0  0
  9 10  2  0  0  0  0
  9 17  1  0  0  0  0
 11 14  1  0  0  0  0
 11 15  1  0  0  0  0
 11 16  1  0  0  0  0
 17 18  1  0  0  0  0
 17 25  1  0  0  0  0
 18 19  1  0  0  0  0
 18 21  1  0  0  0  0
 18 26  1  0  0  0  0
 19 20  2  0  0  0  0
 19 36  1  0  0  0  0
 21 22  1  0  0  0  0
 21 27  1  0  0  0  0
 21 28  1  0  0  0  0
 22 23  1  0  0  0  0
 22 24  1  0  0  0  0
 22 29  1  0  0  0  0
 23 30  1  0  0  0  0
 23 31  1  0  0  0  0
 23 32  1  0  0  0  0
 24 33  1  0  0  0  0
 24 34  1  0  0  0  0
 24 35  1  0  0  0  0
 36 37  1  0  0  0  0
 36 41  1  0  0  0  0
 37 38  1  0  0  0  0
 37 40  1  0  0  0  0
 37 42  1  0  0  0  0
 38 39  2  0  0  0  0
 38 46  1  0  0  0  0
 40 43  1  0  0  0  0
 40 44  1  0  0  0  0
 40 45  1  0  0  0  0
 46 47  1  0  0  0  0
 46 48  1  0  0  0  0
 47 49  1  0  0  0  0
 47 50  1  0  0  0  0
 47 51  1  0  0  0  0
M  END
$$$$

  -OEChem-05262216553D

 51 50  0     1  0  0  0  0  0999 V2000
    2.9516   -2.2880   -4.3127 C   0  0  0  0  0  0  0  0  0  0  0  0
    2.0367   -2.3810   -5.1161 O   0  0  0  0  0  0  0  0  0  0  0  0
    4.3919   -2.3735   -4.7817 C   0  0  0  0  0  0  0  0  0  0  0  0
    4.9109   -3.1747   -4.2501 H   0  0  0  0  0  0  0  0  0  0  0  0
    4.4274   -2.5822   -5.8544 H   0  0  0  0  0  0  0  0  0  0  0  0
    4.9039   -1.4276   -4.5894 H   0  0  0  0  0  0  0  0  0  0  0  0
    2.6789   -2.0940   -2.9757 N   0  0  0  0  0  0  0  0  0  0  0  0
    1.3384   -1.8507   -2.4278 C   0  0  2  0  0  0  0  0  0  0  0  0
    1.3876   -0.9268   -1.1939 C   0  0  0  0  0  0  0  0  0  0  0  0
    2.4653   -0.6301   -0.6850 O   0  0  0  0  0  0  0  0  0  0  0  0
    0.7156   -3.1995   -2.0543 C   0  0  0  0  0  0  0  0  0  0  0  0
    3.4672   -1.8907   -2.3622 H   0  0  0  0  0  0  0  0  0  0  0  0
    0.7142   -1.3588   -3.1814 H   0  0  0  0  0  0  0  0  0  0  0  0
    1.3175   -3.6987   -1.2877 H   0  0  0  0  0  0  0  0  0  0  0  0
   -0.2972   -3.0626   -1.6638 H   0  0  0  0  0  0  0  0  0  0  0  0
    0.6610   -3.8493   -2.9335 H   0  0  0  0  0  0  0  0  0  0  0  0
    0.2268   -0.3622   -0.6896 N   0  0  0  0  0  0  0  0  0  0  0  0
    0.0629    0.0079    0.7304 C   0  0  2  0  0  0  0  0  0  0  0  0
    0.8597   -0.8679    1.7327 C   0  0  0  0  0  0  0  0  0  0  0  0
    0.9456   -2.0776    1.5496 O   0  0  0  0  0  0  0  0  0  0  0  0
   -1.4271   -0.0192    1.1444 C   0  0  0  0  0  0  0  0  0  0  0  0
   -2.3650    1.0277    0.4883 C   0  0  0  0  0  0  0  0  0  0  0  0
   -3.8045    0.7244    0.9261 C   0  0  0  0  0  0  0  0  0  0  0  0
   -2.3434    1.0706   -1.0467 C   0  0  0  0  0  0  0  0  0  0  0  0
   -0.6185   -0.6678   -1.1620 H   0  0  0  0  0  0  0  0  0  0  0  0
    0.4338    1.0313    0.8424 H   0  0  0  0  0  0  0  0  0  0  0  0
   -1.4867    0.1218    2.2292 H   0  0  0  0  0  0  0  0  0  0  0  0
   -1.8138   -1.0224    0.9315 H   0  0  0  0  0  0  0  0  0  0  0  0
   -2.0859    2.0208    0.8571 H   0  0  0  0  0  0  0  0  0  0  0  0
   -4.1297   -0.2495    0.5457 H   0  0  0  0  0  0  0  0  0  0  0  0
   -4.4900    1.4902    0.5490 H   0  0  0  0  0  0  0  0  0  0  0  0
   -3.8774    0.7125    2.0182 H   0  0  0  0  0  0  0  0  0  0  0  0
   -2.4823    0.0690   -1.4654 H   0  0  0  0  0  0  0  0  0  0  0  0
   -3.1467    1.7133   -1.4208 H   0  0  0  0  0  0  0  0  0  0  0  0
   -1.3994    1.4867   -1.4096 H   0  0  0  0  0  0  0  0  0  0  0  0
    1.3091   -0.3221    2.9252 N   0  0  0  0  0  0  0  0  0  0  0  0
    2.0901   -1.0144    3.9739 C   0  0  2  0  0  0  0  0  0  0  0  0
    3.5008   -1.4710    3.5306 C   0  0  0  0  0  0  0  0  0  0  0  0
    4.4516   -1.2812    4.2782 O   0  0  0  0  0  0  0  0  0  0  0  0
    1.3050   -2.1816    4.5899 C   0  0  0  0  0  0  0  0  0  0  0  0
    1.2558    0.6901    2.9894 H   0  0  0  0  0  0  0  0  0  0  0  0
    2.2502   -0.2869    4.7764 H   0  0  0  0  0  0  0  0  0  0  0  0
    1.2209   -3.0186    3.8908 H   0  0  0  0  0  0  0  0  0  0  0  0
    1.8161   -2.5425    5.4882 H   0  0  0  0  0  0  0  0  0  0  0  0
    0.2985   -1.8579    4.8707 H   0  0  0  0  0  0  0  0  0  0  0  0
    3.7159   -2.0613    2.3010 N   0  0  0  0  0  0  0  0  0  0  0  0
    5.0264   -2.4267    1.7848 C   0  0  0  0  0  0  0  0  0  0  0  0
    2.8919   -2.1864    1.7071 H   0  0  0  0  0  0  0  0  0  0  0  0
    5.4974   -3.1746    2.4308 H   0  0  0  0  0  0  0  0  0  0  0  0
    4.9292   -2.8477    0.7796 H   0  0  0  0  0  0  0  0  0  0  0  0
    5.6755   -1.5467    1.7296 H   0  0  0  0  0  0  0  0  0  0  0  0
  1  2  2  0  0  0  0
  1  3  1  0  0  0  0
  1  7  1  0  0  0  0
  3  4  1  0  0  0  0
  3  5  1  0  0  0  0
  3  6  1  0  0  0  0
  7  8  1  0  0  0  0
  7 12  1  0  0  0  0
  8  9  1  0  0  0  0
  8 11  1  0  0  0  0
  8 13  1  0  0  0  0
  9 10  2  0  0  0  0
  9 17  1  0  0  0  0
 11 14  1  0  0  0  0
 11 15  1  0  0  0  0
 11 16  1  0  0  0  0
 17 18  1  0  0  0  0
 17 25  1  0  0  0  0
 18 19  1  0  0  0  0
 18 21  1  0  0  0  0
 18 26  1  0  0  0  0
 19 20  2  0  0  0  0
 19 36  1  0  0  0  0
 21 22  1  0  0  0  0
 21 27  1  0  0  0  0
 21 28  1  0  0  0  0
 22 23  1  0  0  0  0
 22 24  1  0  0  0  0
 22 29  1  0  0  0  0
 23 30  1  0  0  0  0
 23 31  1  0  0  0  0
 23 32  1  0  0  0  0
 24 33  1  0  0  0  0
 24 34  1  0  0  0  0
 24 35  1  0  0  0  0
 36 37  1  0  0  0  0
 36 41  1  0  0  0  0
 37 38  1  0  0  0  0
 37 40  1  0  0  0  0
 37 42  1  0  0  0  0
 38 39  2  0  0  0  0
 38 46  1  0  0  0  0
 40 43  1  0  0  0  0
 40 44  1  0  0  0  0
 40 45  1  0  0  0  0
 46 47  1  0  0  0  0
 46 48  1  0  0  0  0
 47 49  1  0  0  0  0
 47 50  1  0  0  0  0
 47 51  1  0  0  0  0
M  END
$$$$

  -OEChem-05262216553D

 51 50  0     1  0  0  0  0  0999 V2000
    0.7412   -2.8601   -2.2122 C   0  0  0  0  0  0  0  0  0  0  0  0
   -0.3516   -2.3168   -2.2844 O   0  0  0  0  0  0  0  0  0  0  0  0
    0.8291   -4.3049   -1.7603 C   0  0  0  0  0  0  0  0  0  0  0  0
    1.3577   -4.3613   -0.8050 H   0  0  0  0  0  0  0  0  0  0  0  0
   -0.1730   -4.7242   -1.6342 H   0  0  0  0  0  0  0  0  0  0  0  0
    1.3674   -4.8978   -2.5038 H   0  0  0  0  0  0  0  0  0  0  0  0
    1.9065   -2.1634   -2.4724 N   0  0  0  0  0  0  0  0  0  0  0  0
    2.0243   -0.7061   -2.6814 C   0  0  2  0  0  0  0  0  0  0  0  0
    1.6669    0.1038   -1.4179 C   0  0  0  0  0  0  0  0  0  0  0  0
    2.5226    0.7837   -0.8633 O   0  0  0  0  0  0  0  0  0  0  0  0
    1.2288   -0.2307   -3.9057 C   0  0  0  0  0  0  0  0  0  0  0  0
    2.7566   -2.6508   -2.2010 H   0  0  0  0  0  0  0  0  0  0  0  0
    3.0785   -0.4967   -2.8904 H   0  0  0  0  0  0  0  0  0  0  0  0
    0.1506   -0.3013   -3.7379 H   0  0  0  0  0  0  0  0  0  0  0  0
    1.4696    0.8142   -4.1242 H   0  0  0  0  0  0  0  0  0  0  0  0
    1.4851   -0.8352   -4.7809 H   0  0  0  0  0  0  0  0  0  0  0  0
    0.4132    0.0132   -0.8414 N   0  0  0  0  0  0  0  0  0  0  0  0
    0.2377   -0.0967    0.6186 C   0  0  2  0  0  0  0  0  0  0  0  0
    1.3833   -0.8170    1.3850 C   0  0  0  0  0  0  0  0  0  0  0  0
    2.0520   -1.6933    0.8417 O   0  0  0  0  0  0  0  0  0  0  0  0
   -1.0976   -0.8122    0.9389 C   0  0  0  0  0  0  0  0  0  0  0  0
   -2.4095   -0.0780    0.5542 C   0  0  0  0  0  0  0  0  0  0  0  0
   -3.5861   -1.0257    0.8238 C   0  0  0  0  0  0  0  0  0  0  0  0
   -2.5105    0.3934   -0.9043 C   0  0  0  0  0  0  0  0  0  0  0  0
   -0.1909   -0.6161   -1.3782 H   0  0  0  0  0  0  0  0  0  0  0  0
    0.1912    0.9219    1.0155 H   0  0  0  0  0  0  0  0  0  0  0  0
   -1.1401   -1.0099    2.0149 H   0  0  0  0  0  0  0  0  0  0  0  0
   -1.0804   -1.7857    0.4364 H   0  0  0  0  0  0  0  0  0  0  0  0
   -2.5125    0.8016    1.1982 H   0  0  0  0  0  0  0  0  0  0  0  0
   -3.5359   -1.9005    0.1673 H   0  0  0  0  0  0  0  0  0  0  0  0
   -4.5381   -0.5148    0.6479 H   0  0  0  0  0  0  0  0  0  0  0  0
   -3.5719   -1.3694    1.8627 H   0  0  0  0  0  0  0  0  0  0  0  0
   -2.2770   -0.4240   -1.5934 H   0  0  0  0  0  0  0  0  0  0  0  0
   -3.5230    0.7470   -1.1226 H   0  0  0  0  0  0  0  0  0  0  0  0
   -1.8276    1.2271   -1.0905 H   0  0  0  0  0  0  0  0  0  0  0  0
    1.4628   -0.6879    2.7637 N   0  0  0  0  0  0  0  0  0  0  0  0
    2.4076   -1.3748    3.6718 C   0  0  2  0  0  0  0  0  0  0  0  0
    3.8981   -1.0160    3.4596 C   0  0  0  0  0  0  0  0  0  0  0  0
    4.6235   -0.8828    4.4368 O   0  0  0  0  0  0  0  0  0  0  0  0
    2.2046   -2.8965    3.6488 C   0  0  0  0  0  0  0  0  0  0  0  0
    0.8951    0.0524    3.1657 H   0  0  0  0  0  0  0  0  0  0  0  0
    2.1637   -1.0416    4.6857 H   0  0  0  0  0  0  0  0  0  0  0  0
    2.5562   -3.3314    2.7089 H   0  0  0  0  0  0  0  0  0  0  0  0
    2.7660   -3.3598    4.4662 H   0  0  0  0  0  0  0  0  0  0  0  0
    1.1457   -3.1418    3.7734 H   0  0  0  0  0  0  0  0  0  0  0  0
    4.4283   -0.8380    2.1969 N   0  0  0  0  0  0  0  0  0  0  0  0
    5.8155   -0.4860    1.9320 C   0  0  0  0  0  0  0  0  0  0  0  0
    3.7984   -1.0153    1.4104 H   0  0  0  0  0  0  0  0  0  0  0  0
    6.4849   -1.2819    2.2740 H   0  0  0  0  0  0  0  0  0  0  0  0
    5.9669   -0.3415    0.8579 H   0  0  0  0  0  0  0  0  0  0  0  0
    6.0796    0.4444    2.4454 H   0  0  0  0  0  0  0  0  0  0  0  0
  1  2  2  0  0  0  0
  1  3  1  0  0  0  0
  1  7  1  0  0  0  0
  3  4  1  0  0  0  0
  3  5  1  0  0  0  0
  3  6  1  0  0  0  0
  7  8  1  0  0  0  0
  7 12  1  0  0  0  0
  8  9  1  0  0  0  0
  8 11  1  0  0  0  0
  8 13  1  0  0  0  0
  9 10  2  0  0  0  0
  9 17  1  0  0  0  0
 11 14  1  0  0  0  0
 11 15  1  0  0  0  0
 11 16  1  0  0  0  0
 17 18  1  0  0  0  0
 17 25  1  0  0  0  0
 18 19  1  0  0  0  0
 18 21  1  0  0  0  0
 18 26  1  0  0  0  0
 19 20  2  0  0  0  0
 19 36  1  0  0  0  0
 21 22  1  0  0  0  0
 21 27  1  0  0  0  0
 21 28  1  0  0  0  0
 22 23  1  0  0  0  0
 22 24  1  0  0  0  0
 22 29  1  0  0  0  0
 23 30  1  0  0  0  0
 23 31  1  0  0  0  0
 23 32  1  0  0  0  0
 24 33  1  0  0  0  0
 24 34  1  0  0  0  0
 24 35  1  0  0  0  0
 36 37  1  0  0  0  0
 36 41  1  0  0  0  0
 37 38  1  0  0  0  0
 37 40  1  0  0  0  0
 37 42  1  0  0  0  0
 38 39  2  0  0  0  0
 38 46  1  0  0  0  0
 40 43  1  0  0  0  0
 40 44  1  0  0  0  0
 40 45  1  0  0  0  0
 46 47  1  0  0  0  0
 46 48  1  0  0  0  0
 47 49  1  0  0  0  0
 47 50  1  0  0  0  0
 47 51  1  0  0  0  0
M  END
$$$$

  -OEChem-05262216553D

 51 50  0     1  0  0  0  0  0999 V2000
    0.9341   -2.7915   -2.0645 C   0  0  0  0  0  0  0  0  0  0  0  0
   -0.2322   -2.4311   -2.1159 O   0  0  0  0  0  0  0  0  0  0  0  0
    1.2761   -4.1392   -1.4600 C   0  0  0  0  0  0  0  0  0  0  0  0
    1.8268   -3.9960   -0.5264 H   0  0  0  0  0  0  0  0  0  0  0  0
    0.3630   -4.7027   -1.2488 H   0  0  0  0  0  0  0  0  0  0  0  0
    1.8921   -4.7156   -2.1544 H   0  0  0  0  0  0  0  0  0  0  0  0
    1.9562   -1.9552   -2.4668 N   0  0  0  0  0  0  0  0  0  0  0  0
    1.8201   -0.5266   -2.8073 C   0  0  2  0  0  0  0  0  0  0  0  0
    1.4469    0.3338   -1.5831 C   0  0  0  0  0  0  0  0  0  0  0  0
    2.1996    1.2276   -1.2157 O   0  0  0  0  0  0  0  0  0  0  0  0
    0.8668   -0.2891   -3.9877 C   0  0  0  0  0  0  0  0  0  0  0  0
    2.8867   -2.2661   -2.1986 H   0  0  0  0  0  0  0  0  0  0  0  0
    2.8080   -0.1827   -3.1312 H   0  0  0  0  0  0  0  0  0  0  0  0
   -0.1742   -0.4758   -3.7103 H   0  0  0  0  0  0  0  0  0  0  0  0
    0.9450    0.7486   -4.3265 H   0  0  0  0  0  0  0  0  0  0  0  0
    1.1280   -0.9463   -4.8225 H   0  0  0  0  0  0  0  0  0  0  0  0
    0.2704    0.1564   -0.8770 N   0  0  0  0  0  0  0  0  0  0  0  0
    0.2491   -0.0293    0.5918 C   0  0  2  0  0  0  0  0  0  0  0  0
    1.5866   -0.3950    1.3119 C   0  0  0  0  0  0  0  0  0  0  0  0
    2.4989   -0.9552    0.7114 O   0  0  0  0  0  0  0  0  0  0  0  0
   -0.8522   -1.0579    0.9681 C   0  0  0  0  0  0  0  0  0  0  0  0
   -2.3273   -0.6477    0.7080 C   0  0  0  0  0  0  0  0  0  0  0  0
   -3.2193   -1.8592    1.0106 C   0  0  0  0  0  0  0  0  0  0  0  0
   -2.6609   -0.1613   -0.7107 C   0  0  0  0  0  0  0  0  0  0  0  0
   -0.3132   -0.5336   -1.3569 H   0  0  0  0  0  0  0  0  0  0  0  0
   -0.0402    0.9376    1.0140 H   0  0  0  0  0  0  0  0  0  0  0  0
   -0.7791   -1.2900    2.0343 H   0  0  0  0  0  0  0  0  0  0  0  0
   -0.6417   -1.9880    0.4321 H   0  0  0  0  0  0  0  0  0  0  0  0
   -2.5841    0.1587    1.4032 H   0  0  0  0  0  0  0  0  0  0  0  0
   -3.0089   -2.6769    0.3132 H   0  0  0  0  0  0  0  0  0  0  0  0
   -4.2763   -1.5896    0.9201 H   0  0  0  0  0  0  0  0  0  0  0  0
   -3.0465   -2.2180    2.0299 H   0  0  0  0  0  0  0  0  0  0  0  0
   -2.3184   -0.8802   -1.4604 H   0  0  0  0  0  0  0  0  0  0  0  0
   -3.7424   -0.0383   -0.8256 H   0  0  0  0  0  0  0  0  0  0  0  0
   -2.2012    0.8113   -0.9073 H   0  0  0  0  0  0  0  0  0  0  0  0
    1.5787   -0.5615    2.6909 N   0  0  0  0  0  0  0  0  0  0  0  0
    2.6132   -1.1994    3.5370 C   0  0  2  0  0  0  0  0  0  0  0  0
    3.9975   -0.5058    3.5426 C   0  0  0  0  0  0  0  0  0  0  0  0
    4.6032   -0.3983    4.6011 O   0  0  0  0  0  0  0  0  0  0  0  0
    2.7546   -2.6931    3.2110 C   0  0  0  0  0  0  0  0  0  0  0  0
    0.7797   -0.1590    3.1717 H   0  0  0  0  0  0  0  0  0  0  0  0
    2.2505   -1.1359    4.5682 H   0  0  0  0  0  0  0  0  0  0  0  0
    3.2368   -2.8446    2.2412 H   0  0  0  0  0  0  0  0  0  0  0  0
    3.3667   -3.1843    3.9738 H   0  0  0  0  0  0  0  0  0  0  0  0
    1.7722   -3.1740    3.1925 H   0  0  0  0  0  0  0  0  0  0  0  0
    4.5744   -0.0214    2.3856 N   0  0  0  0  0  0  0  0  0  0  0  0
    5.8899    0.5989    2.3212 C   0  0  0  0  0  0  0  0  0  0  0  0
    4.0588   -0.1934    1.5180 H   0  0  0  0  0  0  0  0  0  0  0  0
    6.6641   -0.1119    2.6274 H   0  0  0  0  0  0  0  0  0  0  0  0
    6.1019    0.9238    1.2979 H   0  0  0  0  0  0  0  0  0  0  0  0
    5.9337    1.4745    2.9771 H   0  0  0  0  0  0  0  0  0  0  0  0
  1  2  2  0  0  0  0
  1  3  1  0  0  0  0
  1  7  1  0  0  0  0
  3  4  1  0  0  0  0
  3  5  1  0  0  0  0
  3  6  1  0  0  0  0
  7  8  1  0  0  0  0
  7 12  1  0  0  0  0
  8  9  1  0  0  0  0
  8 11  1  0  0  0  0
  8 13  1  0  0  0  0
  9 10  2  0  0  0  0
  9 17  1  0  0  0  0
 11 14  1  0  0  0  0
 11 15  1  0  0  0  0
 11 16  1  0  0  0  0
 17 18  1  0  0  0  0
 17 25  1  0  0  0  0
 18 19  1  0  0  0  0
 18 21  1  0  0  0  0
 18 26  1  0  0  0  0
 19 20  2  0  0  0  0
 19 36  1  0  0  0  0
 21 22  1  0  0  0  0
 21 27  1  0  0  0  0
 21 28  1  0  0  0  0
 22 23  1  0  0  0  0
 22 24  1  0  0  0  0
 22 29  1  0  0  0  0
 23 30  1  0  0  0  0
 23 31  1  0  0  0  0
 23 32  1  0  0  0  0
 24 33  1  0  0  0  0
 24 34  1  0  0  0  0
 24 35  1  0  0  0  0
 36 37  1  0  0  0  0
 36 41  1  0  0  0  0
 37 38  1  0  0  0  0
 37 40  1  0  0  0  0
 37 42  1  0  0  0  0
 38 39  2  0  0  0  0
 38 46  1  0  0  0  0
 40 43  1  0  0  0  0
 40 44  1  0  0  0  0
 40 45  1  0  0  0  0
 46 47  1  0  0  0  0
 46 48  1  0  0  0  0
 47 49  1  0  0  0  0
 47 50  1  0  0  0  0
 47 51  1  0  0  0  0
M  END
$$$$

  -OEChem-05262216553D

 51 50  0     1  0  0  0  0  0999 V2000
    0.8302   -2.8059   -2.1118 C   0  0  0  0  0  0  0  0  0  0  0  0
   -0.3209   -2.3976   -2.1115 O   0  0  0  0  0  0  0  0  0  0  0  0
    1.1290   -4.2054   -1.6093 C   0  0  0  0  0  0  0  0  0  0  0  0
    1.7398   -4.1526   -0.7041 H   0  0  0  0  0  0  0  0  0  0  0  0
    0.1984   -4.7306   -1.3766 H   0  0  0  0  0  0  0  0  0  0  0  0
    1.6692   -4.7699   -2.3732 H   0  0  0  0  0  0  0  0  0  0  0  0
    1.8745   -1.9821   -2.4818 N   0  0  0  0  0  0  0  0  0  0  0  0
    1.7832   -0.5402   -2.7818 C   0  0  2  0  0  0  0  0  0  0  0  0
    1.4282    0.3119   -1.5454 C   0  0  0  0  0  0  0  0  0  0  0  0
    2.1377    1.2619   -1.2407 O   0  0  0  0  0  0  0  0  0  0  0  0
    0.8439   -0.2480   -3.9612 C   0  0  0  0  0  0  0  0  0  0  0  0
    2.8038   -2.3485   -2.2916 H   0  0  0  0  0  0  0  0  0  0  0  0
    2.7830   -0.2188   -3.0920 H   0  0  0  0  0  0  0  0  0  0  0  0
   -0.2024   -0.4221   -3.6958 H   0  0  0  0  0  0  0  0  0  0  0  0
    0.9456    0.7980   -4.2671 H   0  0  0  0  0  0  0  0  0  0  0  0
    1.0975   -0.8846   -4.8143 H   0  0  0  0  0  0  0  0  0  0  0  0
    0.2650    0.1315   -0.8194 N   0  0  0  0  0  0  0  0  0  0  0  0
    0.2433   -0.0841    0.6466 C   0  0  2  0  0  0  0  0  0  0  0  0
    1.5695   -0.4828    1.3840 C   0  0  0  0  0  0  0  0  0  0  0  0
    2.6057   -0.7406    0.7843 O   0  0  0  0  0  0  0  0  0  0  0  0
   -0.9082   -1.0764    0.9837 C   0  0  0  0  0  0  0  0  0  0  0  0
   -2.3624   -0.5938    0.7270 C   0  0  0  0  0  0  0  0  0  0  0  0
   -3.3085   -1.7742    0.9858 C   0  0  0  0  0  0  0  0  0  0  0  0
   -2.6686   -0.0500   -0.6767 C   0  0  0  0  0  0  0  0  0  0  0  0
   -0.3296   -0.5445   -1.3056 H   0  0  0  0  0  0  0  0  0  0  0  0
   -0.0224    0.8830    1.0842 H   0  0  0  0  0  0  0  0  0  0  0  0
   -0.8681   -1.3409    2.0429 H   0  0  0  0  0  0  0  0  0  0  0  0
   -0.7329   -2.0000    0.4244 H   0  0  0  0  0  0  0  0  0  0  0  0
   -2.5889    0.2009    1.4458 H   0  0  0  0  0  0  0  0  0  0  0  0
   -3.1303   -2.5772    0.2627 H   0  0  0  0  0  0  0  0  0  0  0  0
   -4.3521   -1.4554    0.8995 H   0  0  0  0  0  0  0  0  0  0  0  0
   -3.1582   -2.1738    1.9934 H   0  0  0  0  0  0  0  0  0  0  0  0
   -2.3521   -0.7585   -1.4475 H   0  0  0  0  0  0  0  0  0  0  0  0
   -3.7436    0.1209   -0.7916 H   0  0  0  0  0  0  0  0  0  0  0  0
   -2.1685    0.9086   -0.8409 H   0  0  0  0  0  0  0  0  0  0  0  0
    1.5007   -0.9784    2.6808 N   0  0  0  0  0  0  0  0  0  0  0  0
    2.5566   -1.6696    3.4551 C   0  0  2  0  0  0  0  0  0  0  0  0
    3.8100   -0.8216    3.7774 C   0  0  0  0  0  0  0  0  0  0  0  0
    4.2575   -0.8312    4.9168 O   0  0  0  0  0  0  0  0  0  0  0  0
    2.9530   -2.9996    2.7976 C   0  0  0  0  0  0  0  0  0  0  0  0
    0.6217   -0.8113    3.1609 H   0  0  0  0  0  0  0  0  0  0  0  0
    2.1142   -1.9195    4.4249 H   0  0  0  0  0  0  0  0  0  0  0  0
    3.5242   -2.8351    1.8795 H   0  0  0  0  0  0  0  0  0  0  0  0
    3.5756   -3.5834    3.4831 H   0  0  0  0  0  0  0  0  0  0  0  0
    2.0614   -3.5852    2.5546 H   0  0  0  0  0  0  0  0  0  0  0  0
    4.4441   -0.0679    2.8106 N   0  0  0  0  0  0  0  0  0  0  0  0
    5.6388    0.7302    3.0450 C   0  0  0  0  0  0  0  0  0  0  0  0
    4.0465   -0.1147    1.8676 H   0  0  0  0  0  0  0  0  0  0  0  0
    6.4711    0.0911    3.3573 H   0  0  0  0  0  0  0  0  0  0  0  0
    5.9274    1.2526    2.1278 H   0  0  0  0  0  0  0  0  0  0  0  0
    5.4542    1.4763    3.8247 H   0  0  0  0  0  0  0  0  0  0  0  0
  1  2  2  0  0  0  0
  1  3  1  0  0  0  0
  1  7  1  0  0  0  0
  3  4  1  0  0  0  0
  3  5  1  0  0  0  0
  3  6  1  0  0  0  0
  7  8  1  0  0  0  0
  7 12  1  0  0  0  0
  8  9  1  0  0  0  0
  8 11  1  0  0  0  0
  8 13  1  0  0  0  0
  9 10  2  0  0  0  0
  9 17  1  0  0  0  0
 11 14  1  0  0  0  0
 11 15  1  0  0  0  0
 11 16  1  0  0  0  0
 17 18  1  0  0  0  0
 17 25  1  0  0  0  0
 18 19  1  0  0  0  0
 18 21  1  0  0  0  0
 18 26  1  0  0  0  0
 19 20  2  0  0  0  0
 19 36  1  0  0  0  0
 21 22  1  0  0  0  0
 21 27  1  0  0  0  0
 21 28  1  0  0  0  0
 22 23  1  0  0  0  0
 22 24  1  0  0  0  0
 22 29  1  0  0  0  0
 23 30  1  0  0  0  0
 23 31  1  0  0  0  0
 23 32  1  0  0  0  0
 24 33  1  0  0  0  0
 24 34  1  0  0  0  0
 24 35  1  0  0  0  0
 36 37  1  0  0  0  0
 36 41  1  0  0  0  0
 37 38  1  0  0  0  0
 37 40  1  0  0  0  0
 37 42  1  0  0  0  0
 38 39  2  0  0  0  0
 38 46  1  0  0  0  0
 40 43  1  0  0  0  0
 40 44  1  0  0  0  0
 40 45  1  0  0  0  0
 46 47  1  0  0  0  0
 46 48  1  0  0  0  0
 47 49  1  0  0  0  0
 47 50  1  0  0  0  0
 47 51  1  0  0  0  0
M  END
$$$$

  -OEChem-05262216553D

 51 50  0     1  0  0  0  0  0999 V2000
    1.7431   -2.8384   -1.8496 C   0  0  0  0  0  0  0  0  0  0  0  0
    0.6270   -2.8258   -1.3516 O   0  0  0  0  0  0  0  0  0  0  0  0
    2.6885   -3.9849   -1.5466 C   0  0  0  0  0  0  0  0  0  0  0  0
    3.5927   -3.6033   -1.0658 H   0  0  0  0  0  0  0  0  0  0  0  0
    2.2096   -4.7043   -0.8770 H   0  0  0  0  0  0  0  0  0  0  0  0
    2.9646   -4.4961   -2.4720 H   0  0  0  0  0  0  0  0  0  0  0  0
    2.1666   -1.8223   -2.6849 N   0  0  0  0  0  0  0  0  0  0  0  0
    1.4538   -0.5526   -2.9072 C   0  0  2  0  0  0  0  0  0  0  0  0
    1.3090    0.2622   -1.6036 C   0  0  0  0  0  0  0  0  0  0  0  0
    2.1323    1.1306   -1.3535 O   0  0  0  0  0  0  0  0  0  0  0  0
    0.1171   -0.7785   -3.6338 C   0  0  0  0  0  0  0  0  0  0  0  0
    3.1573   -1.8363   -2.9117 H   0  0  0  0  0  0  0  0  0  0  0  0
    2.0723    0.0572   -3.5740 H   0  0  0  0  0  0  0  0  0  0  0  0
   -0.5849   -1.3545   -3.0252 H   0  0  0  0  0  0  0  0  0  0  0  0
   -0.3460    0.1835   -3.8744 H   0  0  0  0  0  0  0  0  0  0  0  0
    0.2864   -1.3227   -4.5677 H   0  0  0  0  0  0  0  0  0  0  0  0
    0.1713    0.2028   -0.8215 N   0  0  0  0  0  0  0  0  0  0  0  0
    0.1604   -0.1212    0.6226 C   0  0  2  0  0  0  0  0  0  0  0  0
    1.4322   -0.7767    1.2721 C   0  0  0  0  0  0  0  0  0  0  0  0
    2.5673   -0.6253    0.8452 O   0  0  0  0  0  0  0  0  0  0  0  0
   -1.1412   -0.9245    0.9223 C   0  0  0  0  0  0  0  0  0  0  0  0
   -2.4946   -0.1787    0.7581 C   0  0  0  0  0  0  0  0  0  0  0  0
   -3.6269   -1.1960    0.9584 C   0  0  0  0  0  0  0  0  0  0  0  0
   -2.7295    0.5123   -0.5942 C   0  0  0  0  0  0  0  0  0  0  0  0
   -0.5336   -0.3420   -1.3092 H   0  0  0  0  0  0  0  0  0  0  0  0
    0.0719    0.8368    1.1443 H   0  0  0  0  0  0  0  0  0  0  0  0
   -1.1272   -1.2701    1.9581 H   0  0  0  0  0  0  0  0  0  0  0  0
   -1.1452   -1.8156    0.2859 H   0  0  0  0  0  0  0  0  0  0  0  0
   -2.5636    0.5847    1.5405 H   0  0  0  0  0  0  0  0  0  0  0  0
   -3.6058   -1.9600    0.1742 H   0  0  0  0  0  0  0  0  0  0  0  0
   -4.6009   -0.6972    0.9303 H   0  0  0  0  0  0  0  0  0  0  0  0
   -3.5294   -1.6922    1.9291 H   0  0  0  0  0  0  0  0  0  0  0  0
   -2.5394   -0.1781   -1.4219 H   0  0  0  0  0  0  0  0  0  0  0  0
   -3.7641    0.8615   -0.6699 H   0  0  0  0  0  0  0  0  0  0  0  0
   -2.0839    1.3890   -0.6993 H   0  0  0  0  0  0  0  0  0  0  0  0
    1.3011   -1.6300    2.3616 N   0  0  0  0  0  0  0  0  0  0  0  0
    2.3594   -2.3965    3.0558 C   0  0  2  0  0  0  0  0  0  0  0  0
    3.3994   -1.5476    3.8248 C   0  0  0  0  0  0  0  0  0  0  0  0
    3.6794   -1.8495    4.9779 O   0  0  0  0  0  0  0  0  0  0  0  0
    3.0519   -3.3803    2.1039 C   0  0  0  0  0  0  0  0  0  0  0  0
    0.3532   -1.7633    2.6964 H   0  0  0  0  0  0  0  0  0  0  0  0
    1.8542   -3.0015    3.8156 H   0  0  0  0  0  0  0  0  0  0  0  0
    3.6799   -2.8551    1.3790 H   0  0  0  0  0  0  0  0  0  0  0  0
    3.6897   -4.0642    2.6724 H   0  0  0  0  0  0  0  0  0  0  0  0
    2.3068   -3.9703    1.5621 H   0  0  0  0  0  0  0  0  0  0  0  0
    4.0276   -0.4663    3.2410 N   0  0  0  0  0  0  0  0  0  0  0  0
    5.0201    0.3654    3.9062 C   0  0  0  0  0  0  0  0  0  0  0  0
    3.7677   -0.2636    2.2708 H   0  0  0  0  0  0  0  0  0  0  0  0
    5.8687   -0.2415    4.2383 H   0  0  0  0  0  0  0  0  0  0  0  0
    5.3912    1.1307    3.2178 H   0  0  0  0  0  0  0  0  0  0  0  0
    4.5804    0.8647    4.7758 H   0  0  0  0  0  0  0  0  0  0  0  0
  1  2  2  0  0  0  0
  1  3  1  0  0  0  0
  1  7  1  0  0  0  0
  3  4  1  0  0  0  0
  3  5  1  0  0  0  0
  3  6  1  0  0  0  0
  7  8  1  0  0  0  0
  7 12  1  0  0  0  0
  8  9  1  0  0  0  0
  8 11  1  0  0  0  0
  8 13  1  0  0  0  0
  9 10  2  0  0  0  0
  9 17  1  0  0  0  0
 11 14  1  0  0  0  0
 11 15  1  0  0  0  0
 11 16  1  0  0  0  0
 17 18  1  0  0  0  0
 17 25  1  0  0  0  0
 18 19  1  0  0  0  0
 18 21  1  0  0  0  0
 18 26  1  0  0  0  0
 19 20  2  0  0  0  0
 19 36  1  0  0  0  0
 21 22  1  0  0  0  0
 21 27  1  0  0  0  0
 21 28  1  0  0  0  0
 22 23  1  0  0  0  0
 22 24  1  0  0  0  0
 22 29  1  0  0  0  0
 23 30  1  0  0  0  0
 23 31  1  0  0  0  0
 23 32  1  0  0  0  0
 24 33  1  0  0  0  0
 24 34  1  0  0  0  0
 24 35  1  0  0  0  0
 36 37  1  0  0  0  0
 36 41  1  0  0  0  0
 37 38  1  0  0  0  0
 37 40  1  0  0  0  0
 37 42  1  0  0  0  0
 38 39  2  0  0  0  0
 38 46  1  0  0  0  0
 40 43  1  0  0  0  0
 40 44  1  0  0  0  0
 40 45  1  0  0  0  0
 46 47  1  0  0  0  0
 46 48  1  0  0  0  0
 47 49  1  0  0  0  0
 47 50  1  0  0  0  0
 47 51  1  0  0  0  0
M  END
$$$$

  -OEChem-05262216553D

 51 50  0     1  0  0  0  0  0999 V2000
    0.7414   -1.2394   -4.0661 C   0  0  0  0  0  0  0  0  0  0  0  0
    0.0710   -0.5313   -3.3330 O   0  0  0  0  0  0  0  0  0  0  0  0
    0.2008   -1.6496   -5.4228 C   0  0  0  0  0  0  0  0  0  0  0  0
    0.0446   -2.7309   -5.4507 H   0  0  0  0  0  0  0  0  0  0  0  0
   -0.7532   -1.1507   -5.6156 H   0  0  0  0  0  0  0  0  0  0  0  0
    0.9078   -1.3697   -6.2077 H   0  0  0  0  0  0  0  0  0  0  0  0
    1.9718   -1.7069   -3.6511 N   0  0  0  0  0  0  0  0  0  0  0  0
    2.6338   -1.4159   -2.3642 C   0  0  2  0  0  0  0  0  0  0  0  0
    1.9401   -2.0256   -1.1255 C   0  0  0  0  0  0  0  0  0  0  0  0
    2.4992   -2.9347   -0.5257 O   0  0  0  0  0  0  0  0  0  0  0  0
    2.8669    0.0901   -2.1730 C   0  0  0  0  0  0  0  0  0  0  0  0
    2.4466   -2.3414   -4.2873 H   0  0  0  0  0  0  0  0  0  0  0  0
    3.6252   -1.8792   -2.4075 H   0  0  0  0  0  0  0  0  0  0  0  0
    1.9261    0.6259   -2.0186 H   0  0  0  0  0  0  0  0  0  0  0  0
    3.4999    0.2598   -1.2957 H   0  0  0  0  0  0  0  0  0  0  0  0
    3.3688    0.5122   -3.0489 H   0  0  0  0  0  0  0  0  0  0  0  0
    0.6454   -1.7077   -0.7466 N   0  0  0  0  0  0  0  0  0  0  0  0
    0.3159   -1.2019    0.6097 C   0  0  2  0  0  0  0  0  0  0  0  0
    1.4335   -1.3802    1.6849 C   0  0  0  0  0  0  0  0  0  0  0  0
    2.4749   -0.7518    1.5213 O   0  0  0  0  0  0  0  0  0  0  0  0
   -1.0189   -1.8323    1.1045 C   0  0  0  0  0  0  0  0  0  0  0  0
   -2.3296   -1.4682    0.3612 C   0  0  0  0  0  0  0  0  0  0  0  0
   -3.4643   -2.3250    0.9408 C   0  0  0  0  0  0  0  0  0  0  0  0
   -2.3102   -1.6794   -1.1551 C   0  0  0  0  0  0  0  0  0  0  0  0
    0.1796   -1.1859   -1.4944 H   0  0  0  0  0  0  0  0  0  0  0  0
    0.1638   -0.1208    0.5319 H   0  0  0  0  0  0  0  0  0  0  0  0
   -1.1841   -1.5354    2.1445 H   0  0  0  0  0  0  0  0  0  0  0  0
   -0.8947   -2.9207    1.0828 H   0  0  0  0  0  0  0  0  0  0  0  0
   -2.5547   -0.4133    0.5515 H   0  0  0  0  0  0  0  0  0  0  0  0
   -3.2891   -3.3869    0.7395 H   0  0  0  0  0  0  0  0  0  0  0  0
   -4.4242   -2.0421    0.4972 H   0  0  0  0  0  0  0  0  0  0  0  0
   -3.5375   -2.1834    2.0236 H   0  0  0  0  0  0  0  0  0  0  0  0
   -1.8832   -2.6545   -1.4097 H   0  0  0  0  0  0  0  0  0  0  0  0
   -3.3229   -1.6278   -1.5669 H   0  0  0  0  0  0  0  0  0  0  0  0
   -1.7267   -0.8908   -1.6305 H   0  0  0  0  0  0  0  0  0  0  0  0
    1.1679   -1.8541    2.9635 N   0  0  0  0  0  0  0  0  0  0  0  0
    2.1299   -2.0202    4.0746 C   0  0  2  0  0  0  0  0  0  0  0  0
    2.5772   -0.7100    4.7633 C   0  0  0  0  0  0  0  0  0  0  0  0
    2.5207   -0.6229    5.9836 O   0  0  0  0  0  0  0  0  0  0  0  0
    3.3445   -2.8509    3.6348 C   0  0  0  0  0  0  0  0  0  0  0  0
    0.2715   -2.3181    3.0679 H   0  0  0  0  0  0  0  0  0  0  0  0
    1.6163   -2.6005    4.8480 H   0  0  0  0  0  0  0  0  0  0  0  0
    3.9741   -2.2946    2.9342 H   0  0  0  0  0  0  0  0  0  0  0  0
    3.9541   -3.1134    4.5051 H   0  0  0  0  0  0  0  0  0  0  0  0
    3.0184   -3.7753    3.1483 H   0  0  0  0  0  0  0  0  0  0  0  0
    3.0465    0.3628    4.0338 N   0  0  0  0  0  0  0  0  0  0  0  0
    3.5087    1.6143    4.6159 C   0  0  0  0  0  0  0  0  0  0  0  0
    3.0763    0.2334    3.0183 H   0  0  0  0  0  0  0  0  0  0  0  0
    3.8238    2.3025    3.8258 H   0  0  0  0  0  0  0  0  0  0  0  0
    2.7061    2.0891    5.1898 H   0  0  0  0  0  0  0  0  0  0  0  0
    4.3607    1.4358    5.2801 H   0  0  0  0  0  0  0  0  0  0  0  0
  1  2  2  0  0  0  0
  1  3  1  0  0  0  0
  1  7  1  0  0  0  0
  3  4  1  0  0  0  0
  3  5  1  0  0  0  0
  3  6  1  0  0  0  0
  7  8  1  0  0  0  0
  7 12  1  0  0  0  0
  8  9  1  0  0  0  0
  8 11  1  0  0  0  0
  8 13  1  0  0  0  0
  9 10  2  0  0  0  0
  9 17  1  0  0  0  0
 11 14  1  0  0  0  0
 11 15  1  0  0  0  0
 11 16  1  0  0  0  0
 17 18  1  0  0  0  0
 17 25  1  0  0  0  0
 18 19  1  0  0  0  0
 18 21  1  0  0  0  0
 18 26  1  0  0  0  0
 19 20  2  0  0  0  0
 19 36  1  0  0  0  0
 21 22  1  0  0  0  0
 21 27  1  0  0  0  0
 21 28  1  0  0  0  0
 22 23  1  0  0  0  0
 22 24  1  0  0  0  0
 22 29  1  0  0  0  0
 23 30  1  0  0  0  0
 23 31  1  0  0  0  0
 23 32  1  0  0  0  0
 24 33  1  0  0  0  0
 24 34  1  0  0  0  0
 24 35  1  0  0  0  0
 36 37  1  0  0  0  0
 36 41  1  0  0  0  0
 37 38  1  0  0  0  0
 37 40  1  0  0  0  0
 37 42  1  0  0  0  0
 38 39  2  0  0  0  0
 38 46  1  0  0  0  0
 40 43  1  0  0  0  0
 40 44  1  0  0  0  0
 40 45  1  0  0  0  0
 46 47  1  0  0  0  0
 46 48  1  0  0  0  0
 47 49  1  0  0  0  0
 47 50  1  0  0  0  0
 47 51  1  0  0  0  0
M  END
$$$$

  -OEChem-05262216553D

 51 50  0     1  0  0  0  0  0999 V2000
    0.9808   -2.6716   -3.4732 C   0  0  0  0  0  0  0  0  0  0  0  0
   -0.0406   -2.3778   -2.8718 O   0  0  0  0  0  0  0  0  0  0  0  0
    1.1244   -4.0517   -4.0860 C   0  0  0  0  0  0  0  0  0  0  0  0
    1.9575   -4.5833   -3.6191 H   0  0  0  0  0  0  0  0  0  0  0  0
    0.2085   -4.6297   -3.9343 H   0  0  0  0  0  0  0  0  0  0  0  0
    1.3112   -3.9654   -5.1592 H   0  0  0  0  0  0  0  0  0  0  0  0
    2.0200   -1.7683   -3.5823 N   0  0  0  0  0  0  0  0  0  0  0  0
    2.0716   -0.4391   -2.9462 C   0  0  2  0  0  0  0  0  0  0  0  0
    2.0008   -0.5036   -1.4025 C   0  0  0  0  0  0  0  0  0  0  0  0
    3.0516   -0.6626   -0.8048 O   0  0  0  0  0  0  0  0  0  0  0  0
    1.0195    0.5025   -3.5546 C   0  0  0  0  0  0  0  0  0  0  0  0
    2.8806   -2.1265   -3.9872 H   0  0  0  0  0  0  0  0  0  0  0  0
    3.0494   -0.0041   -3.1785 H   0  0  0  0  0  0  0  0  0  0  0  0
    0.0022    0.1524   -3.3608 H   0  0  0  0  0  0  0  0  0  0  0  0
    1.1242    1.5060   -3.1299 H   0  0  0  0  0  0  0  0  0  0  0  0
    1.1578    0.5709   -4.6379 H   0  0  0  0  0  0  0  0  0  0  0  0
    0.7737   -0.4871   -0.7543 N   0  0  0  0  0  0  0  0  0  0  0  0
    0.4700   -0.5781    0.6924 C   0  0  2  0  0  0  0  0  0  0  0  0
    1.6036   -1.0648    1.6411 C   0  0  0  0  0  0  0  0  0  0  0  0
    2.4398   -0.2505    2.0132 O   0  0  0  0  0  0  0  0  0  0  0  0
   -0.8600   -1.3464    0.9173 C   0  0  0  0  0  0  0  0  0  0  0  0
   -2.1651   -0.6760    0.4057 C   0  0  0  0  0  0  0  0  0  0  0  0
   -3.3207   -1.6671    0.5968 C   0  0  0  0  0  0  0  0  0  0  0  0
   -2.1781   -0.2113   -1.0567 C   0  0  0  0  0  0  0  0  0  0  0  0
   -0.0065   -0.6612   -1.3880 H   0  0  0  0  0  0  0  0  0  0  0  0
    0.2858    0.4495    1.0225 H   0  0  0  0  0  0  0  0  0  0  0  0
   -0.9969   -1.5041    1.9925 H   0  0  0  0  0  0  0  0  0  0  0  0
   -0.7612   -2.3307    0.4464 H   0  0  0  0  0  0  0  0  0  0  0  0
   -2.3563    0.2033    1.0307 H   0  0  0  0  0  0  0  0  0  0  0  0
   -3.1821   -2.5487   -0.0374 H   0  0  0  0  0  0  0  0  0  0  0  0
   -4.2749   -1.1985    0.3356 H   0  0  0  0  0  0  0  0  0  0  0  0
   -3.3773   -1.9935    1.6400 H   0  0  0  0  0  0  0  0  0  0  0  0
   -1.9057   -1.0313   -1.7251 H   0  0  0  0  0  0  0  0  0  0  0  0
   -3.1782    0.1354   -1.3354 H   0  0  0  0  0  0  0  0  0  0  0  0
   -1.4914    0.6262   -1.2060 H   0  0  0  0  0  0  0  0  0  0  0  0
    1.4476   -2.2110    2.4103 N   0  0  0  0  0  0  0  0  0  0  0  0
    2.4097   -2.7700    3.3847 C   0  0  2  0  0  0  0  0  0  0  0  0
    2.5099   -2.0091    4.7271 C   0  0  0  0  0  0  0  0  0  0  0  0
    2.3873   -2.6272    5.7775 O   0  0  0  0  0  0  0  0  0  0  0  0
    3.7979   -2.9457    2.7508 C   0  0  0  0  0  0  0  0  0  0  0  0
    0.6860   -2.8167    2.1224 H   0  0  0  0  0  0  0  0  0  0  0  0
    2.0514   -3.7729    3.6387 H   0  0  0  0  0  0  0  0  0  0  0  0
    4.2698   -1.9790    2.5505 H   0  0  0  0  0  0  0  0  0  0  0  0
    4.4493   -3.5083    3.4266 H   0  0  0  0  0  0  0  0  0  0  0  0
    3.7195   -3.4944    1.8075 H   0  0  0  0  0  0  0  0  0  0  0  0
    2.7521   -0.6518    4.7689 N   0  0  0  0  0  0  0  0  0  0  0  0
    2.8913    0.1223    5.9936 C   0  0  0  0  0  0  0  0  0  0  0  0
    2.8272   -0.1835    3.8604 H   0  0  0  0  0  0  0  0  0  0  0  0
    3.7249   -0.2579    6.5934 H   0  0  0  0  0  0  0  0  0  0  0  0
    3.0879    1.1719    5.7542 H   0  0  0  0  0  0  0  0  0  0  0  0
    1.9732    0.0677    6.5879 H   0  0  0  0  0  0  0  0  0  0  0  0
  1  2  2  0  0  0  0
  1  3  1  0  0  0  0
  1  7  1  0  0  0  0
  3  4  1  0  0  0  0
  3  5  1  0  0  0  0
  3  6  1  0  0  0  0
  7  8  1  0  0  0  0
  7 12  1  0  0  0  0
  8  9  1  0  0  0  0
  8 11  1  0  0  0  0
  8 13  1  0  0  0  0
  9 10  2  0  0  0  0
  9 17  1  0  0  0  0
 11 14  1  0  0  0  0
 11 15  1  0  0  0  0
 11 16  1  0  0  0  0
 17 18  1  0  0  0  0
 17 25  1  0  0  0  0
 18 19  1  0  0  0  0
 18 21  1  0  0  0  0
 18 26  1  0  0  0  0
 19 20  2  0  0  0  0
 19 36  1  0  0  0  0
 21 22  1  0  0  0  0
 21 27  1  0  0  0  0
 21 28  1  0  0  0  0
 22 23  1  0  0  0  0
 22 24  1  0  0  0  0
 22 29  1  0  0  0  0
 23 30  1  0  0  0  0
 23 31  1  0  0  0  0
 23 32  1  0  0  0  0
 24 33  1  0  0  0  0
 24 34  1  0  0  0  0
 24 35  1  0  0  0  0
 36 37  1  0  0  0  0
 36 41  1  0  0  0  0
 37 38  1  0  0  0  0
 37 40  1  0  0  0  0
 37 42  1  0  0  0  0
 38 39  2  0  0  0  0
 38 46  1  0  0  0  0
 40 43  1  0  0  0  0
 40 44  1  0  0  0  0
 40 45  1  0  0  0  0
 46 47  1  0  0  0  0
 46 48  1  0  0  0  0
 47 49  1  0  0  0  0
 47 50  1  0  0  0  0
 47 51  1  0  0  0  0
M  END
$$$$

  -OEChem-05262216553D

 51 50  0     1  0  0  0  0  0999 V2000
    0.9502   -2.6723   -3.3079 C   0  0  0  0  0  0  0  0  0  0  0  0
   -0.0639   -2.3998   -2.6839 O   0  0  0  0  0  0  0  0  0  0  0  0
    1.1560   -4.0816   -3.8294 C   0  0  0  0  0  0  0  0  0  0  0  0
    2.0381   -4.5275   -3.3630 H   0  0  0  0  0  0  0  0  0  0  0  0
    0.2846   -4.7008   -3.5982 H   0  0  0  0  0  0  0  0  0  0  0  0
    1.2952   -4.0626   -4.9130 H   0  0  0  0  0  0  0  0  0  0  0  0
    1.9295   -1.7200   -3.5156 N   0  0  0  0  0  0  0  0  0  0  0  0
    1.9205   -0.3450   -2.9826 C   0  0  2  0  0  0  0  0  0  0  0  0
    1.8832   -0.2938   -1.4370 C   0  0  0  0  0  0  0  0  0  0  0  0
    2.9506   -0.2852   -0.8469 O   0  0  0  0  0  0  0  0  0  0  0  0
    0.8000    0.4827   -3.6329 C   0  0  0  0  0  0  0  0  0  0  0  0
    2.7893   -2.0501   -3.9453 H   0  0  0  0  0  0  0  0  0  0  0  0
    2.8658    0.1262   -3.2720 H   0  0  0  0  0  0  0  0  0  0  0  0
   -0.1893    0.0865   -3.3886 H   0  0  0  0  0  0  0  0  0  0  0  0
    0.8496    1.5198   -3.2866 H   0  0  0  0  0  0  0  0  0  0  0  0
    0.9122    0.4771   -4.7213 H   0  0  0  0  0  0  0  0  0  0  0  0
    0.6710   -0.3450   -0.7653 N   0  0  0  0  0  0  0  0  0  0  0  0
    0.4246   -0.5030    0.6842 C   0  0  2  0  0  0  0  0  0  0  0  0
    1.6094   -0.9856    1.5647 C   0  0  0  0  0  0  0  0  0  0  0  0
    2.3127   -0.1474    2.1161 O   0  0  0  0  0  0  0  0  0  0  0  0
   -0.8510   -1.3489    0.9300 C   0  0  0  0  0  0  0  0  0  0  0  0
   -2.2077   -0.7339    0.4907 C   0  0  0  0  0  0  0  0  0  0  0  0
   -3.3007   -1.7929    0.6890 C   0  0  0  0  0  0  0  0  0  0  0  0
   -2.2993   -0.2253   -0.9548 C   0  0  0  0  0  0  0  0  0  0  0  0
   -0.0959   -0.6297   -1.3757 H   0  0  0  0  0  0  0  0  0  0  0  0
    0.2069    0.5011    1.0627 H   0  0  0  0  0  0  0  0  0  0  0  0
   -0.9269   -1.5584    2.0029 H   0  0  0  0  0  0  0  0  0  0  0  0
   -0.7218   -2.3071    0.4147 H   0  0  0  0  0  0  0  0  0  0  0  0
   -2.4209    0.1137    1.1514 H   0  0  0  0  0  0  0  0  0  0  0  0
   -3.1405   -2.6438    0.0190 H   0  0  0  0  0  0  0  0  0  0  0  0
   -4.2883   -1.3692    0.4805 H   0  0  0  0  0  0  0  0  0  0  0  0
   -3.2988   -2.1577    1.7210 H   0  0  0  0  0  0  0  0  0  0  0  0
   -2.0132   -1.0091   -1.6605 H   0  0  0  0  0  0  0  0  0  0  0  0
   -3.3251    0.0804   -1.1839 H   0  0  0  0  0  0  0  0  0  0  0  0
   -1.6602    0.6492   -1.1023 H   0  0  0  0  0  0  0  0  0  0  0  0
    1.6485   -2.2915    2.0347 N   0  0  0  0  0  0  0  0  0  0  0  0
    2.6810   -2.8973    2.9021 C   0  0  2  0  0  0  0  0  0  0  0  0
    2.6421   -2.4537    4.3826 C   0  0  0  0  0  0  0  0  0  0  0  0
    2.6609   -3.3039    5.2640 O   0  0  0  0  0  0  0  0  0  0  0  0
    4.0836   -2.6991    2.3090 C   0  0  0  0  0  0  0  0  0  0  0  0
    0.9957   -2.9255    1.5850 H   0  0  0  0  0  0  0  0  0  0  0  0
    2.4907   -3.9753    2.9102 H   0  0  0  0  0  0  0  0  0  0  0  0
    4.3907   -1.6501    2.3575 H   0  0  0  0  0  0  0  0  0  0  0  0
    4.8138   -3.2935    2.8668 H   0  0  0  0  0  0  0  0  0  0  0  0
    4.1036   -3.0177    1.2624 H   0  0  0  0  0  0  0  0  0  0  0  0
    2.5962   -1.1205    4.7344 N   0  0  0  0  0  0  0  0  0  0  0  0
    2.6002   -0.6312    6.1050 C   0  0  0  0  0  0  0  0  0  0  0  0
    2.6018   -0.4525    3.9573 H   0  0  0  0  0  0  0  0  0  0  0  0
    3.5209   -0.9320    6.6156 H   0  0  0  0  0  0  0  0  0  0  0  0
    2.5393    0.4613    6.1141 H   0  0  0  0  0  0  0  0  0  0  0  0
    1.7429   -1.0303    6.6568 H   0  0  0  0  0  0  0  0  0  0  0  0
  1  2  2  0  0  0  0
  1  3  1  0  0  0  0
  1  7  1  0  0  0  0
  3  4  1  0  0  0  0
  3  5  1  0  0  0  0
  3  6  1  0  0  0  0
  7  8  1  0  0  0  0
  7 12  1  0  0  0  0
  8  9  1  0  0  0  0
  8 11  1  0  0  0  0
  8 13  1  0  0  0  0
  9 10  2  0  0  0  0
  9 17  1  0  0  0  0
 11 14  1  0  0  0  0
 11 15  1  0  0  0  0
 11 16  1  0  0  0  0
 17 18  1  0  0  0  0
 17 25  1  0  0  0  0
 18 19  1  0  0  0  0
 18 21  1  0  0  0  0
 18 26  1  0  0  0  0
 19 20  2  0  0  0  0
 19 36  1  0  0  0  0
 21 22  1  0  0  0  0
 21 27  1  0  0  0  0
 21 28  1  0  0  0  0
 22 23  1  0  0  0  0
 22 24  1  0  0  0  0
 22 29  1  0  0  0  0
 23 30  1  0  0  0  0
 23 31  1  0  0  0  0
 23 32  1  0  0  0  0
 24 33  1  0  0  0  0
 24 34  1  0  0  0  0
 24 35  1  0  0  0  0
 36 37  1  0  0  0  0
 36 41  1  0  0  0  0
 37 38  1  0  0  0  0
 37 40  1  0  0  0  0
 37 42  1  0  0  0  0
 38 39  2  0  0  0  0
 38 46  1  0  0  0  0
 40 43  1  0  0  0  0
 40 44  1  0  0  0  0
 40 45  1  0  0  0  0
 46 47  1  0  0  0  0
 46 48  1  0  0  0  0
 47 49  1  0  0  0  0
 47 50  1  0  0  0  0
 47 51  1  0  0  0  0
M  END
$$$$

  -OEChem-05262216553D

 51 50  0     1  0  0  0  0  0999 V2000
    1.8312   -2.8232   -2.2747 C   0  0  0  0  0  0  0  0  0  0  0  0
    0.8439   -2.8019   -1.5508 O   0  0  0  0  0  0  0  0  0  0  0  0
    2.7056   -4.0623   -2.3043 C   0  0  0  0  0  0  0  0  0  0  0  0
    3.7360   -3.8002   -2.0512 H   0  0  0  0  0  0  0  0  0  0  0  0
    2.3440   -4.7993   -1.5815 H   0  0  0  0  0  0  0  0  0  0  0  0
    2.6856   -4.5084   -3.3016 H   0  0  0  0  0  0  0  0  0  0  0  0
    2.1881   -1.7243   -3.0361 N   0  0  0  0  0  0  0  0  0  0  0  0
    1.5401   -0.4007   -2.9710 C   0  0  2  0  0  0  0  0  0  0  0  0
    1.5073    0.1585   -1.5297 C   0  0  0  0  0  0  0  0  0  0  0  0
    2.5671    0.4706   -1.0106 O   0  0  0  0  0  0  0  0  0  0  0  0
    0.1573   -0.4667   -3.6398 C   0  0  0  0  0  0  0  0  0  0  0  0
    3.0990   -1.7760   -3.4843 H   0  0  0  0  0  0  0  0  0  0  0  0
    2.1462    0.3041   -3.5494 H   0  0  0  0  0  0  0  0  0  0  0  0
   -0.5044   -1.1666   -3.1210 H   0  0  0  0  0  0  0  0  0  0  0  0
   -0.3120    0.5222   -3.6404 H   0  0  0  0  0  0  0  0  0  0  0  0
    0.2592   -0.7993   -4.6772 H   0  0  0  0  0  0  0  0  0  0  0  0
    0.3248    0.1471   -0.8079 N   0  0  0  0  0  0  0  0  0  0  0  0
    0.2059   -0.1558    0.6315 C   0  0  2  0  0  0  0  0  0  0  0  0
    1.4467   -0.8286    1.2743 C   0  0  0  0  0  0  0  0  0  0  0  0
    2.1347   -0.1867    2.0592 O   0  0  0  0  0  0  0  0  0  0  0  0
   -1.0711   -0.9853    0.9195 C   0  0  0  0  0  0  0  0  0  0  0  0
   -2.4374   -0.2913    0.6791 C   0  0  0  0  0  0  0  0  0  0  0  0
   -3.5460   -1.3330    0.8826 C   0  0  0  0  0  0  0  0  0  0  0  0
   -2.6334    0.3315   -0.7116 C   0  0  0  0  0  0  0  0  0  0  0  0
   -0.4558   -0.1943   -1.3596 H   0  0  0  0  0  0  0  0  0  0  0  0
    0.0970    0.8026    1.1501 H   0  0  0  0  0  0  0  0  0  0  0  0
   -1.0431   -1.2987    1.9693 H   0  0  0  0  0  0  0  0  0  0  0  0
   -1.0322   -1.8936    0.3085 H   0  0  0  0  0  0  0  0  0  0  0  0
   -2.5566    0.5020    1.4251 H   0  0  0  0  0  0  0  0  0  0  0  0
   -3.4807   -2.1222    0.1266 H   0  0  0  0  0  0  0  0  0  0  0  0
   -4.5321   -0.8631    0.8102 H   0  0  0  0  0  0  0  0  0  0  0  0
   -3.4614   -1.7927    1.8725 H   0  0  0  0  0  0  0  0  0  0  0  0
   -2.3946   -0.3917   -1.4973 H   0  0  0  0  0  0  0  0  0  0  0  0
   -3.6728    0.6493   -0.8432 H   0  0  0  0  0  0  0  0  0  0  0  0
   -2.0052    1.2186   -0.8320 H   0  0  0  0  0  0  0  0  0  0  0  0
    1.5362   -2.2123    1.2779 N   0  0  0  0  0  0  0  0  0  0  0  0
    2.6454   -3.0218    1.8216 C   0  0  2  0  0  0  0  0  0  0  0  0
    2.7033   -3.1217    3.3629 C   0  0  0  0  0  0  0  0  0  0  0  0
    2.9620   -4.2000    3.8833 O   0  0  0  0  0  0  0  0  0  0  0  0
    3.9943   -2.5541    1.2560 C   0  0  0  0  0  0  0  0  0  0  0  0
    0.9837   -2.6467    0.5357 H   0  0  0  0  0  0  0  0  0  0  0  0
    2.4857   -4.0441    1.4648 H   0  0  0  0  0  0  0  0  0  0  0  0
    4.2814   -1.5830    1.6707 H   0  0  0  0  0  0  0  0  0  0  0  0
    4.7768   -3.2765    1.5081 H   0  0  0  0  0  0  0  0  0  0  0  0
    3.9422   -2.4625    0.1674 H   0  0  0  0  0  0  0  0  0  0  0  0
    2.5038   -2.0172    4.1654 N   0  0  0  0  0  0  0  0  0  0  0  0
    2.6609   -2.0200    5.6123 C   0  0  0  0  0  0  0  0  0  0  0  0
    2.3924   -1.1262    3.6723 H   0  0  0  0  0  0  0  0  0  0  0  0
    3.6881   -2.2833    5.8852 H   0  0  0  0  0  0  0  0  0  0  0  0
    2.4374   -1.0279    6.0162 H   0  0  0  0  0  0  0  0  0  0  0  0
    1.9769   -2.7421    6.0703 H   0  0  0  0  0  0  0  0  0  0  0  0
  1  2  2  0  0  0  0
  1  3  1  0  0  0  0
  1  7  1  0  0  0  0
  3  4  1  0  0  0  0
  3  5  1  0  0  0  0
  3  6  1  0  0  0  0
  7  8  1  0  0  0  0
  7 12  1  0  0  0  0
  8  9  1  0  0  0  0
  8 11  1  0  0  0  0
  8 13  1  0  0  0  0
  9 10  2  0  0  0  0
  9 17  1  0  0  0  0
 11 14  1  0  0  0  0
 11 15  1  0  0  0  0
 11 16  1  0  0  0  0
 17 18  1  0  0  0  0
 17 25  1  0  0  0  0
 18 19  1  0  0  0  0
 18 21  1  0  0  0  0
 18 26  1  0  0  0  0
 19 20  2  0  0  0  0
 19 36  1  0  0  0  0
 21 22  1  0  0  0  0
 21 27  1  0  0  0  0
 21 28  1  0  0  0  0
 22 23  1  0  0  0  0
 22 24  1  0  0  0  0
 22 29  1  0  0  0  0
 23 30  1  0  0  0  0
 23 31  1  0  0  0  0
 23 32  1  0  0  0  0
 24 33  1  0  0  0  0
 24 34  1  0  0  0  0
 24 35  1  0  0  0  0
 36 37  1  0  0  0  0
 36 41  1  0  0  0  0
 37 38  1  0  0  0  0
 37 40  1  0  0  0  0
 37 42  1  0  0  0  0
 38 39  2  0  0  0  0
 38 46  1  0  0  0  0
 40 43  1  0  0  0  0
 40 44  1  0  0  0  0
 40 45  1  0  0  0  0
 46 47  1  0  0  0  0
 46 48  1  0  0  0  0
 47 49  1  0  0  0  0
 47 50  1  0  0  0  0
 47 51  1  0  0  0  0
M  END
$$$$

  -OEChem-05262216553D

 51 50  0     1  0  0  0  0  0999 V2000
    1.7654   -2.8871   -2.4126 C   0  0  0  0  0  0  0  0  0  0  0  0
    0.8203   -2.8808   -1.6344 O   0  0  0  0  0  0  0  0  0  0  0  0
    2.6575   -4.1114   -2.4933 C   0  0  0  0  0  0  0  0  0  0  0  0
    3.6669   -3.8602   -2.1573 H   0  0  0  0  0  0  0  0  0  0  0  0
    2.2642   -4.9096   -1.8569 H   0  0  0  0  0  0  0  0  0  0  0  0
    2.7032   -4.4746   -3.5231 H   0  0  0  0  0  0  0  0  0  0  0  0
    2.0685   -1.7728   -3.1740 N   0  0  0  0  0  0  0  0  0  0  0  0
    1.4131   -0.4583   -3.0398 C   0  0  2  0  0  0  0  0  0  0  0  0
    1.4460    0.0598   -1.5824 C   0  0  0  0  0  0  0  0  0  0  0  0
    2.5315    0.3330   -1.0936 O   0  0  0  0  0  0  0  0  0  0  0  0
    0.0004   -0.5195   -3.6436 C   0  0  0  0  0  0  0  0  0  0  0  0
    2.9541   -1.8057   -3.6718 H   0  0  0  0  0  0  0  0  0  0  0  0
    1.9843    0.2686   -3.6261 H   0  0  0  0  0  0  0  0  0  0  0  0
   -0.6292   -1.2397   -3.1126 H   0  0  0  0  0  0  0  0  0  0  0  0
   -0.4766    0.4644   -3.5956 H   0  0  0  0  0  0  0  0  0  0  0  0
    0.0547   -0.8230   -4.6935 H   0  0  0  0  0  0  0  0  0  0  0  0
    0.2890    0.0844   -0.8193 N   0  0  0  0  0  0  0  0  0  0  0  0
    0.2109   -0.1526    0.6363 C   0  0  2  0  0  0  0  0  0  0  0  0
    1.4614   -0.8006    1.2786 C   0  0  0  0  0  0  0  0  0  0  0  0
    2.0524   -0.2106    2.1754 O   0  0  0  0  0  0  0  0  0  0  0  0
   -1.0417   -0.9881    0.9971 C   0  0  0  0  0  0  0  0  0  0  0  0
   -2.4263   -0.3301    0.7608 C   0  0  0  0  0  0  0  0  0  0  0  0
   -3.5102   -1.3792    1.0430 C   0  0  0  0  0  0  0  0  0  0  0  0
   -2.6684    0.2204   -0.6526 C   0  0  0  0  0  0  0  0  0  0  0  0
   -0.5248   -0.2356   -1.3350 H   0  0  0  0  0  0  0  0  0  0  0  0
    0.1077    0.8263    1.1165 H   0  0  0  0  0  0  0  0  0  0  0  0
   -0.9792   -1.2524    2.0589 H   0  0  0  0  0  0  0  0  0  0  0  0
   -1.0003   -1.9236    0.4285 H   0  0  0  0  0  0  0  0  0  0  0  0
   -2.5404    0.4960    1.4711 H   0  0  0  0  0  0  0  0  0  0  0  0
   -3.4448   -2.2073    0.3297 H   0  0  0  0  0  0  0  0  0  0  0  0
   -4.5064   -0.9322    0.9658 H   0  0  0  0  0  0  0  0  0  0  0  0
   -3.3974   -1.7827    2.0543 H   0  0  0  0  0  0  0  0  0  0  0  0
   -2.4366   -0.5369   -1.4078 H   0  0  0  0  0  0  0  0  0  0  0  0
   -3.7159    0.5144   -0.7726 H   0  0  0  0  0  0  0  0  0  0  0  0
   -2.0593    1.1108   -0.8314 H   0  0  0  0  0  0  0  0  0  0  0  0
    1.6939   -2.1515    1.0712 N   0  0  0  0  0  0  0  0  0  0  0  0
    2.8603   -2.9276    1.5358 C   0  0  2  0  0  0  0  0  0  0  0  0
    2.8834   -3.2537    3.0462 C   0  0  0  0  0  0  0  0  0  0  0  0
    3.2363   -4.3682    3.4127 O   0  0  0  0  0  0  0  0  0  0  0  0
    4.1691   -2.2536    1.1017 C   0  0  0  0  0  0  0  0  0  0  0  0
    1.1796   -2.5367    0.2749 H   0  0  0  0  0  0  0  0  0  0  0  0
    2.8137   -3.8945    1.0250 H   0  0  0  0  0  0  0  0  0  0  0  0
    4.3384   -1.3265    1.6575 H   0  0  0  0  0  0  0  0  0  0  0  0
    5.0153   -2.9220    1.2882 H   0  0  0  0  0  0  0  0  0  0  0  0
    4.1398   -2.0168    0.0339 H   0  0  0  0  0  0  0  0  0  0  0  0
    2.5418   -2.3107    3.9939 N   0  0  0  0  0  0  0  0  0  0  0  0
    2.6372   -2.5250    5.4303 C   0  0  0  0  0  0  0  0  0  0  0  0
    2.3516   -1.3703    3.6352 H   0  0  0  0  0  0  0  0  0  0  0  0
    3.6726   -2.7349    5.7175 H   0  0  0  0  0  0  0  0  0  0  0  0
    2.3018   -1.6323    5.9669 H   0  0  0  0  0  0  0  0  0  0  0  0
    2.0078   -3.3680    5.7343 H   0  0  0  0  0  0  0  0  0  0  0  0
  1  2  2  0  0  0  0
  1  3  1  0  0  0  0
  1  7  1  0  0  0  0
  3  4  1  0  0  0  0
  3  5  1  0  0  0  0
  3  6  1  0  0  0  0
  7  8  1  0  0  0  0
  7 12  1  0  0  0  0
  8  9  1  0  0  0  0
  8 11  1  0  0  0  0
  8 13  1  0  0  0  0
  9 10  2  0  0  0  0
  9 17  1  0  0  0  0
 11 14  1  0  0  0  0
 11 15  1  0  0  0  0
 11 16  1  0  0  0  0
 17 18  1  0  0  0  0
 17 25  1  0  0  0  0
 18 19  1  0  0  0  0
 18 21  1  0  0  0  0
 18 26  1  0  0  0  0
 19 20  2  0  0  0  0
 19 36  1  0  0  0  0
 21 22  1  0  0  0  0
 21 27  1  0  0  0  0
 21 28  1  0  0  0  0
 22 23  1  0  0  0  0
 22 24  1  0  0  0  0
 22 29  1  0  0  0  0
 23 30  1  0  0  0  0
 23 31  1  0  0  0  0
 23 32  1  0  0  0  0
 24 33  1  0  0  0  0
 24 34  1  0  0  0  0
 24 35  1  0  0  0  0
 36 37  1  0  0  0  0
 36 41  1  0  0  0  0
 37 38  1  0  0  0  0
 37 40  1  0  0  0  0
 37 42  1  0  0  0  0
 38 39  2  0  0  0  0
 38 46  1  0  0  0  0
 40 43  1  0  0  0  0
 40 44  1  0  0  0  0
 40 45  1  0  0  0  0
 46 47  1  0  0  0  0
 46 48  1  0  0  0  0
 47 49  1  0  0  0  0
 47 50  1  0  0  0  0
 47 51  1  0  0  0  0
M  END
$$$$

  -OEChem-05262216553D

 51 50  0     1  0  0  0  0  0999 V2000
    1.7778   -2.8892   -2.5634 C   0  0  0  0  0  0  0  0  0  0  0  0
    0.8642   -2.9124   -1.7495 O   0  0  0  0  0  0  0  0  0  0  0  0
    2.6724   -4.1036   -2.7209 C   0  0  0  0  0  0  0  0  0  0  0  0
    3.6900   -3.8607   -2.4046 H   0  0  0  0  0  0  0  0  0  0  0  0
    2.3012   -4.9294   -2.1070 H   0  0  0  0  0  0  0  0  0  0  0  0
    2.6891   -4.4234   -3.7656 H   0  0  0  0  0  0  0  0  0  0  0  0
    2.0460   -1.7432   -3.2890 N   0  0  0  0  0  0  0  0  0  0  0  0
    1.3741   -0.4461   -3.0864 C   0  0  2  0  0  0  0  0  0  0  0  0
    1.4314    0.0169   -1.6110 C   0  0  0  0  0  0  0  0  0  0  0  0
    2.5232    0.2860   -1.1336 O   0  0  0  0  0  0  0  0  0  0  0  0
   -0.0511   -0.5068   -3.6594 C   0  0  0  0  0  0  0  0  0  0  0  0
    2.9119   -1.7470   -3.8215 H   0  0  0  0  0  0  0  0  0  0  0  0
    1.9201    0.3124   -3.6565 H   0  0  0  0  0  0  0  0  0  0  0  0
   -0.6581   -1.2533   -3.1383 H   0  0  0  0  0  0  0  0  0  0  0  0
   -0.5400    0.4682   -3.5672 H   0  0  0  0  0  0  0  0  0  0  0  0
   -0.0168   -0.7739   -4.7201 H   0  0  0  0  0  0  0  0  0  0  0  0
    0.2867    0.0577   -0.8297 N   0  0  0  0  0  0  0  0  0  0  0  0
    0.2276   -0.1569    0.6318 C   0  0  2  0  0  0  0  0  0  0  0  0
    1.4722   -0.8020    1.2872 C   0  0  0  0  0  0  0  0  0  0  0  0
    1.9516   -0.3036    2.2991 O   0  0  0  0  0  0  0  0  0  0  0  0
   -1.0102   -1.0041    1.0129 C   0  0  0  0  0  0  0  0  0  0  0  0
   -2.4078   -0.3736    0.7802 C   0  0  0  0  0  0  0  0  0  0  0  0
   -3.4695   -1.4390    1.0863 C   0  0  0  0  0  0  0  0  0  0  0  0
   -2.6730    0.1580   -0.6361 C   0  0  0  0  0  0  0  0  0  0  0  0
   -0.5411   -0.2491   -1.3308 H   0  0  0  0  0  0  0  0  0  0  0  0
    0.1235    0.8281    1.0987 H   0  0  0  0  0  0  0  0  0  0  0  0
   -0.9366   -1.2550    2.0774 H   0  0  0  0  0  0  0  0  0  0  0  0
   -0.9559   -1.9464    0.4563 H   0  0  0  0  0  0  0  0  0  0  0  0
   -2.5303    0.4583    1.4824 H   0  0  0  0  0  0  0  0  0  0  0  0
   -3.3948   -2.2753    0.3834 H   0  0  0  0  0  0  0  0  0  0  0  0
   -4.4747   -1.0121    1.0126 H   0  0  0  0  0  0  0  0  0  0  0  0
   -3.3398   -1.8268    2.1018 H   0  0  0  0  0  0  0  0  0  0  0  0
   -2.4395   -0.6040   -1.3859 H   0  0  0  0  0  0  0  0  0  0  0  0
   -3.7260    0.4362   -0.7465 H   0  0  0  0  0  0  0  0  0  0  0  0
   -2.0783    1.0548   -0.8314 H   0  0  0  0  0  0  0  0  0  0  0  0
    1.8705   -2.0626    0.8701 N   0  0  0  0  0  0  0  0  0  0  0  0
    3.0571   -2.8185    1.3134 C   0  0  2  0  0  0  0  0  0  0  0  0
    2.9842   -3.3834    2.7504 C   0  0  0  0  0  0  0  0  0  0  0  0
    3.3407   -4.5365    2.9603 O   0  0  0  0  0  0  0  0  0  0  0  0
    4.3334   -1.9903    1.1140 C   0  0  0  0  0  0  0  0  0  0  0  0
    1.3982   -2.3964    0.0261 H   0  0  0  0  0  0  0  0  0  0  0  0
    3.1342   -3.6894    0.6552 H   0  0  0  0  0  0  0  0  0  0  0  0
    4.3678   -1.1454    1.8082 H   0  0  0  0  0  0  0  0  0  0  0  0
    5.2162   -2.6131    1.2884 H   0  0  0  0  0  0  0  0  0  0  0  0
    4.3792   -1.6013    0.0923 H   0  0  0  0  0  0  0  0  0  0  0  0
    2.5497   -2.6112    3.8088 N   0  0  0  0  0  0  0  0  0  0  0  0
    2.5138   -3.0611    5.1929 C   0  0  0  0  0  0  0  0  0  0  0  0
    2.3227   -1.6374    3.5870 H   0  0  0  0  0  0  0  0  0  0  0  0
    3.5222   -3.3039    5.5435 H   0  0  0  0  0  0  0  0  0  0  0  0
    2.1036   -2.2747    5.8339 H   0  0  0  0  0  0  0  0  0  0  0  0
    1.8824   -3.9503    5.2895 H   0  0  0  0  0  0  0  0  0  0  0  0
  1  2  2  0  0  0  0
  1  3  1  0  0  0  0
  1  7  1  0  0  0  0
  3  4  1  0  0  0  0
  3  5  1  0  0  0  0
  3  6  1  0  0  0  0
  7  8  1  0  0  0  0
  7 12  1  0  0  0  0
  8  9  1  0  0  0  0
  8 11  1  0  0  0  0
  8 13  1  0  0  0  0
  9 10  2  0  0  0  0
  9 17  1  0  0  0  0
 11 14  1  0  0  0  0
 11 15  1  0  0  0  0
 11 16  1  0  0  0  0
 17 18  1  0  0  0  0
 17 25  1  0  0  0  0
 18 19  1  0  0  0  0
 18 21  1  0  0  0  0
 18 26  1  0  0  0  0
 19 20  2  0  0  0  0
 19 36  1  0  0  0  0
 21 22  1  0  0  0  0
 21 27  1  0  0  0  0
 21 28  1  0  0  0  0
 22 23  1  0  0  0  0
 22 24  1  0  0  0  0
 22 29  1  0  0  0  0
 23 30  1  0  0  0  0
 23 31  1  0  0  0  0
 23 32  1  0  0  0  0
 24 33  1  0  0  0  0
 24 34  1  0  0  0  0
 24 35  1  0  0  0  0
 36 37  1  0  0  0  0
 36 41  1  0  0  0  0
 37 38  1  0  0  0  0
 37 40  1  0  0  0  0
 37 42  1  0  0  0  0
 38 39  2  0  0  0  0
 38 46  1  0  0  0  0
 40 43  1  0  0  0  0
 40 44  1  0  0  0  0
 40 45  1  0  0  0  0
 46 47  1  0  0  0  0
 46 48  1  0  0  0  0
 47 49  1  0  0  0  0
 47 50  1  0  0  0  0
 47 51  1  0  0  0  0
M  END
$$$$

  -OEChem-05262216553D

 51 50  0     1  0  0  0  0  0999 V2000
    1.9443   -2.8606   -2.7393 C   0  0  0  0  0  0  0  0  0  0  0  0
    1.0996   -2.9803   -1.8625 O   0  0  0  0  0  0  0  0  0  0  0  0
    2.9394   -3.9785   -2.9842 C   0  0  0  0  0  0  0  0  0  0  0  0
    3.9468   -3.6437   -2.7240 H   0  0  0  0  0  0  0  0  0  0  0  0
    2.6887   -4.8488   -2.3705 H   0  0  0  0  0  0  0  0  0  0  0  0
    2.9213   -4.2742   -4.0361 H   0  0  0  0  0  0  0  0  0  0  0  0
    2.0431   -1.6831   -3.4567 N   0  0  0  0  0  0  0  0  0  0  0  0
    1.2613   -0.4665   -3.1688 C   0  0  2  0  0  0  0  0  0  0  0  0
    1.3790   -0.0338   -1.6870 C   0  0  0  0  0  0  0  0  0  0  0  0
    2.4847    0.2478   -1.2501 O   0  0  0  0  0  0  0  0  0  0  0  0
   -0.1884   -0.6648   -3.6413 C   0  0  0  0  0  0  0  0  0  0  0  0
    2.8660   -1.5885   -4.0458 H   0  0  0  0  0  0  0  0  0  0  0  0
    1.6844    0.3563   -3.7540 H   0  0  0  0  0  0  0  0  0  0  0  0
   -0.6842   -1.4604   -3.0767 H   0  0  0  0  0  0  0  0  0  0  0  0
   -0.7598    0.2605   -3.5176 H   0  0  0  0  0  0  0  0  0  0  0  0
   -0.2036   -0.9369   -4.7012 H   0  0  0  0  0  0  0  0  0  0  0  0
    0.2669    0.0264   -0.8622 N   0  0  0  0  0  0  0  0  0  0  0  0
    0.2499   -0.1720    0.6040 C   0  0  2  0  0  0  0  0  0  0  0  0
    1.4892   -0.8251    1.2678 C   0  0  0  0  0  0  0  0  0  0  0  0
    1.8384   -0.4418    2.3786 O   0  0  0  0  0  0  0  0  0  0  0  0
   -0.9875   -1.0049    1.0170 C   0  0  0  0  0  0  0  0  0  0  0  0
   -2.3852   -0.3636    0.8116 C   0  0  0  0  0  0  0  0  0  0  0  0
   -3.4484   -1.4184    1.1479 C   0  0  0  0  0  0  0  0  0  0  0  0
   -2.6825    0.1623   -0.6007 C   0  0  0  0  0  0  0  0  0  0  0  0
   -0.5882   -0.2537   -1.3316 H   0  0  0  0  0  0  0  0  0  0  0  0
    0.1642    0.8199    1.0598 H   0  0  0  0  0  0  0  0  0  0  0  0
   -0.8959   -1.2486    2.0819 H   0  0  0  0  0  0  0  0  0  0  0  0
   -0.9504   -1.9524    0.4675 H   0  0  0  0  0  0  0  0  0  0  0  0
   -2.4840    0.4734    1.5116 H   0  0  0  0  0  0  0  0  0  0  0  0
   -3.4034   -2.2544    0.4425 H   0  0  0  0  0  0  0  0  0  0  0  0
   -4.4507   -0.9808    1.1042 H   0  0  0  0  0  0  0  0  0  0  0  0
   -3.2927   -1.8089    2.1585 H   0  0  0  0  0  0  0  0  0  0  0  0
   -2.4761   -0.6062   -1.3519 H   0  0  0  0  0  0  0  0  0  0  0  0
   -3.7358    0.4490   -0.6850 H   0  0  0  0  0  0  0  0  0  0  0  0
   -2.0856    1.0528   -0.8173 H   0  0  0  0  0  0  0  0  0  0  0  0
    2.0747   -1.9483    0.7044 N   0  0  0  0  0  0  0  0  0  0  0  0
    3.2890   -2.6543    1.1545 C   0  0  2  0  0  0  0  0  0  0  0  0
    3.1317   -3.4594    2.4635 C   0  0  0  0  0  0  0  0  0  0  0  0
    3.5756   -4.5995    2.5278 O   0  0  0  0  0  0  0  0  0  0  0  0
    4.4792   -1.6898    1.2430 C   0  0  0  0  0  0  0  0  0  0  0  0
    1.6770   -2.2359   -0.1926 H   0  0  0  0  0  0  0  0  0  0  0  0
    3.5285   -3.3880    0.3787 H   0  0  0  0  0  0  0  0  0  0  0  0
    4.3559   -0.9844    2.0699 H   0  0  0  0  0  0  0  0  0  0  0  0
    5.4052   -2.2494    1.4076 H   0  0  0  0  0  0  0  0  0  0  0  0
    4.5767   -1.1209    0.3131 H   0  0  0  0  0  0  0  0  0  0  0  0
    2.5178   -2.9132    3.5721 N   0  0  0  0  0  0  0  0  0  0  0  0
    2.3719   -3.5953    4.8492 C   0  0  0  0  0  0  0  0  0  0  0  0
    2.2123   -1.9404    3.4788 H   0  0  0  0  0  0  0  0  0  0  0  0
    3.3538   -3.8416    5.2665 H   0  0  0  0  0  0  0  0  0  0  0  0
    1.8435   -2.9528    5.5600 H   0  0  0  0  0  0  0  0  0  0  0  0
    1.7980   -4.5194    4.7250 H   0  0  0  0  0  0  0  0  0  0  0  0
  1  2  2  0  0  0  0
  1  3  1  0  0  0  0
  1  7  1  0  0  0  0
  3  4  1  0  0  0  0
  3  5  1  0  0  0  0
  3  6  1  0  0  0  0
  7  8  1  0  0  0  0
  7 12  1  0  0  0  0
  8  9  1  0  0  0  0
  8 11  1  0  0  0  0
  8 13  1  0  0  0  0
  9 10  2  0  0  0  0
  9 17  1  0  0  0  0
 11 14  1  0  0  0  0
 11 15  1  0  0  0  0
 11 16  1  0  0  0  0
 17 18  1  0  0  0  0
 17 25  1  0  0  0  0
 18 19  1  0  0  0  0
 18 21  1  0  0  0  0
 18 26  1  0  0  0  0
 19 20  2  0  0  0  0
 19 36  1  0  0  0  0
 21 22  1  0  0  0  0
 21 27  1  0  0  0  0
 21 28  1  0  0  0  0
 22 23  1  0  0  0  0
 22 24  1  0  0  0  0
 22 29  1  0  0  0  0
 23 30  1  0  0  0  0
 23 31  1  0  0  0  0
 23 32  1  0  0  0  0
 24 33  1  0  0  0  0
 24 34  1  0  0  0  0
 24 35  1  0  0  0  0
 36 37  1  0  0  0  0
 36 41  1  0  0  0  0
 37 38  1  0  0  0  0
 37 40  1  0  0  0  0
 37 42  1  0  0  0  0
 38 39  2  0  0  0  0
 38 46  1  0  0  0  0
 40 43  1  0  0  0  0
 40 44  1  0  0  0  0
 40 45  1  0  0  0  0
 46 47  1  0  0  0  0
 46 48  1  0  0  0  0
 47 49  1  0  0  0  0
 47 50  1  0  0  0  0
 47 51  1  0  0  0  0
M  END
$$$$

  -OEChem-05262216553D

 51 50  0     1  0  0  0  0  0999 V2000
    2.1810   -2.7929   -2.9107 C   0  0  0  0  0  0  0  0  0  0  0  0
    1.4274   -3.0350   -1.9785 O   0  0  0  0  0  0  0  0  0  0  0  0
    3.3006   -3.7583   -3.2494 C   0  0  0  0  0  0  0  0  0  0  0  0
    4.2689   -3.2711   -3.1101 H   0  0  0  0  0  0  0  0  0  0  0  0
    3.2526   -4.6357   -2.5976 H   0  0  0  0  0  0  0  0  0  0  0  0
    3.2106   -4.0866   -4.2877 H   0  0  0  0  0  0  0  0  0  0  0  0
    2.0566   -1.6085   -3.6126 N   0  0  0  0  0  0  0  0  0  0  0  0
    1.1356   -0.5197   -3.2374 C   0  0  2  0  0  0  0  0  0  0  0  0
    1.3077   -0.0923   -1.7587 C   0  0  0  0  0  0  0  0  0  0  0  0
    2.4229    0.2175   -1.3665 O   0  0  0  0  0  0  0  0  0  0  0  0
   -0.3041   -0.9204   -3.5997 C   0  0  0  0  0  0  0  0  0  0  0  0
    2.8173   -1.3880   -4.2495 H   0  0  0  0  0  0  0  0  0  0  0  0
    1.3891    0.3610   -3.8356 H   0  0  0  0  0  0  0  0  0  0  0  0
   -0.6481   -1.7578   -2.9843 H   0  0  0  0  0  0  0  0  0  0  0  0
   -0.9843   -0.0757   -3.4534 H   0  0  0  0  0  0  0  0  0  0  0  0
   -0.3566   -1.2223   -4.6502 H   0  0  0  0  0  0  0  0  0  0  0  0
    0.2296   -0.0053   -0.8938 N   0  0  0  0  0  0  0  0  0  0  0  0
    0.2482   -0.2058    0.5738 C   0  0  2  0  0  0  0  0  0  0  0  0
    1.4692   -0.8942    1.2461 C   0  0  0  0  0  0  0  0  0  0  0  0
    1.6985   -0.6428    2.4240 O   0  0  0  0  0  0  0  0  0  0  0  0
   -1.0120   -0.9968    1.0048 C   0  0  0  0  0  0  0  0  0  0  0  0
   -2.3910   -0.3056    0.8315 C   0  0  0  0  0  0  0  0  0  0  0  0
   -3.4835   -1.3255    1.1815 C   0  0  0  0  0  0  0  0  0  0  0  0
   -2.7002    0.2416   -0.5702 C   0  0  0  0  0  0  0  0  0  0  0  0
   -0.6490   -0.2587   -1.3338 H   0  0  0  0  0  0  0  0  0  0  0  0
    0.1998    0.7898    1.0269 H   0  0  0  0  0  0  0  0  0  0  0  0
   -0.9137   -1.2500    2.0667 H   0  0  0  0  0  0  0  0  0  0  0  0
   -1.0167   -1.9422    0.4506 H   0  0  0  0  0  0  0  0  0  0  0  0
   -2.4465    0.5283    1.5397 H   0  0  0  0  0  0  0  0  0  0  0  0
   -3.4781   -2.1605    0.4734 H   0  0  0  0  0  0  0  0  0  0  0  0
   -4.4709   -0.8540    1.1560 H   0  0  0  0  0  0  0  0  0  0  0  0
   -3.3252   -1.7240    2.1888 H   0  0  0  0  0  0  0  0  0  0  0  0
   -2.5447   -0.5304   -1.3302 H   0  0  0  0  0  0  0  0  0  0  0  0
   -3.7420    0.5729   -0.6267 H   0  0  0  0  0  0  0  0  0  0  0  0
   -2.0725    1.1080   -0.7970 H   0  0  0  0  0  0  0  0  0  0  0  0
    2.2332   -1.8478    0.5927 N   0  0  0  0  0  0  0  0  0  0  0  0
    3.4828   -2.4830    1.0520 C   0  0  2  0  0  0  0  0  0  0  0  0
    3.3299   -3.4789    2.2235 C   0  0  0  0  0  0  0  0  0  0  0  0
    3.9315   -4.5459    2.1909 O   0  0  0  0  0  0  0  0  0  0  0  0
    4.5462   -1.4225    1.3643 C   0  0  0  0  0  0  0  0  0  0  0  0
    1.9391   -2.0554   -0.3637 H   0  0  0  0  0  0  0  0  0  0  0  0
    3.8570   -3.0720    0.2090 H   0  0  0  0  0  0  0  0  0  0  0  0
    4.2836   -0.8509    2.2592 H   0  0  0  0  0  0  0  0  0  0  0  0
    5.5150   -1.9014    1.5359 H   0  0  0  0  0  0  0  0  0  0  0  0
    4.6459   -0.7281    0.5241 H   0  0  0  0  0  0  0  0  0  0  0  0
    2.5522   -3.1809    3.3240 N   0  0  0  0  0  0  0  0  0  0  0  0
    2.4196   -4.0409    4.4908 C   0  0  0  0  0  0  0  0  0  0  0  0
    2.1357   -2.2457    3.3335 H   0  0  0  0  0  0  0  0  0  0  0  0
    3.3913   -4.1793    4.9756 H   0  0  0  0  0  0  0  0  0  0  0  0
    1.7315   -3.5914    5.2129 H   0  0  0  0  0  0  0  0  0  0  0  0
    2.0258   -5.0210    4.2022 H   0  0  0  0  0  0  0  0  0  0  0  0
  1  2  2  0  0  0  0
  1  3  1  0  0  0  0
  1  7  1  0  0  0  0
  3  4  1  0  0  0  0
  3  5  1  0  0  0  0
  3  6  1  0  0  0  0
  7  8  1  0  0  0  0
  7 12  1  0  0  0  0
  8  9  1  0  0  0  0
  8 11  1  0  0  0  0
  8 13  1  0  0  0  0
  9 10  2  0  0  0  0
  9 17  1  0  0  0  0
 11 14  1  0  0  0  0
 11 15  1  0  0  0  0
 11 16  1  0  0  0  0
 17 18  1  0  0  0  0
 17 25  1  0  0  0  0
 18 19  1  0  0  0  0
 18 21  1  0  0  0  0
 18 26  1  0  0  0  0
 19 20  2  0  0  0  0
 19 36  1  0  0  0  0
 21 22  1  0  0  0  0
 21 27  1  0  0  0  0
 21 28  1  0  0  0  0
 22 23  1  0  0  0  0
 22 24  1  0  0  0  0
 22 29  1  0  0  0  0
 23 30  1  0  0  0  0
 23 31  1  0  0  0  0
 23 32  1  0  0  0  0
 24 33  1  0  0  0  0
 24 34  1  0  0  0  0
 24 35  1  0  0  0  0
 36 37  1  0  0  0  0
 36 41  1  0  0  0  0
 37 38  1  0  0  0  0
 37 40  1  0  0  0  0
 37 42  1  0  0  0  0
 38 39  2  0  0  0  0
 38 46  1  0  0  0  0
 40 43  1  0  0  0  0
 40 44  1  0  0  0  0
 40 45  1  0  0  0  0
 46 47  1  0  0  0  0
 46 48  1  0  0  0  0
 47 49  1  0  0  0  0
 47 50  1  0  0  0  0
 47 51  1  0  0  0  0
M  END
$$$$

  -OEChem-05262216553D

 51 50  0     1  0  0  0  0  0999 V2000
    0.7112   -2.8049   -3.1159 C   0  0  0  0  0  0  0  0  0  0  0  0
   -0.2746   -2.5076   -2.4611 O   0  0  0  0  0  0  0  0  0  0  0  0
    1.0211   -4.2632   -3.3954 C   0  0  0  0  0  0  0  0  0  0  0  0
    1.9499   -4.5499   -2.8954 H   0  0  0  0  0  0  0  0  0  0  0  0
    0.2120   -4.8988   -3.0244 H   0  0  0  0  0  0  0  0  0  0  0  0
    1.1287   -4.4252   -4.4706 H   0  0  0  0  0  0  0  0  0  0  0  0
    1.5704   -1.8218   -3.5694 N   0  0  0  0  0  0  0  0  0  0  0  0
    1.4467   -0.3740   -3.3113 C   0  0  2  0  0  0  0  0  0  0  0  0
    1.5612   -0.0133   -1.8117 C   0  0  0  0  0  0  0  0  0  0  0  0
    2.6284    0.4161   -1.4013 O   0  0  0  0  0  0  0  0  0  0  0  0
    0.1742    0.1980   -3.9563 C   0  0  0  0  0  0  0  0  0  0  0  0
    2.4028   -2.1461   -4.0550 H   0  0  0  0  0  0  0  0  0  0  0  0
    2.2926    0.1170   -3.8042 H   0  0  0  0  0  0  0  0  0  0  0  0
   -0.7311   -0.2041   -3.4936 H   0  0  0  0  0  0  0  0  0  0  0  0
    0.1567    1.2873   -3.8501 H   0  0  0  0  0  0  0  0  0  0  0  0
    0.1514   -0.0449   -5.0229 H   0  0  0  0  0  0  0  0  0  0  0  0
    0.4876   -0.1681   -0.9524 N   0  0  0  0  0  0  0  0  0  0  0  0
    0.4745   -0.3506    0.5208 C   0  0  2  0  0  0  0  0  0  0  0  0
    1.7537   -0.7439    1.3227 C   0  0  0  0  0  0  0  0  0  0  0  0
    1.6808   -0.7567    2.5467 O   0  0  0  0  0  0  0  0  0  0  0  0
   -0.6795   -1.3237    0.8852 C   0  0  0  0  0  0  0  0  0  0  0  0
   -2.1338   -0.8372    0.6309 C   0  0  0  0  0  0  0  0  0  0  0  0
   -3.0857   -2.0055    0.9200 C   0  0  0  0  0  0  0  0  0  0  0  0
   -2.4598   -0.2940   -0.7682 C   0  0  0  0  0  0  0  0  0  0  0  0
   -0.2780   -0.6589   -1.4208 H   0  0  0  0  0  0  0  0  0  0  0  0
    0.2120    0.6288    0.9332 H   0  0  0  0  0  0  0  0  0  0  0  0
   -0.6151   -1.5739    1.9495 H   0  0  0  0  0  0  0  0  0  0  0  0
   -0.5153   -2.2546    0.3315 H   0  0  0  0  0  0  0  0  0  0  0  0
   -2.3429   -0.0358    1.3476 H   0  0  0  0  0  0  0  0  0  0  0  0
   -2.9280   -2.8192    0.2046 H   0  0  0  0  0  0  0  0  0  0  0  0
   -4.1275   -1.6778    0.8493 H   0  0  0  0  0  0  0  0  0  0  0  0
   -2.9194   -2.3939    1.9296 H   0  0  0  0  0  0  0  0  0  0  0  0
   -2.1961   -1.0203   -1.5406 H   0  0  0  0  0  0  0  0  0  0  0  0
   -3.5309   -0.0852   -0.8513 H   0  0  0  0  0  0  0  0  0  0  0  0
   -1.9314    0.6447   -0.9555 H   0  0  0  0  0  0  0  0  0  0  0  0
    2.9030   -1.2419    0.7332 N   0  0  0  0  0  0  0  0  0  0  0  0
    4.1432   -1.6884    1.4003 C   0  0  2  0  0  0  0  0  0  0  0  0
    4.0091   -3.0073    2.1952 C   0  0  0  0  0  0  0  0  0  0  0  0
    4.7996   -3.9200    1.9890 O   0  0  0  0  0  0  0  0  0  0  0  0
    4.7459   -0.5753    2.2691 C   0  0  0  0  0  0  0  0  0  0  0  0
    2.9920   -0.9724   -0.2469 H   0  0  0  0  0  0  0  0  0  0  0  0
    4.8663   -1.8931    0.6042 H   0  0  0  0  0  0  0  0  0  0  0  0
    4.1351   -0.3887    3.1571 H   0  0  0  0  0  0  0  0  0  0  0  0
    5.7491   -0.8603    2.6007 H   0  0  0  0  0  0  0  0  0  0  0  0
    4.8213    0.3540    1.6961 H   0  0  0  0  0  0  0  0  0  0  0  0
    3.0102   -3.1820    3.1315 N   0  0  0  0  0  0  0  0  0  0  0  0
    2.8048   -4.4043    3.8952 C   0  0  0  0  0  0  0  0  0  0  0  0
    2.3666   -2.3947    3.2505 H   0  0  0  0  0  0  0  0  0  0  0  0
    1.9572   -4.2846    4.5767 H   0  0  0  0  0  0  0  0  0  0  0  0
    2.5944   -5.2439    3.2247 H   0  0  0  0  0  0  0  0  0  0  0  0
    3.6951   -4.6400    4.4874 H   0  0  0  0  0  0  0  0  0  0  0  0
  1  2  2  0  0  0  0
  1  3  1  0  0  0  0
  1  7  1  0  0  0  0
  3  4  1  0  0  0  0
  3  5  1  0  0  0  0
  3  6  1  0  0  0  0
  7  8  1  0  0  0  0
  7 12  1  0  0  0  0
  8  9  1  0  0  0  0
  8 11  1  0  0  0  0
  8 13  1  0  0  0  0
  9 10  2  0  0  0  0
  9 17  1  0  0  0  0
 11 14  1  0  0  0  0
 11 15  1  0  0  0  0
 11 16  1  0  0  0  0
 17 18  1  0  0  0  0
 17 25  1  0  0  0  0
 18 19  1  0  0  0  0
 18 21  1  0  0  0  0
 18 26  1  0  0  0  0
 19 20  2  0  0  0  0
 19 36  1  0  0  0  0
 21 22  1  0  0  0  0
 21 27  1  0  0  0  0
 21 28  1  0  0  0  0
 22 23  1  0  0  0  0
 22 24  1  0  0  0  0
 22 29  1  0  0  0  0
 23 30  1  0  0  0  0
 23 31  1  0  0  0  0
 23 32  1  0  0  0  0
 24 33  1  0  0  0  0
 24 34  1  0  0  0  0
 24 35  1  0  0  0  0
 36 37  1  0  0  0  0
 36 41  1  0  0  0  0
 37 38  1  0  0  0  0
 37 40  1  0  0  0  0
 37 42  1  0  0  0  0
 38 39  2  0  0  0  0
 38 46  1  0  0  0  0
 40 43  1  0  0  0  0
 40 44  1  0  0  0  0
 40 45  1  0  0  0  0
 46 47  1  0  0  0  0
 46 48  1  0  0  0  0
 47 49  1  0  0  0  0
 47 50  1  0  0  0  0
 47 51  1  0  0  0  0
M  END
$$$$

  -OEChem-05262216553D

 51 50  0     1  0  0  0  0  0999 V2000
    1.0081   -2.8929   -2.3666 C   0  0  0  0  0  0  0  0  0  0  0  0
   -0.1322   -2.5600   -2.0856 O   0  0  0  0  0  0  0  0  0  0  0  0
    1.4606   -4.3194   -2.1202 C   0  0  0  0  0  0  0  0  0  0  0  0
    2.3476   -4.3272   -1.4818 H   0  0  0  0  0  0  0  0  0  0  0  0
    0.6680   -4.8875   -1.6254 H   0  0  0  0  0  0  0  0  0  0  0  0
    1.7014   -4.8036   -3.0698 H   0  0  0  0  0  0  0  0  0  0  0  0
    1.8958   -1.9699   -2.8852 N   0  0  0  0  0  0  0  0  0  0  0  0
    1.6350   -0.5338   -3.1141 C   0  0  2  0  0  0  0  0  0  0  0  0
    1.4679    0.2630   -1.8017 C   0  0  0  0  0  0  0  0  0  0  0  0
    2.3271    1.0781   -1.4980 O   0  0  0  0  0  0  0  0  0  0  0  0
    0.4599   -0.3024   -4.0767 C   0  0  0  0  0  0  0  0  0  0  0  0
    2.8507   -2.3020   -3.0035 H   0  0  0  0  0  0  0  0  0  0  0  0
    2.5229   -0.1260   -3.6092 H   0  0  0  0  0  0  0  0  0  0  0  0
   -0.4960   -0.5787   -3.6230 H   0  0  0  0  0  0  0  0  0  0  0  0
    0.4088    0.7548   -4.3556 H   0  0  0  0  0  0  0  0  0  0  0  0
    0.5949   -0.8936   -4.9877 H   0  0  0  0  0  0  0  0  0  0  0  0
    0.4071    0.0455   -0.9420 N   0  0  0  0  0  0  0  0  0  0  0  0
    0.4369   -0.0698    0.5400 C   0  0  2  0  0  0  0  0  0  0  0  0
    1.7849   -0.3052    1.3044 C   0  0  0  0  0  0  0  0  0  0  0  0
    1.7432   -0.6612    2.4771 O   0  0  0  0  0  0  0  0  0  0  0  0
   -0.6368   -1.1135    0.9657 C   0  0  0  0  0  0  0  0  0  0  0  0
   -2.1264   -0.7472    0.7151 C   0  0  0  0  0  0  0  0  0  0  0  0
   -2.9826   -1.9704    1.0690 C   0  0  0  0  0  0  0  0  0  0  0  0
   -2.5071   -0.3002   -0.7046 C   0  0  0  0  0  0  0  0  0  0  0  0
   -0.2345   -0.6367   -1.3564 H   0  0  0  0  0  0  0  0  0  0  0  0
    0.1031    0.9014    0.9178 H   0  0  0  0  0  0  0  0  0  0  0  0
   -0.5537   -1.3013    2.0406 H   0  0  0  0  0  0  0  0  0  0  0  0
   -0.4078   -2.0587    0.4649 H   0  0  0  0  0  0  0  0  0  0  0  0
   -2.3881    0.0693    1.3968 H   0  0  0  0  0  0  0  0  0  0  0  0
   -2.7640   -2.8027    0.3917 H   0  0  0  0  0  0  0  0  0  0  0  0
   -4.0475   -1.7297    0.9909 H   0  0  0  0  0  0  0  0  0  0  0  0
   -2.7821   -2.2950    2.0949 H   0  0  0  0  0  0  0  0  0  0  0  0
   -2.1801   -1.0337   -1.4463 H   0  0  0  0  0  0  0  0  0  0  0  0
   -3.5931   -0.1927   -0.7889 H   0  0  0  0  0  0  0  0  0  0  0  0
   -2.0661    0.6728   -0.9380 H   0  0  0  0  0  0  0  0  0  0  0  0
    3.0098   -0.4179    0.6696 N   0  0  0  0  0  0  0  0  0  0  0  0
    4.1842   -1.1983    1.0931 C   0  0  2  0  0  0  0  0  0  0  0  0
    3.8703   -2.7088    1.1372 C   0  0  0  0  0  0  0  0  0  0  0  0
    4.2619   -3.4350    0.2302 O   0  0  0  0  0  0  0  0  0  0  0  0
    4.7897   -0.6824    2.4074 C   0  0  0  0  0  0  0  0  0  0  0  0
    3.0499    0.0216   -0.2504 H   0  0  0  0  0  0  0  0  0  0  0  0
    4.9520   -1.0647    0.3244 H   0  0  0  0  0  0  0  0  0  0  0  0
    4.1319   -0.8739    3.2595 H   0  0  0  0  0  0  0  0  0  0  0  0
    5.7454   -1.1796    2.5988 H   0  0  0  0  0  0  0  0  0  0  0  0
    4.9666    0.3953    2.3423 H   0  0  0  0  0  0  0  0  0  0  0  0
    3.0137   -3.2167    2.0939 N   0  0  0  0  0  0  0  0  0  0  0  0
    2.4645   -4.5646    2.0470 C   0  0  0  0  0  0  0  0  0  0  0  0
    2.5308   -2.5090    2.6550 H   0  0  0  0  0  0  0  0  0  0  0  0
    1.8817   -4.7644    2.9513 H   0  0  0  0  0  0  0  0  0  0  0  0
    1.8095   -4.6811    1.1775 H   0  0  0  0  0  0  0  0  0  0  0  0
    3.2687   -5.3056    1.9861 H   0  0  0  0  0  0  0  0  0  0  0  0
  1  2  2  0  0  0  0
  1  3  1  0  0  0  0
  1  7  1  0  0  0  0
  3  4  1  0  0  0  0
  3  5  1  0  0  0  0
  3  6  1  0  0  0  0
  7  8  1  0  0  0  0
  7 12  1  0  0  0  0
  8  9  1  0  0  0  0
  8 11  1  0  0  0  0
  8 13  1  0  0  0  0
  9 10  2  0  0  0  0
  9 17  1  0  0  0  0
 11 14  1  0  0  0  0
 11 15  1  0  0  0  0
 11 16  1  0  0  0  0
 17 18  1  0  0  0  0
 17 25  1  0  0  0  0
 18 19  1  0  0  0  0
 18 21  1  0  0  0  0
 18 26  1  0  0  0  0
 19 20  2  0  0  0  0
 19 36  1  0  0  0  0
 21 22  1  0  0  0  0
 21 27  1  0  0  0  0
 21 28  1  0  0  0  0
 22 23  1  0  0  0  0
 22 24  1  0  0  0  0
 22 29  1  0  0  0  0
 23 30  1  0  0  0  0
 23 31  1  0  0  0  0
 23 32  1  0  0  0  0
 24 33  1  0  0  0  0
 24 34  1  0  0  0  0
 24 35  1  0  0  0  0
 36 37  1  0  0  0  0
 36 41  1  0  0  0  0
 37 38  1  0  0  0  0
 37 40  1  0  0  0  0
 37 42  1  0  0  0  0
 38 39  2  0  0  0  0
 38 46  1  0  0  0  0
 40 43  1  0  0  0  0
 40 44  1  0  0  0  0
 40 45  1  0  0  0  0
 46 47  1  0  0  0  0
 46 48  1  0  0  0  0
 47 49  1  0  0  0  0
 47 50  1  0  0  0  0
 47 51  1  0  0  0  0
M  END
$$$$

  -OEChem-05262216553D

 51 50  0     1  0  0  0  0  0999 V2000
    2.2551   -2.8398   -2.1334 C   0  0  0  0  0  0  0  0  0  0  0  0
    1.3422   -2.8685   -1.3197 O   0  0  0  0  0  0  0  0  0  0  0  0
    3.2644   -3.9710   -2.1712 C   0  0  0  0  0  0  0  0  0  0  0  0
    4.2592   -3.5935   -1.9207 H   0  0  0  0  0  0  0  0  0  0  0  0
    2.9919   -4.7465   -1.4494 H   0  0  0  0  0  0  0  0  0  0  0  0
    3.2917   -4.4153   -3.1692 H   0  0  0  0  0  0  0  0  0  0  0  0
    2.4257   -1.7426   -2.9554 N   0  0  0  0  0  0  0  0  0  0  0  0
    1.5488   -0.5574   -2.9976 C   0  0  2  0  0  0  0  0  0  0  0  0
    1.4048    0.1540   -1.6294 C   0  0  0  0  0  0  0  0  0  0  0  0
    2.2380    0.9907   -1.3240 O   0  0  0  0  0  0  0  0  0  0  0  0
    0.2006   -0.9398   -3.6278 C   0  0  0  0  0  0  0  0  0  0  0  0
    3.2546   -1.7413   -3.5445 H   0  0  0  0  0  0  0  0  0  0  0  0
    2.0140    0.1793   -3.6613 H   0  0  0  0  0  0  0  0  0  0  0  0
   -0.3048   -1.7157   -3.0469 H   0  0  0  0  0  0  0  0  0  0  0  0
   -0.4534   -0.0638   -3.6858 H   0  0  0  0  0  0  0  0  0  0  0  0
    0.3551   -1.3204   -4.6420 H   0  0  0  0  0  0  0  0  0  0  0  0
    0.2861   -0.0303   -0.8392 N   0  0  0  0  0  0  0  0  0  0  0  0
    0.1485    0.0645    0.6330 C   0  0  2  0  0  0  0  0  0  0  0  0
    1.3499    0.0650    1.6374 C   0  0  0  0  0  0  0  0  0  0  0  0
    1.0995    0.2836    2.8127 O   0  0  0  0  0  0  0  0  0  0  0  0
   -0.8347   -1.0577    1.0784 C   0  0  0  0  0  0  0  0  0  0  0  0
   -2.3154   -0.9542    0.6188 C   0  0  0  0  0  0  0  0  0  0  0  0
   -3.0381   -2.2369    1.0536 C   0  0  0  0  0  0  0  0  0  0  0  0
   -2.5591   -0.7773   -0.8869 C   0  0  0  0  0  0  0  0  0  0  0  0
   -0.3330   -0.7268   -1.2439 H   0  0  0  0  0  0  0  0  0  0  0  0
   -0.3347    1.0286    0.8199 H   0  0  0  0  0  0  0  0  0  0  0  0
   -0.8576   -1.1023    2.1723 H   0  0  0  0  0  0  0  0  0  0  0  0
   -0.4241   -2.0127    0.7336 H   0  0  0  0  0  0  0  0  0  0  0  0
   -2.7702   -0.1011    1.1338 H   0  0  0  0  0  0  0  0  0  0  0  0
   -2.6248   -3.1095    0.5374 H   0  0  0  0  0  0  0  0  0  0  0  0
   -4.1069   -2.1721    0.8261 H   0  0  0  0  0  0  0  0  0  0  0  0
   -2.9309   -2.3888    2.1324 H   0  0  0  0  0  0  0  0  0  0  0  0
   -2.0387   -1.5533   -1.4552 H   0  0  0  0  0  0  0  0  0  0  0  0
   -3.6284   -0.8508   -1.1088 H   0  0  0  0  0  0  0  0  0  0  0  0
   -2.2261    0.2086   -1.2228 H   0  0  0  0  0  0  0  0  0  0  0  0
    2.6971    0.2469    1.4431 N   0  0  0  0  0  0  0  0  0  0  0  0
    3.4893   -0.8230    0.8210 C   0  0  2  0  0  0  0  0  0  0  0  0
    3.4825   -2.1279    1.6502 C   0  0  0  0  0  0  0  0  0  0  0  0
    4.2973   -2.3220    2.5429 O   0  0  0  0  0  0  0  0  0  0  0  0
    4.9064   -0.2796    0.6130 C   0  0  0  0  0  0  0  0  0  0  0  0
    3.1030    0.5940    2.3089 H   0  0  0  0  0  0  0  0  0  0  0  0
    3.0913   -1.0762   -0.1573 H   0  0  0  0  0  0  0  0  0  0  0  0
    5.3558    0.0054    1.5697 H   0  0  0  0  0  0  0  0  0  0  0  0
    5.5400   -1.0386    0.1447 H   0  0  0  0  0  0  0  0  0  0  0  0
    4.8807    0.6016   -0.0359 H   0  0  0  0  0  0  0  0  0  0  0  0
    2.5590   -3.1148    1.3563 N   0  0  0  0  0  0  0  0  0  0  0  0
    2.4319   -4.3482    2.1202 C   0  0  0  0  0  0  0  0  0  0  0  0
    1.9101   -2.9448    0.5848 H   0  0  0  0  0  0  0  0  0  0  0  0
    3.3763   -4.9023    2.1167 H   0  0  0  0  0  0  0  0  0  0  0  0
    2.1561   -4.1275    3.1567 H   0  0  0  0  0  0  0  0  0  0  0  0
    1.6559   -4.9836    1.6826 H   0  0  0  0  0  0  0  0  0  0  0  0
  1  2  2  0  0  0  0
  1  3  1  0  0  0  0
  1  7  1  0  0  0  0
  3  4  1  0  0  0  0
  3  5  1  0  0  0  0
  3  6  1  0  0  0  0
  7  8  1  0  0  0  0
  7 12  1  0  0  0  0
  8  9  1  0  0  0  0
  8 11  1  0  0  0  0
  8 13  1  0  0  0  0
  9 10  2  0  0  0  0
  9 17  1  0  0  0  0
 11 14  1  0  0  0  0
 11 15  1  0  0  0  0
 11 16  1  0  0  0  0
 17 18  1  0  0  0  0
 17 25  1  0  0  0  0
 18 19  1  0  0  0  0
 18 21  1  0  0  0  0
 18 26  1  0  0  0  0
 19 20  2  0  0  0  0
 19 36  1  0  0  0  0
 21 22  1  0  0  0  0
 21 27  1  0  0  0  0
 21 28  1  0  0  0  0
 22 23  1  0  0  0  0
 22 24  1  0  0  0  0
 22 29  1  0  0  0  0
 23 30  1  0  0  0  0
 23 31  1  0  0  0  0
 23 32  1  0  0  0  0
 24 33  1  0  0  0  0
 24 34  1  0  0  0  0
 24 35  1  0  0  0  0
 36 37  1  0  0  0  0
 36 41  1  0  0  0  0
 37 38  1  0  0  0  0
 37 40  1  0  0  0  0
 37 42  1  0  0  0  0
 38 39  2  0  0  0  0
 38 46  1  0  0  0  0
 40 43  1  0  0  0  0
 40 44  1  0  0  0  0
 40 45  1  0  0  0  0
 46 47  1  0  0  0  0
 46 48  1  0  0  0  0
 47 49  1  0  0  0  0
 47 50  1  0  0  0  0
 47 51  1  0  0  0  0
M  END
$$$$

  -OEChem-05262216553D

 51 50  0     1  0  0  0  0  0999 V2000
    2.4258   -0.7266   -2.6728 C   0  0  0  0  0  0  0  0  0  0  0  0
    1.3860   -0.0836   -2.7198 O   0  0  0  0  0  0  0  0  0  0  0  0
    3.7684   -0.0265   -2.7577 C   0  0  0  0  0  0  0  0  0  0  0  0
    4.3714   -0.2625   -1.8771 H   0  0  0  0  0  0  0  0  0  0  0  0
    4.3025   -0.3573   -3.6518 H   0  0  0  0  0  0  0  0  0  0  0  0
    3.6284    1.0567   -2.8104 H   0  0  0  0  0  0  0  0  0  0  0  0
    2.3694   -2.0839   -2.4412 N   0  0  0  0  0  0  0  0  0  0  0  0
    1.1141   -2.8034   -2.1895 C   0  0  2  0  0  0  0  0  0  0  0  0
    0.5952   -2.5376   -0.7576 C   0  0  0  0  0  0  0  0  0  0  0  0
    0.6787   -3.3887    0.1164 O   0  0  0  0  0  0  0  0  0  0  0  0
    1.3695   -4.2869   -2.4743 C   0  0  0  0  0  0  0  0  0  0  0  0
    3.2430   -2.5259   -2.1386 H   0  0  0  0  0  0  0  0  0  0  0  0
    0.3437   -2.4628   -2.8896 H   0  0  0  0  0  0  0  0  0  0  0  0
    2.1649   -4.6705   -1.8298 H   0  0  0  0  0  0  0  0  0  0  0  0
    0.4621   -4.8711   -2.2917 H   0  0  0  0  0  0  0  0  0  0  0  0
    1.6688   -4.4281   -3.5173 H   0  0  0  0  0  0  0  0  0  0  0  0
   -0.1095   -1.3789   -0.4988 N   0  0  0  0  0  0  0  0  0  0  0  0
    0.0339   -0.4448    0.6455 C   0  0  2  0  0  0  0  0  0  0  0  0
    0.8327   -0.8437    1.9363 C   0  0  0  0  0  0  0  0  0  0  0  0
    0.4723   -0.5205    3.0577 O   0  0  0  0  0  0  0  0  0  0  0  0
   -1.3916    0.0603    1.0147 C   0  0  0  0  0  0  0  0  0  0  0  0
   -2.1388    0.9458   -0.0221 C   0  0  0  0  0  0  0  0  0  0  0  0
   -3.5618    1.1891    0.5002 C   0  0  0  0  0  0  0  0  0  0  0  0
   -2.2559    0.3780   -1.4450 C   0  0  0  0  0  0  0  0  0  0  0  0
   -0.2418   -0.8669   -1.3716 H   0  0  0  0  0  0  0  0  0  0  0  0
    0.5889    0.4172    0.2638 H   0  0  0  0  0  0  0  0  0  0  0  0
   -1.3348    0.6576    1.9303 H   0  0  0  0  0  0  0  0  0  0  0  0
   -2.0040   -0.8190    1.2427 H   0  0  0  0  0  0  0  0  0  0  0  0
   -1.6205    1.9084   -0.0872 H   0  0  0  0  0  0  0  0  0  0  0  0
   -4.1234    0.2503    0.5451 H   0  0  0  0  0  0  0  0  0  0  0  0
   -4.0981    1.8836   -0.1539 H   0  0  0  0  0  0  0  0  0  0  0  0
   -3.5319    1.6238    1.5042 H   0  0  0  0  0  0  0  0  0  0  0  0
   -2.6083   -0.6582   -1.4210 H   0  0  0  0  0  0  0  0  0  0  0  0
   -2.9641    0.9677   -2.0356 H   0  0  0  0  0  0  0  0  0  0  0  0
   -1.2923    0.4219   -1.9592 H   0  0  0  0  0  0  0  0  0  0  0  0
    1.9117   -1.6933    2.0266 N   0  0  0  0  0  0  0  0  0  0  0  0
    3.0527   -1.5305    1.1082 C   0  0  2  0  0  0  0  0  0  0  0  0
    3.6572   -2.8502    0.5825 C   0  0  0  0  0  0  0  0  0  0  0  0
    4.3662   -2.8243   -0.4203 O   0  0  0  0  0  0  0  0  0  0  0  0
    4.1254   -0.7263    1.8481 C   0  0  0  0  0  0  0  0  0  0  0  0
    2.1387   -1.8673    3.0019 H   0  0  0  0  0  0  0  0  0  0  0  0
    2.7419   -0.9563    0.2313 H   0  0  0  0  0  0  0  0  0  0  0  0
    4.4881   -1.2796    2.7203 H   0  0  0  0  0  0  0  0  0  0  0  0
    4.9748   -0.5268    1.1867 H   0  0  0  0  0  0  0  0  0  0  0  0
    3.7206    0.2325    2.1870 H   0  0  0  0  0  0  0  0  0  0  0  0
    3.4166   -4.0422    1.2361 N   0  0  0  0  0  0  0  0  0  0  0  0
    3.9086   -5.3280    0.7590 C   0  0  0  0  0  0  0  0  0  0  0  0
    2.5717   -4.0385    1.8068 H   0  0  0  0  0  0  0  0  0  0  0  0
    3.3458   -5.6525   -0.1205 H   0  0  0  0  0  0  0  0  0  0  0  0
    4.9697   -5.2639    0.4956 H   0  0  0  0  0  0  0  0  0  0  0  0
    3.7978   -6.0850    1.5413 H   0  0  0  0  0  0  0  0  0  0  0  0
  1  2  2  0  0  0  0
  1  3  1  0  0  0  0
  1  7  1  0  0  0  0
  3  4  1  0  0  0  0
  3  5  1  0  0  0  0
  3  6  1  0  0  0  0
  7  8  1  0  0  0  0
  7 12  1  0  0  0  0
  8  9  1  0  0  0  0
  8 11  1  0  0  0  0
  8 13  1  0  0  0  0
  9 10  2  0  0  0  0
  9 17  1  0  0  0  0
 11 14  1  0  0  0  0
 11 15  1  0  0  0  0
 11 16  1  0  0  0  0
 17 18  1  0  0  0  0
 17 25  1  0  0  0  0
 18 19  1  0  0  0  0
 18 21  1  0  0  0  0
 18 26  1  0  0  0  0
 19 20  2  0  0  0  0
 19 36  1  0  0  0  0
 21 22  1  0  0  0  0
 21 27  1  0  0  0  0
 21 28  1  0  0  0  0
 22 23  1  0  0  0  0
 22 24  1  0  0  0  0
 22 29  1  0  0  0  0
 23 30  1  0  0  0  0
 23 31  1  0  0  0  0
 23 32  1  0  0  0  0
 24 33  1  0  0  0  0
 24 34  1  0  0  0  0
 24 35  1  0  0  0  0
 36 37  1  0  0  0  0
 36 41  1  0  0  0  0
 37 38  1  0  0  0  0
 37 40  1  0  0  0  0
 37 42  1  0  0  0  0
 38 39  2  0  0  0  0
 38 46  1  0  0  0  0
 40 43  1  0  0  0  0
 40 44  1  0  0  0  0
 40 45  1  0  0  0  0
 46 47  1  0  0  0  0
 46 48  1  0  0  0  0
 47 49  1  0  0  0  0
 47 50  1  0  0  0  0
 47 51  1  0  0  0  0
M  END
$$$$

  -OEChem-05262216553D

 51 50  0     1  0  0  0  0  0999 V2000
    3.1206   -2.6043   -3.8513 C   0  0  0  0  0  0  0  0  0  0  0  0
    2.4101   -2.7973   -4.8269 O   0  0  0  0  0  0  0  0  0  0  0  0
    4.5754   -3.0329   -3.8666 C   0  0  0  0  0  0  0  0  0  0  0  0
    5.2201   -2.1640   -3.7125 H   0  0  0  0  0  0  0  0  0  0  0  0
    4.7582   -3.7551   -3.0670 H   0  0  0  0  0  0  0  0  0  0  0  0
    4.8249   -3.4941   -4.8261 H   0  0  0  0  0  0  0  0  0  0  0  0
    2.5982   -2.0096   -2.7240 N   0  0  0  0  0  0  0  0  0  0  0  0
    1.2386   -1.4568   -2.6286 C   0  0  2  0  0  0  0  0  0  0  0  0
    1.1683   -0.2585   -1.6542 C   0  0  0  0  0  0  0  0  0  0  0  0
    2.0640    0.5740   -1.6277 O   0  0  0  0  0  0  0  0  0  0  0  0
    0.2979   -2.5996   -2.2182 C   0  0  0  0  0  0  0  0  0  0  0  0
    3.2591   -1.8379   -1.9592 H   0  0  0  0  0  0  0  0  0  0  0  0
    0.9286   -1.0807   -3.6097 H   0  0  0  0  0  0  0  0  0  0  0  0
    0.5294   -2.9441   -1.2053 H   0  0  0  0  0  0  0  0  0  0  0  0
   -0.7456   -2.2737   -2.2521 H   0  0  0  0  0  0  0  0  0  0  0  0
    0.4077   -3.4453   -2.9049 H   0  0  0  0  0  0  0  0  0  0  0  0
    0.0818   -0.0666   -0.8183 N   0  0  0  0  0  0  0  0  0  0  0  0
    0.1169    0.1556    0.6484 C   0  0  2  0  0  0  0  0  0  0  0  0
    1.4397   -0.1709    1.4227 C   0  0  0  0  0  0  0  0  0  0  0  0
    1.4164   -0.9847    2.3399 O   0  0  0  0  0  0  0  0  0  0  0  0
   -1.1095   -0.5554    1.2874 C   0  0  0  0  0  0  0  0  0  0  0  0
   -2.5203   -0.0095    0.9360 C   0  0  0  0  0  0  0  0  0  0  0  0
   -3.5625   -0.9504    1.5558 C   0  0  0  0  0  0  0  0  0  0  0  0
   -2.8453    0.1200   -0.5602 C   0  0  0  0  0  0  0  0  0  0  0  0
   -0.7046   -0.6450   -1.0987 H   0  0  0  0  0  0  0  0  0  0  0  0
   -0.0217    1.2306    0.8021 H   0  0  0  0  0  0  0  0  0  0  0  0
   -1.0208   -0.4905    2.3773 H   0  0  0  0  0  0  0  0  0  0  0  0
   -1.0589   -1.6175    1.0236 H   0  0  0  0  0  0  0  0  0  0  0  0
   -2.6268    0.9819    1.3901 H   0  0  0  0  0  0  0  0  0  0  0  0
   -3.5074   -1.9451    1.1018 H   0  0  0  0  0  0  0  0  0  0  0  0
   -4.5730   -0.5565    1.4064 H   0  0  0  0  0  0  0  0  0  0  0  0
   -3.3939   -1.0509    2.6328 H   0  0  0  0  0  0  0  0  0  0  0  0
   -2.6373   -0.8168   -1.0862 H   0  0  0  0  0  0  0  0  0  0  0  0
   -3.9038    0.3624   -0.6997 H   0  0  0  0  0  0  0  0  0  0  0  0
   -2.2661    0.9284   -1.0153 H   0  0  0  0  0  0  0  0  0  0  0  0
    2.6823    0.2207    0.9560 N   0  0  0  0  0  0  0  0  0  0  0  0
    3.9650   -0.4640    1.1964 C   0  0  2  0  0  0  0  0  0  0  0  0
    3.9662   -1.8974    0.6202 C   0  0  0  0  0  0  0  0  0  0  0  0
    4.4725   -2.1137   -0.4759 O   0  0  0  0  0  0  0  0  0  0  0  0
    4.3876   -0.4186    2.6731 C   0  0  0  0  0  0  0  0  0  0  0  0
    2.6307    0.7454    0.0769 H   0  0  0  0  0  0  0  0  0  0  0  0
    4.7287    0.0898    0.6404 H   0  0  0  0  0  0  0  0  0  0  0  0
    3.7405   -1.0366    3.3010 H   0  0  0  0  0  0  0  0  0  0  0  0
    5.4127   -0.7860    2.7795 H   0  0  0  0  0  0  0  0  0  0  0  0
    4.3484    0.6102    3.0433 H   0  0  0  0  0  0  0  0  0  0  0  0
    3.2524   -2.9066    1.2351 N   0  0  0  0  0  0  0  0  0  0  0  0
    3.0476   -4.2230    0.6456 C   0  0  0  0  0  0  0  0  0  0  0  0
    2.6320   -2.6001    1.9894 H   0  0  0  0  0  0  0  0  0  0  0  0
    2.5208   -4.1400   -0.3104 H   0  0  0  0  0  0  0  0  0  0  0  0
    4.0089   -4.7188    0.4757 H   0  0  0  0  0  0  0  0  0  0  0  0
    2.4525   -4.8482    1.3181 H   0  0  0  0  0  0  0  0  0  0  0  0
  1  2  2  0  0  0  0
  1  3  1  0  0  0  0
  1  7  1  0  0  0  0
  3  4  1  0  0  0  0
  3  5  1  0  0  0  0
  3  6  1  0  0  0  0
  7  8  1  0  0  0  0
  7 12  1  0  0  0  0
  8  9  1  0  0  0  0
  8 11  1  0  0  0  0
  8 13  1  0  0  0  0
  9 10  2  0  0  0  0
  9 17  1  0  0  0  0
 11 14  1  0  0  0  0
 11 15  1  0  0  0  0
 11 16  1  0  0  0  0
 17 18  1  0  0  0  0
 17 25  1  0  0  0  0
 18 19  1  0  0  0  0
 18 21  1  0  0  0  0
 18 26  1  0  0  0  0
 19 20  2  0  0  0  0
 19 36  1  0  0  0  0
 21 22  1  0  0  0  0
 21 27  1  0  0  0  0
 21 28  1  0  0  0  0
 22 23  1  0  0  0  0
 22 24  1  0  0  0  0
 22 29  1  0  0  0  0
 23 30  1  0  0  0  0
 23 31  1  0  0  0  0
 23 32  1  0  0  0  0
 24 33  1  0  0  0  0
 24 34  1  0  0  0  0
 24 35  1  0  0  0  0
 36 37  1  0  0  0  0
 36 41  1  0  0  0  0
 37 38  1  0  0  0  0
 37 40  1  0  0  0  0
 37 42  1  0  0  0  0
 38 39  2  0  0  0  0
 38 46  1  0  0  0  0
 40 43  1  0  0  0  0
 40 44  1  0  0  0  0
 40 45  1  0  0  0  0
 46 47  1  0  0  0  0
 46 48  1  0  0  0  0
 47 49  1  0  0  0  0
 47 50  1  0  0  0  0
 47 51  1  0  0  0  0
M  END
$$$$

  -OEChem-05262216553D

 51 50  0     1  0  0  0  0  0999 V2000
    3.2705   -2.5846   -3.6994 C   0  0  0  0  0  0  0  0  0  0  0  0
    2.5570   -2.9313   -4.6289 O   0  0  0  0  0  0  0  0  0  0  0  0
    4.7561   -2.8897   -3.7177 C   0  0  0  0  0  0  0  0  0  0  0  0
    5.3271   -1.9623   -3.6259 H   0  0  0  0  0  0  0  0  0  0  0  0
    5.0111   -3.5452   -2.8813 H   0  0  0  0  0  0  0  0  0  0  0  0
    5.0305   -3.3838   -4.6536 H   0  0  0  0  0  0  0  0  0  0  0  0
    2.7238   -1.9311   -2.6177 N   0  0  0  0  0  0  0  0  0  0  0  0
    1.3254   -1.4843   -2.5306 C   0  0  2  0  0  0  0  0  0  0  0  0
    1.1795   -0.2506   -1.6115 C   0  0  0  0  0  0  0  0  0  0  0  0
    2.0757    0.5792   -1.5326 O   0  0  0  0  0  0  0  0  0  0  0  0
    0.4768   -2.6669   -2.0401 C   0  0  0  0  0  0  0  0  0  0  0  0
    3.3882   -1.6045   -1.9076 H   0  0  0  0  0  0  0  0  0  0  0  0
    0.9761   -1.1849   -3.5248 H   0  0  0  0  0  0  0  0  0  0  0  0
    0.7534   -2.9390   -1.0165 H   0  0  0  0  0  0  0  0  0  0  0  0
   -0.5879   -2.4174   -2.0633 H   0  0  0  0  0  0  0  0  0  0  0  0
    0.6317   -3.5380   -2.6848 H   0  0  0  0  0  0  0  0  0  0  0  0
    0.0439   -0.0253   -0.8529 N   0  0  0  0  0  0  0  0  0  0  0  0
    0.0444    0.1649    0.6172 C   0  0  2  0  0  0  0  0  0  0  0  0
    1.3402   -0.2546    1.3829 C   0  0  0  0  0  0  0  0  0  0  0  0
    1.3140   -1.2173    2.1426 O   0  0  0  0  0  0  0  0  0  0  0  0
   -1.2125   -0.5110    1.2293 C   0  0  0  0  0  0  0  0  0  0  0  0
   -2.5967    0.0891    0.8641 C   0  0  0  0  0  0  0  0  0  0  0  0
   -3.6830   -0.8201    1.4551 C   0  0  0  0  0  0  0  0  0  0  0  0
   -2.8867    0.2476   -0.6363 C   0  0  0  0  0  0  0  0  0  0  0  0
   -0.7334   -0.5988   -1.1671 H   0  0  0  0  0  0  0  0  0  0  0  0
   -0.0495    1.2401    0.7981 H   0  0  0  0  0  0  0  0  0  0  0  0
   -1.1291   -0.4688    2.3212 H   0  0  0  0  0  0  0  0  0  0  0  0
   -1.1973   -1.5695    0.9470 H   0  0  0  0  0  0  0  0  0  0  0  0
   -2.6754    1.0782    1.3284 H   0  0  0  0  0  0  0  0  0  0  0  0
   -3.6541   -1.8121    0.9926 H   0  0  0  0  0  0  0  0  0  0  0  0
   -4.6758   -0.3893    1.2908 H   0  0  0  0  0  0  0  0  0  0  0  0
   -3.5389   -0.9357    2.5340 H   0  0  0  0  0  0  0  0  0  0  0  0
   -2.6930   -0.6874   -1.1710 H   0  0  0  0  0  0  0  0  0  0  0  0
   -3.9347    0.5217   -0.7943 H   0  0  0  0  0  0  0  0  0  0  0  0
   -2.2751    1.0453   -1.0677 H   0  0  0  0  0  0  0  0  0  0  0  0
    2.5621    0.3330    1.1032 N   0  0  0  0  0  0  0  0  0  0  0  0
    3.8817   -0.2709    1.3647 C   0  0  2  0  0  0  0  0  0  0  0  0
    4.0722   -1.6249    0.6394 C   0  0  0  0  0  0  0  0  0  0  0  0
    4.6718   -1.6690   -0.4296 O   0  0  0  0  0  0  0  0  0  0  0  0
    4.1794   -0.3607    2.8692 C   0  0  0  0  0  0  0  0  0  0  0  0
    2.5229    0.9261    0.2675 H   0  0  0  0  0  0  0  0  0  0  0  0
    4.6298    0.4066    0.9401 H   0  0  0  0  0  0  0  0  0  0  0  0
    3.5269   -1.0813    3.3694 H   0  0  0  0  0  0  0  0  0  0  0  0
    5.2159   -0.6736    3.0273 H   0  0  0  0  0  0  0  0  0  0  0  0
    4.0376    0.6173    3.3387 H   0  0  0  0  0  0  0  0  0  0  0  0
    3.4627   -2.7738    1.1036 N   0  0  0  0  0  0  0  0  0  0  0  0
    3.4791   -4.0441    0.3895 C   0  0  0  0  0  0  0  0  0  0  0  0
    2.7510   -2.6221    1.8233 H   0  0  0  0  0  0  0  0  0  0  0  0
    2.9587   -4.8100    0.9726 H   0  0  0  0  0  0  0  0  0  0  0  0
    2.9822   -3.9495   -0.5808 H   0  0  0  0  0  0  0  0  0  0  0  0
    4.5092   -4.3777    0.2262 H   0  0  0  0  0  0  0  0  0  0  0  0
  1  2  2  0  0  0  0
  1  3  1  0  0  0  0
  1  7  1  0  0  0  0
  3  4  1  0  0  0  0
  3  5  1  0  0  0  0
  3  6  1  0  0  0  0
  7  8  1  0  0  0  0
  7 12  1  0  0  0  0
  8  9  1  0  0  0  0
  8 11  1  0  0  0  0
  8 13  1  0  0  0  0
  9 10  2  0  0  0  0
  9 17  1  0  0  0  0
 11 14  1  0  0  0  0
 11 15  1  0  0  0  0
 11 16  1  0  0  0  0
 17 18  1  0  0  0  0
 17 25  1  0  0  0  0
 18 19  1  0  0  0  0
 18 21  1  0  0  0  0
 18 26  1  0  0  0  0
 19 20  2  0  0  0  0
 19 36  1  0  0  0  0
 21 22  1  0  0  0  0
 21 27  1  0  0  0  0
 21 28  1  0  0  0  0
 22 23  1  0  0  0  0
 22 24  1  0  0  0  0
 22 29  1  0  0  0  0
 23 30  1  0  0  0  0
 23 31  1  0  0  0  0
 23 32  1  0  0  0  0
 24 33  1  0  0  0  0
 24 34  1  0  0  0  0
 24 35  1  0  0  0  0
 36 37  1  0  0  0  0
 36 41  1  0  0  0  0
 37 38  1  0  0  0  0
 37 40  1  0  0  0  0
 37 42  1  0  0  0  0
 38 39  2  0  0  0  0
 38 46  1  0  0  0  0
 40 43  1  0  0  0  0
 40 44  1  0  0  0  0
 40 45  1  0  0  0  0
 46 47  1  0  0  0  0
 46 48  1  0  0  0  0
 47 49  1  0  0  0  0
 47 50  1  0  0  0  0
 47 51  1  0  0  0  0
M  END
$$$$

  -OEChem-05262216553D

 51 50  0     1  0  0  0  0  0999 V2000
    3.3932   -2.4940   -3.5981 C   0  0  0  0  0  0  0  0  0  0  0  0
    2.7041   -2.9302   -4.5082 O   0  0  0  0  0  0  0  0  0  0  0  0
    4.8987   -2.6786   -3.6186 C   0  0  0  0  0  0  0  0  0  0  0  0
    5.3938   -1.7078   -3.5346 H   0  0  0  0  0  0  0  0  0  0  0  0
    5.2080   -3.3057   -2.7789 H   0  0  0  0  0  0  0  0  0  0  0  0
    5.2103   -3.1554   -4.5519 H   0  0  0  0  0  0  0  0  0  0  0  0
    2.8022   -1.8480   -2.5358 N   0  0  0  0  0  0  0  0  0  0  0  0
    1.3765   -1.4970   -2.4561 C   0  0  2  0  0  0  0  0  0  0  0  0
    1.1642   -0.2337   -1.5937 C   0  0  0  0  0  0  0  0  0  0  0  0
    2.0589    0.5922   -1.4595 O   0  0  0  0  0  0  0  0  0  0  0  0
    0.6180   -2.7047   -1.8884 C   0  0  0  0  0  0  0  0  0  0  0  0
    3.4417   -1.4314   -1.8494 H   0  0  0  0  0  0  0  0  0  0  0  0
    0.9951   -1.2736   -3.4585 H   0  0  0  0  0  0  0  0  0  0  0  0
    0.9362   -2.9083   -0.8608 H   0  0  0  0  0  0  0  0  0  0  0  0
   -0.4607   -2.5240   -1.8932 H   0  0  0  0  0  0  0  0  0  0  0  0
    0.8143   -3.5945   -2.4953 H   0  0  0  0  0  0  0  0  0  0  0  0
   -0.0058    0.0182   -0.8982 N   0  0  0  0  0  0  0  0  0  0  0  0
   -0.0149    0.1830    0.5734 C   0  0  2  0  0  0  0  0  0  0  0  0
    1.2717   -0.3107    1.3019 C   0  0  0  0  0  0  0  0  0  0  0  0
    1.2601   -1.3820    1.8997 O   0  0  0  0  0  0  0  0  0  0  0  0
   -1.2809   -0.4756    1.1807 C   0  0  0  0  0  0  0  0  0  0  0  0
   -2.6532    0.1547    0.8250 C   0  0  0  0  0  0  0  0  0  0  0  0
   -3.7558   -0.7398    1.4080 C   0  0  0  0  0  0  0  0  0  0  0  0
   -2.9381    0.3334   -0.6739 C   0  0  0  0  0  0  0  0  0  0  0  0
   -0.7739   -0.5575   -1.2305 H   0  0  0  0  0  0  0  0  0  0  0  0
   -0.0762    1.2558    0.7812 H   0  0  0  0  0  0  0  0  0  0  0  0
   -1.1884   -0.4515    2.2725 H   0  0  0  0  0  0  0  0  0  0  0  0
   -1.2885   -1.5299    0.8829 H   0  0  0  0  0  0  0  0  0  0  0  0
   -2.7122    1.1405    1.2993 H   0  0  0  0  0  0  0  0  0  0  0  0
   -3.7452   -1.7274    0.9355 H   0  0  0  0  0  0  0  0  0  0  0  0
   -4.7405   -0.2892    1.2489 H   0  0  0  0  0  0  0  0  0  0  0  0
   -3.6126   -0.8688    2.4855 H   0  0  0  0  0  0  0  0  0  0  0  0
   -2.7597   -0.5997   -1.2173 H   0  0  0  0  0  0  0  0  0  0  0  0
   -3.9808    0.6278   -0.8312 H   0  0  0  0  0  0  0  0  0  0  0  0
   -2.3110    1.1239   -1.0958 H   0  0  0  0  0  0  0  0  0  0  0  0
    2.4441    0.4238    1.2468 N   0  0  0  0  0  0  0  0  0  0  0  0
    3.7804   -0.1272    1.5449 C   0  0  2  0  0  0  0  0  0  0  0  0
    4.1221   -1.3963    0.7211 C   0  0  0  0  0  0  0  0  0  0  0  0
    4.7206   -1.2983   -0.3452 O   0  0  0  0  0  0  0  0  0  0  0  0
    3.9609   -0.3379    3.0561 C   0  0  0  0  0  0  0  0  0  0  0  0
    2.4266    1.0988    0.4767 H   0  0  0  0  0  0  0  0  0  0  0  0
    4.5136    0.6283    1.2444 H   0  0  0  0  0  0  0  0  0  0  0  0
    3.2850   -1.1065    3.4405 H   0  0  0  0  0  0  0  0  0  0  0  0
    4.9882   -0.6461    3.2727 H   0  0  0  0  0  0  0  0  0  0  0  0
    3.7605    0.5954    3.5908 H   0  0  0  0  0  0  0  0  0  0  0  0
    3.6800   -2.6429    1.1198 N   0  0  0  0  0  0  0  0  0  0  0  0
    3.8552   -3.8539    0.3280 C   0  0  0  0  0  0  0  0  0  0  0  0
    2.9212   -2.6183    1.8052 H   0  0  0  0  0  0  0  0  0  0  0  0
    3.5193   -4.7257    0.8975 H   0  0  0  0  0  0  0  0  0  0  0  0
    3.2740   -3.7993   -0.5971 H   0  0  0  0  0  0  0  0  0  0  0  0
    4.9105   -3.9975    0.0731 H   0  0  0  0  0  0  0  0  0  0  0  0
  1  2  2  0  0  0  0
  1  3  1  0  0  0  0
  1  7  1  0  0  0  0
  3  4  1  0  0  0  0
  3  5  1  0  0  0  0
  3  6  1  0  0  0  0
  7  8  1  0  0  0  0
  7 12  1  0  0  0  0
  8  9  1  0  0  0  0
  8 11  1  0  0  0  0
  8 13  1  0  0  0  0
  9 10  2  0  0  0  0
  9 17  1  0  0  0  0
 11 14  1  0  0  0  0
 11 15  1  0  0  0  0
 11 16  1  0  0  0  0
 17 18  1  0  0  0  0
 17 25  1  0  0  0  0
 18 19  1  0  0  0  0
 18 21  1  0  0  0  0
 18 26  1  0  0  0  0
 19 20  2  0  0  0  0
 19 36  1  0  0  0  0
 21 22  1  0  0  0  0
 21 27  1  0  0  0  0
 21 28  1  0  0  0  0
 22 23  1  0  0  0  0
 22 24  1  0  0  0  0
 22 29  1  0  0  0  0
 23 30  1  0  0  0  0
 23 31  1  0  0  0  0
 23 32  1  0  0  0  0
 24 33  1  0  0  0  0
 24 34  1  0  0  0  0
 24 35  1  0  0  0  0
 36 37  1  0  0  0  0
 36 41  1  0  0  0  0
 37 38  1  0  0  0  0
 37 40  1  0  0  0  0
 37 42  1  0  0  0  0
 38 39  2  0  0  0  0
 38 46  1  0  0  0  0
 40 43  1  0  0  0  0
 40 44  1  0  0  0  0
 40 45  1  0  0  0  0
 46 47  1  0  0  0  0
 46 48  1  0  0  0  0
 47 49  1  0  0  0  0
 47 50  1  0  0  0  0
 47 51  1  0  0  0  0
M  END
$$$$

  -OEChem-05262216553D

 51 50  0     1  0  0  0  0  0999 V2000
    3.4675   -2.4752   -3.4822 C   0  0  0  0  0  0  0  0  0  0  0  0
    2.8138   -2.9964   -4.3735 O   0  0  0  0  0  0  0  0  0  0  0  0
    4.9826   -2.5340   -3.5070 C   0  0  0  0  0  0  0  0  0  0  0  0
    5.3404   -3.2081   -2.7255 H   0  0  0  0  0  0  0  0  0  0  0  0
    5.3324   -2.8947   -4.4780 H   0  0  0  0  0  0  0  0  0  0  0  0
    5.3966   -1.5378   -3.3305 H   0  0  0  0  0  0  0  0  0  0  0  0
    2.8308   -1.8428   -2.4390 N   0  0  0  0  0  0  0  0  0  0  0  0
    1.3878   -1.5645   -2.3880 C   0  0  2  0  0  0  0  0  0  0  0  0
    1.1180   -0.2655   -1.6004 C   0  0  0  0  0  0  0  0  0  0  0  0
    1.9992    0.5752   -1.4611 O   0  0  0  0  0  0  0  0  0  0  0  0
    0.6865   -2.7718   -1.7522 C   0  0  0  0  0  0  0  0  0  0  0  0
    3.4366   -1.3315   -1.7859 H   0  0  0  0  0  0  0  0  0  0  0  0
    1.0011   -1.4170   -3.4021 H   0  0  0  0  0  0  0  0  0  0  0  0
    1.0235   -2.9111   -0.7201 H   0  0  0  0  0  0  0  0  0  0  0  0
   -0.3986   -2.6351   -1.7511 H   0  0  0  0  0  0  0  0  0  0  0  0
    0.9142   -3.6816   -2.3168 H   0  0  0  0  0  0  0  0  0  0  0  0
   -0.0701    0.0107   -0.9446 N   0  0  0  0  0  0  0  0  0  0  0  0
   -0.0666    0.2141    0.5212 C   0  0  2  0  0  0  0  0  0  0  0  0
    1.2342   -0.2836    1.2158 C   0  0  0  0  0  0  0  0  0  0  0  0
    1.2704   -1.4183    1.6817 O   0  0  0  0  0  0  0  0  0  0  0  0
   -1.3173   -0.4323    1.1688 C   0  0  0  0  0  0  0  0  0  0  0  0
   -2.6972    0.1814    0.8153 C   0  0  0  0  0  0  0  0  0  0  0  0
   -3.7879   -0.6979    1.4412 C   0  0  0  0  0  0  0  0  0  0  0  0
   -3.0037    0.3121   -0.6842 C   0  0  0  0  0  0  0  0  0  0  0  0
   -0.8251   -0.5932   -1.2553 H   0  0  0  0  0  0  0  0  0  0  0  0
   -0.1202    1.2911    0.7080 H   0  0  0  0  0  0  0  0  0  0  0  0
   -1.2027   -0.3803    2.2574 H   0  0  0  0  0  0  0  0  0  0  0  0
   -1.3263   -1.4941    0.8986 H   0  0  0  0  0  0  0  0  0  0  0  0
   -2.7530    1.1811    1.2598 H   0  0  0  0  0  0  0  0  0  0  0  0
   -3.7880   -1.6959    0.9912 H   0  0  0  0  0  0  0  0  0  0  0  0
   -4.7751   -0.2497    1.2908 H   0  0  0  0  0  0  0  0  0  0  0  0
   -3.6233   -0.8028    2.5182 H   0  0  0  0  0  0  0  0  0  0  0  0
   -2.8274   -0.6363   -1.2011 H   0  0  0  0  0  0  0  0  0  0  0  0
   -4.0500    0.5959   -0.8358 H   0  0  0  0  0  0  0  0  0  0  0  0
   -2.3870    1.0922   -1.1396 H   0  0  0  0  0  0  0  0  0  0  0  0
    2.3217    0.5573    1.3773 N   0  0  0  0  0  0  0  0  0  0  0  0
    3.6751    0.0612    1.6996 C   0  0  2  0  0  0  0  0  0  0  0  0
    4.1431   -1.1324    0.8196 C   0  0  0  0  0  0  0  0  0  0  0  0
    4.6947   -0.9319   -0.2574 O   0  0  0  0  0  0  0  0  0  0  0  0
    3.7741   -0.2408    3.2026 C   0  0  0  0  0  0  0  0  0  0  0  0
    2.2977    1.3334    0.7140 H   0  0  0  0  0  0  0  0  0  0  0  0
    4.3779    0.8742    1.4905 H   0  0  0  0  0  0  0  0  0  0  0  0
    3.1014   -1.0526    3.4931 H   0  0  0  0  0  0  0  0  0  0  0  0
    4.7969   -0.5306    3.4621 H   0  0  0  0  0  0  0  0  0  0  0  0
    3.5091    0.6484    3.7823 H   0  0  0  0  0  0  0  0  0  0  0  0
    3.8927   -2.4377    1.2005 N   0  0  0  0  0  0  0  0  0  0  0  0
    4.1864   -3.5924    0.3606 C   0  0  0  0  0  0  0  0  0  0  0  0
    3.1396   -2.5278    1.8840 H   0  0  0  0  0  0  0  0  0  0  0  0
    3.4773   -3.6541   -0.4699 H   0  0  0  0  0  0  0  0  0  0  0  0
    5.2017   -3.5296   -0.0449 H   0  0  0  0  0  0  0  0  0  0  0  0
    4.1122   -4.5122    0.9486 H   0  0  0  0  0  0  0  0  0  0  0  0
  1  2  2  0  0  0  0
  1  3  1  0  0  0  0
  1  7  1  0  0  0  0
  3  4  1  0  0  0  0
  3  5  1  0  0  0  0
  3  6  1  0  0  0  0
  7  8  1  0  0  0  0
  7 12  1  0  0  0  0
  8  9  1  0  0  0  0
  8 11  1  0  0  0  0
  8 13  1  0  0  0  0
  9 10  2  0  0  0  0
  9 17  1  0  0  0  0
 11 14  1  0  0  0  0
 11 15  1  0  0  0  0
 11 16  1  0  0  0  0
 17 18  1  0  0  0  0
 17 25  1  0  0  0  0
 18 19  1  0  0  0  0
 18 21  1  0  0  0  0
 18 26  1  0  0  0  0
 19 20  2  0  0  0  0
 19 36  1  0  0  0  0
 21 22  1  0  0  0  0
 21 27  1  0  0  0  0
 21 28  1  0  0  0  0
 22 23  1  0  0  0  0
 22 24  1  0  0  0  0
 22 29  1  0  0  0  0
 23 30  1  0  0  0  0
 23 31  1  0  0  0  0
 23 32  1  0  0  0  0
 24 33  1  0  0  0  0
 24 34  1  0  0  0  0
 24 35  1  0  0  0  0
 36 37  1  0  0  0  0
 36 41  1  0  0  0  0
 37 38  1  0  0  0  0
 37 40  1  0  0  0  0
 37 42  1  0  0  0  0
 38 39  2  0  0  0  0
 38 46  1  0  0  0  0
 40 43  1  0  0  0  0
 40 44  1  0  0  0  0
 40 45  1  0  0  0  0
 46 47  1  0  0  0  0
 46 48  1  0  0  0  0
 47 49  1  0  0  0  0
 47 50  1  0  0  0  0
 47 51  1  0  0  0  0
M  END
$$$$

  -OEChem-05262216553D

 51 50  0     1  0  0  0  0  0999 V2000
    3.5620   -2.3600   -3.3736 C   0  0  0  0  0  0  0  0  0  0  0  0
    2.9766   -2.8785   -4.3128 O   0  0  0  0  0  0  0  0  0  0  0  0
    5.0775   -2.3746   -3.3167 C   0  0  0  0  0  0  0  0  0  0  0  0
    5.4155   -3.1359   -2.6103 H   0  0  0  0  0  0  0  0  0  0  0  0
    5.4898   -2.5964   -4.3047 H   0  0  0  0  0  0  0  0  0  0  0  0
    5.4487   -1.3993   -2.9906 H   0  0  0  0  0  0  0  0  0  0  0  0
    2.8485   -1.7716   -2.3543 N   0  0  0  0  0  0  0  0  0  0  0  0
    1.4026   -1.5058   -2.4027 C   0  0  2  0  0  0  0  0  0  0  0  0
    1.0833   -0.2176   -1.6162 C   0  0  0  0  0  0  0  0  0  0  0  0
    1.9484    0.6357   -1.4513 O   0  0  0  0  0  0  0  0  0  0  0  0
    0.6666   -2.7299   -1.8449 C   0  0  0  0  0  0  0  0  0  0  0  0
    3.3993   -1.2318   -1.6757 H   0  0  0  0  0  0  0  0  0  0  0  0
    1.0861   -1.3387   -3.4377 H   0  0  0  0  0  0  0  0  0  0  0  0
    0.9574   -2.9127   -0.8060 H   0  0  0  0  0  0  0  0  0  0  0  0
   -0.4165   -2.5853   -1.8879 H   0  0  0  0  0  0  0  0  0  0  0  0
    0.9152   -3.6185   -2.4336 H   0  0  0  0  0  0  0  0  0  0  0  0
   -0.1177    0.0475   -0.9782 N   0  0  0  0  0  0  0  0  0  0  0  0
   -0.1092    0.2364    0.4896 C   0  0  2  0  0  0  0  0  0  0  0  0
    1.2001   -0.2713    1.1592 C   0  0  0  0  0  0  0  0  0  0  0  0
    1.2797   -1.4604    1.4525 O   0  0  0  0  0  0  0  0  0  0  0  0
   -1.3467   -0.4264    1.1437 C   0  0  0  0  0  0  0  0  0  0  0  0
   -2.7355    0.1765    0.8070 C   0  0  0  0  0  0  0  0  0  0  0  0
   -3.8119   -0.7177    1.4367 C   0  0  0  0  0  0  0  0  0  0  0  0
   -3.0552    0.3122   -0.6894 C   0  0  0  0  0  0  0  0  0  0  0  0
   -0.8593   -0.5717   -1.2908 H   0  0  0  0  0  0  0  0  0  0  0  0
   -0.1650    1.3111    0.6879 H   0  0  0  0  0  0  0  0  0  0  0  0
   -1.2207   -0.3823    2.2313 H   0  0  0  0  0  0  0  0  0  0  0  0
   -1.3484   -1.4861    0.8646 H   0  0  0  0  0  0  0  0  0  0  0  0
   -2.7975    1.1729    1.2574 H   0  0  0  0  0  0  0  0  0  0  0  0
   -3.7994   -1.7159    0.9869 H   0  0  0  0  0  0  0  0  0  0  0  0
   -4.8060   -0.2834    1.2905 H   0  0  0  0  0  0  0  0  0  0  0  0
   -3.6421   -0.8198    2.5131 H   0  0  0  0  0  0  0  0  0  0  0  0
   -2.8709   -0.6308   -1.2136 H   0  0  0  0  0  0  0  0  0  0  0  0
   -4.1060    0.5840   -0.8317 H   0  0  0  0  0  0  0  0  0  0  0  0
   -2.4513    1.1023   -1.1447 H   0  0  0  0  0  0  0  0  0  0  0  0
    2.1815    0.5971    1.6031 N   0  0  0  0  0  0  0  0  0  0  0  0
    3.5331    0.1262    1.9734 C   0  0  2  0  0  0  0  0  0  0  0  0
    4.1266   -0.9637    1.0310 C   0  0  0  0  0  0  0  0  0  0  0  0
    4.6027   -0.6563   -0.0569 O   0  0  0  0  0  0  0  0  0  0  0  0
    3.5181   -0.3086    3.4467 C   0  0  0  0  0  0  0  0  0  0  0  0
    2.1476    1.4984    1.1303 H   0  0  0  0  0  0  0  0  0  0  0  0
    4.2140    0.9798    1.8953 H   0  0  0  0  0  0  0  0  0  0  0  0
    2.8317   -1.1457    3.6051 H   0  0  0  0  0  0  0  0  0  0  0  0
    4.5203   -0.6147    3.7624 H   0  0  0  0  0  0  0  0  0  0  0  0
    3.1963    0.5230    4.0808 H   0  0  0  0  0  0  0  0  0  0  0  0
    4.0831   -2.3029    1.3764 N   0  0  0  0  0  0  0  0  0  0  0  0
    4.4724   -3.3730    0.4669 C   0  0  0  0  0  0  0  0  0  0  0  0
    3.3830   -2.5222    2.0829 H   0  0  0  0  0  0  0  0  0  0  0  0
    3.7419   -3.4715   -0.3417 H   0  0  0  0  0  0  0  0  0  0  0  0
    5.4583   -3.1749    0.0332 H   0  0  0  0  0  0  0  0  0  0  0  0
    4.5235   -4.3238    1.0058 H   0  0  0  0  0  0  0  0  0  0  0  0
  1  2  2  0  0  0  0
  1  3  1  0  0  0  0
  1  7  1  0  0  0  0
  3  4  1  0  0  0  0
  3  5  1  0  0  0  0
  3  6  1  0  0  0  0
  7  8  1  0  0  0  0
  7 12  1  0  0  0  0
  8  9  1  0  0  0  0
  8 11  1  0  0  0  0
  8 13  1  0  0  0  0
  9 10  2  0  0  0  0
  9 17  1  0  0  0  0
 11 14  1  0  0  0  0
 11 15  1  0  0  0  0
 11 16  1  0  0  0  0
 17 18  1  0  0  0  0
 17 25  1  0  0  0  0
 18 19  1  0  0  0  0
 18 21  1  0  0  0  0
 18 26  1  0  0  0  0
 19 20  2  0  0  0  0
 19 36  1  0  0  0  0
 21 22  1  0  0  0  0
 21 27  1  0  0  0  0
 21 28  1  0  0  0  0
 22 23  1  0  0  0  0
 22 24  1  0  0  0  0
 22 29  1  0  0  0  0
 23 30  1  0  0  0  0
 23 31  1  0  0  0  0
 23 32  1  0  0  0  0
 24 33  1  0  0  0  0
 24 34  1  0  0  0  0
 24 35  1  0  0  0  0
 36 37  1  0  0  0  0
 36 41  1  0  0  0  0
 37 38  1  0  0  0  0
 37 40  1  0  0  0  0
 37 42  1  0  0  0  0
 38 39  2  0  0  0  0
 38 46  1  0  0  0  0
 40 43  1  0  0  0  0
 40 44  1  0  0  0  0
 40 45  1  0  0  0  0
 46 47  1  0  0  0  0
 46 48  1  0  0  0  0
 47 49  1  0  0  0  0
 47 50  1  0  0  0  0
 47 51  1  0  0  0  0
M  END
$$$$

  -OEChem-05262216553D

 51 50  0     1  0  0  0  0  0999 V2000
    2.8141   -2.4267   -4.4357 C   0  0  0  0  0  0  0  0  0  0  0  0
    1.8489   -2.6200   -5.1581 O   0  0  0  0  0  0  0  0  0  0  0  0
    4.2194   -2.4923   -5.0035 C   0  0  0  0  0  0  0  0  0  0  0  0
    4.7953   -3.2628   -4.4849 H   0  0  0  0  0  0  0  0  0  0  0  0
    4.1852   -2.7355   -6.0692 H   0  0  0  0  0  0  0  0  0  0  0  0
    4.7185   -1.5284   -4.8783 H   0  0  0  0  0  0  0  0  0  0  0  0
    2.6287   -2.1401   -3.1003 N   0  0  0  0  0  0  0  0  0  0  0  0
    1.3202   -1.9145   -2.4735 C   0  0  2  0  0  0  0  0  0  0  0  0
    1.4181   -0.9293   -1.2906 C   0  0  0  0  0  0  0  0  0  0  0  0
    2.5171   -0.5643   -0.8869 O   0  0  0  0  0  0  0  0  0  0  0  0
    0.7711   -3.2627   -1.9954 C   0  0  0  0  0  0  0  0  0  0  0  0
    3.4477   -1.8531   -2.5651 H   0  0  0  0  0  0  0  0  0  0  0  0
    0.6306   -1.4809   -3.2059 H   0  0  0  0  0  0  0  0  0  0  0  0
    1.4397   -3.7051   -1.2496 H   0  0  0  0  0  0  0  0  0  0  0  0
   -0.2181   -3.1391   -1.5448 H   0  0  0  0  0  0  0  0  0  0  0  0
    0.6807   -3.9561   -2.8377 H   0  0  0  0  0  0  0  0  0  0  0  0
    0.2689   -0.3793   -0.7457 N   0  0  0  0  0  0  0  0  0  0  0  0
    0.1319    0.0824    0.6509 C   0  0  2  0  0  0  0  0  0  0  0  0
    1.2326   -0.4023    1.6295 C   0  0  0  0  0  0  0  0  0  0  0  0
    1.3419   -1.6011    1.8612 O   0  0  0  0  0  0  0  0  0  0  0  0
   -1.2495   -0.3085    1.2286 C   0  0  0  0  0  0  0  0  0  0  0  0
   -2.4997    0.3639    0.6021 C   0  0  0  0  0  0  0  0  0  0  0  0
   -3.7501   -0.2764    1.2207 C   0  0  0  0  0  0  0  0  0  0  0  0
   -2.6220    0.2501   -0.9250 C   0  0  0  0  0  0  0  0  0  0  0  0
   -0.5873   -0.7232   -1.1698 H   0  0  0  0  0  0  0  0  0  0  0  0
    0.1903    1.1745    0.6356 H   0  0  0  0  0  0  0  0  0  0  0  0
   -1.2511   -0.0745    2.2990 H   0  0  0  0  0  0  0  0  0  0  0  0
   -1.3535   -1.3959    1.1398 H   0  0  0  0  0  0  0  0  0  0  0  0
   -2.4855    1.4281    0.8617 H   0  0  0  0  0  0  0  0  0  0  0  0
   -3.8163   -1.3363    0.9545 H   0  0  0  0  0  0  0  0  0  0  0  0
   -4.6549    0.2275    0.8660 H   0  0  0  0  0  0  0  0  0  0  0  0
   -3.7222   -0.1936    2.3118 H   0  0  0  0  0  0  0  0  0  0  0  0
   -2.5029   -0.7890   -1.2475 H   0  0  0  0  0  0  0  0  0  0  0  0
   -3.6049    0.6006   -1.2561 H   0  0  0  0  0  0  0  0  0  0  0  0
   -1.8720    0.8722   -1.4215 H   0  0  0  0  0  0  0  0  0  0  0  0
    2.0302    0.5161    2.2939 N   0  0  0  0  0  0  0  0  0  0  0  0
    3.1210    0.2170    3.2464 C   0  0  2  0  0  0  0  0  0  0  0  0
    4.3534   -0.4850    2.6286 C   0  0  0  0  0  0  0  0  0  0  0  0
    5.4750   -0.1064    2.9426 O   0  0  0  0  0  0  0  0  0  0  0  0
    2.6060   -0.5603    4.4658 C   0  0  0  0  0  0  0  0  0  0  0  0
    1.9873    1.4650    1.9342 H   0  0  0  0  0  0  0  0  0  0  0  0
    3.4823    1.1809    3.6189 H   0  0  0  0  0  0  0  0  0  0  0  0
    2.3407   -1.5876    4.1998 H   0  0  0  0  0  0  0  0  0  0  0  0
    3.3815   -0.6002    5.2371 H   0  0  0  0  0  0  0  0  0  0  0  0
    1.7239   -0.0688    4.8865 H   0  0  0  0  0  0  0  0  0  0  0  0
    4.2179   -1.5241    1.7308 N   0  0  0  0  0  0  0  0  0  0  0  0
    5.3296   -2.1352    1.0186 C   0  0  0  0  0  0  0  0  0  0  0  0
    3.2602   -1.7583    1.4579 H   0  0  0  0  0  0  0  0  0  0  0  0
    5.8320   -1.3939    0.3889 H   0  0  0  0  0  0  0  0  0  0  0  0
    6.0556   -2.5513    1.7247 H   0  0  0  0  0  0  0  0  0  0  0  0
    4.9657   -2.9452    0.3794 H   0  0  0  0  0  0  0  0  0  0  0  0
  1  2  2  0  0  0  0
  1  3  1  0  0  0  0
  1  7  1  0  0  0  0
  3  4  1  0  0  0  0
  3  5  1  0  0  0  0
  3  6  1  0  0  0  0
  7  8  1  0  0  0  0
  7 12  1  0  0  0  0
  8  9  1  0  0  0  0
  8 11  1  0  0  0  0
  8 13  1  0  0  0  0
  9 10  2  0  0  0  0
  9 17  1  0  0  0  0
 11 14  1  0  0  0  0
 11 15  1  0  0  0  0
 11 16  1  0  0  0  0
 17 18  1  0  0  0  0
 17 25  1  0  0  0  0
 18 19  1  0  0  0  0
 18 21  1  0  0  0  0
 18 26  1  0  0  0  0
 19 20  2  0  0  0  0
 19 36  1  0  0  0  0
 21 22  1  0  0  0  0
 21 27  1  0  0  0  0
 21 28  1  0  0  0  0
 22 23  1  0  0  0  0
 22 24  1  0  0  0  0
 22 29  1  0  0  0  0
 23 30  1  0  0  0  0
 23 31  1  0  0  0  0
 23 32  1  0  0  0  0
 24 33  1  0  0  0  0
 24 34  1  0  0  0  0
 24 35  1  0  0  0  0
 36 37  1  0  0  0  0
 36 41  1  0  0  0  0
 37 38  1  0  0  0  0
 37 40  1  0  0  0  0
 37 42  1  0  0  0  0
 38 39  2  0  0  0  0
 38 46  1  0  0  0  0
 40 43  1  0  0  0  0
 40 44  1  0  0  0  0
 40 45  1  0  0  0  0
 46 47  1  0  0  0  0
 46 48  1  0  0  0  0
 47 49  1  0  0  0  0
 47 50  1  0  0  0  0
 47 51  1  0  0  0  0
M  END
$$$$

  -OEChem-05262216553D

 51 50  0     1  0  0  0  0  0999 V2000
    2.8561   -2.4478   -4.3776 C   0  0  0  0  0  0  0  0  0  0  0  0
    1.9038   -2.5945   -5.1276 O   0  0  0  0  0  0  0  0  0  0  0  0
    4.2720   -2.5565   -4.9116 C   0  0  0  0  0  0  0  0  0  0  0  0
    4.7856   -3.3960   -4.4367 H   0  0  0  0  0  0  0  0  0  0  0  0
    4.2561   -2.7190   -5.9930 H   0  0  0  0  0  0  0  0  0  0  0  0
    4.8221   -1.6359   -4.7022 H   0  0  0  0  0  0  0  0  0  0  0  0
    2.6468   -2.1713   -3.0435 N   0  0  0  0  0  0  0  0  0  0  0  0
    1.3318   -1.8992   -2.4494 C   0  0  2  0  0  0  0  0  0  0  0  0
    1.4315   -0.9172   -1.2636 C   0  0  0  0  0  0  0  0  0  0  0  0
    2.5311   -0.5605   -0.8507 O   0  0  0  0  0  0  0  0  0  0  0  0
    0.7239   -3.2281   -1.9890 C   0  0  0  0  0  0  0  0  0  0  0  0
    3.4618   -1.9235   -2.4835 H   0  0  0  0  0  0  0  0  0  0  0  0
    0.6761   -1.4422   -3.1983 H   0  0  0  0  0  0  0  0  0  0  0  0
    1.3540   -3.6916   -1.2226 H   0  0  0  0  0  0  0  0  0  0  0  0
   -0.2745   -3.0717   -1.5697 H   0  0  0  0  0  0  0  0  0  0  0  0
    0.6374   -3.9186   -2.8341 H   0  0  0  0  0  0  0  0  0  0  0  0
    0.2825   -0.3557   -0.7286 N   0  0  0  0  0  0  0  0  0  0  0  0
    0.1290    0.0682    0.6788 C   0  0  2  0  0  0  0  0  0  0  0  0
    1.1936   -0.4673    1.6711 C   0  0  0  0  0  0  0  0  0  0  0  0
    1.4164   -1.6712    1.7245 O   0  0  0  0  0  0  0  0  0  0  0  0
   -1.2680   -0.3230    1.2164 C   0  0  0  0  0  0  0  0  0  0  0  0
   -2.4989    0.3821    0.5872 C   0  0  0  0  0  0  0  0  0  0  0  0
   -3.7667   -0.2632    1.1626 C   0  0  0  0  0  0  0  0  0  0  0  0
   -2.5962    0.3175   -0.9445 C   0  0  0  0  0  0  0  0  0  0  0  0
   -0.5703   -0.6847   -1.1706 H   0  0  0  0  0  0  0  0  0  0  0  0
    0.2079    1.1589    0.6959 H   0  0  0  0  0  0  0  0  0  0  0  0
   -1.2899   -0.1229    2.2936 H   0  0  0  0  0  0  0  0  0  0  0  0
   -1.3809   -1.4059    1.0914 H   0  0  0  0  0  0  0  0  0  0  0  0
   -2.4778    1.4375    0.8798 H   0  0  0  0  0  0  0  0  0  0  0  0
   -3.8370   -1.3144    0.8650 H   0  0  0  0  0  0  0  0  0  0  0  0
   -4.6594    0.2590    0.8043 H   0  0  0  0  0  0  0  0  0  0  0  0
   -3.7595   -0.2117    2.2558 H   0  0  0  0  0  0  0  0  0  0  0  0
   -2.4882   -0.7129   -1.2977 H   0  0  0  0  0  0  0  0  0  0  0  0
   -3.5680    0.6940   -1.2798 H   0  0  0  0  0  0  0  0  0  0  0  0
   -1.8286    0.9430   -1.4089 H   0  0  0  0  0  0  0  0  0  0  0  0
    1.7757    0.3839    2.5972 N   0  0  0  0  0  0  0  0  0  0  0  0
    2.8055    0.0269    3.5978 C   0  0  2  0  0  0  0  0  0  0  0  0
    4.1736   -0.3943    3.0096 C   0  0  0  0  0  0  0  0  0  0  0  0
    5.1959   -0.0876    3.6101 O   0  0  0  0  0  0  0  0  0  0  0  0
    2.2933   -1.0298    4.5866 C   0  0  0  0  0  0  0  0  0  0  0  0
    1.6046    1.3740    2.4498 H   0  0  0  0  0  0  0  0  0  0  0  0
    3.0008    0.9330    4.1805 H   0  0  0  0  0  0  0  0  0  0  0  0
    2.2067   -2.0107    4.1107 H   0  0  0  0  0  0  0  0  0  0  0  0
    2.9896   -1.1226    5.4261 H   0  0  0  0  0  0  0  0  0  0  0  0
    1.3135   -0.7425    4.9787 H   0  0  0  0  0  0  0  0  0  0  0  0
    4.2753   -1.0886    1.8204 N   0  0  0  0  0  0  0  0  0  0  0  0
    5.5358   -1.4583    1.1953 C   0  0  0  0  0  0  0  0  0  0  0  0
    3.3978   -1.3396    1.3577 H   0  0  0  0  0  0  0  0  0  0  0  0
    6.1202   -0.5638    0.9565 H   0  0  0  0  0  0  0  0  0  0  0  0
    6.1226   -2.0976    1.8629 H   0  0  0  0  0  0  0  0  0  0  0  0
    5.3465   -2.0061    0.2674 H   0  0  0  0  0  0  0  0  0  0  0  0
  1  2  2  0  0  0  0
  1  3  1  0  0  0  0
  1  7  1  0  0  0  0
  3  4  1  0  0  0  0
  3  5  1  0  0  0  0
  3  6  1  0  0  0  0
  7  8  1  0  0  0  0
  7 12  1  0  0  0  0
  8  9  1  0  0  0  0
  8 11  1  0  0  0  0
  8 13  1  0  0  0  0
  9 10  2  0  0  0  0
  9 17  1  0  0  0  0
 11 14  1  0  0  0  0
 11 15  1  0  0  0  0
 11 16  1  0  0  0  0
 17 18  1  0  0  0  0
 17 25  1  0  0  0  0
 18 19  1  0  0  0  0
 18 21  1  0  0  0  0
 18 26  1  0  0  0  0
 19 20  2  0  0  0  0
 19 36  1  0  0  0  0
 21 22  1  0  0  0  0
 21 27  1  0  0  0  0
 21 28  1  0  0  0  0
 22 23  1  0  0  0  0
 22 24  1  0  0  0  0
 22 29  1  0  0  0  0
 23 30  1  0  0  0  0
 23 31  1  0  0  0  0
 23 32  1  0  0  0  0
 24 33  1  0  0  0  0
 24 34  1  0  0  0  0
 24 35  1  0  0  0  0
 36 37  1  0  0  0  0
 36 41  1  0  0  0  0
 37 38  1  0  0  0  0
 37 40  1  0  0  0  0
 37 42  1  0  0  0  0
 38 39  2  0  0  0  0
 38 46  1  0  0  0  0
 40 43  1  0  0  0  0
 40 44  1  0  0  0  0
 40 45  1  0  0  0  0
 46 47  1  0  0  0  0
 46 48  1  0  0  0  0
 47 49  1  0  0  0  0
 47 50  1  0  0  0  0
 47 51  1  0  0  0  0
M  END
$$$$

  -OEChem-05262216553D

 51 50  0     1  0  0  0  0  0999 V2000
    1.0027   -2.8799   -2.1204 C   0  0  0  0  0  0  0  0  0  0  0  0
   -0.1481   -2.4799   -2.2126 O   0  0  0  0  0  0  0  0  0  0  0  0
    1.2753   -4.2502   -1.5310 C   0  0  0  0  0  0  0  0  0  0  0  0
    1.7972   -4.1443   -0.5760 H   0  0  0  0  0  0  0  0  0  0  0  0
    0.3357   -4.7835   -1.3622 H   0  0  0  0  0  0  0  0  0  0  0  0
    1.8944   -4.8362   -2.2143 H   0  0  0  0  0  0  0  0  0  0  0  0
    2.0660   -2.0707   -2.4702 N   0  0  0  0  0  0  0  0  0  0  0  0
    1.9889   -0.6273   -2.7673 C   0  0  2  0  0  0  0  0  0  0  0  0
    1.6030    0.1982   -1.5229 C   0  0  0  0  0  0  0  0  0  0  0  0
    2.4226    0.9658   -1.0310 O   0  0  0  0  0  0  0  0  0  0  0  0
    1.0842   -0.3169   -3.9697 C   0  0  0  0  0  0  0  0  0  0  0  0
    2.9734   -2.4213   -2.1729 H   0  0  0  0  0  0  0  0  0  0  0  0
    2.9976   -0.3069   -3.0477 H   0  0  0  0  0  0  0  0  0  0  0  0
    0.0282   -0.4739   -3.7333 H   0  0  0  0  0  0  0  0  0  0  0  0
    1.2111    0.7274   -4.2716 H   0  0  0  0  0  0  0  0  0  0  0  0
    1.3495   -0.9566   -4.8171 H   0  0  0  0  0  0  0  0  0  0  0  0
    0.3805    0.0444   -0.8894 N   0  0  0  0  0  0  0  0  0  0  0  0
    0.2838   -0.1592    0.5725 C   0  0  2  0  0  0  0  0  0  0  0  0
    1.5931   -0.5621    1.3024 C   0  0  0  0  0  0  0  0  0  0  0  0
    2.3349   -1.4090    0.8109 O   0  0  0  0  0  0  0  0  0  0  0  0
   -0.8237   -1.1760    0.9346 C   0  0  0  0  0  0  0  0  0  0  0  0
   -2.2884   -0.7616    0.6354 C   0  0  0  0  0  0  0  0  0  0  0  0
   -3.1965   -1.9626    0.9299 C   0  0  0  0  0  0  0  0  0  0  0  0
   -2.5784   -0.2870   -0.7961 C   0  0  0  0  0  0  0  0  0  0  0  0
   -0.2032   -0.6128   -1.4142 H   0  0  0  0  0  0  0  0  0  0  0  0
   -0.0055    0.8081    0.9937 H   0  0  0  0  0  0  0  0  0  0  0  0
   -0.7575   -1.3926    2.0060 H   0  0  0  0  0  0  0  0  0  0  0  0
   -0.6065   -2.1112    0.4085 H   0  0  0  0  0  0  0  0  0  0  0  0
   -2.5567    0.0535    1.3161 H   0  0  0  0  0  0  0  0  0  0  0  0
   -2.9793   -2.7887    0.2445 H   0  0  0  0  0  0  0  0  0  0  0  0
   -4.2489   -1.6843    0.8156 H   0  0  0  0  0  0  0  0  0  0  0  0
   -3.0472   -2.3134    1.9559 H   0  0  0  0  0  0  0  0  0  0  0  0
   -2.2264   -1.0186   -1.5283 H   0  0  0  0  0  0  0  0  0  0  0  0
   -3.6549   -0.1519   -0.9405 H   0  0  0  0  0  0  0  0  0  0  0  0
   -2.1006    0.6769   -0.9916 H   0  0  0  0  0  0  0  0  0  0  0  0
    1.7952   -0.1835    2.6204 N   0  0  0  0  0  0  0  0  0  0  0  0
    2.9526   -0.5367    3.4718 C   0  0  2  0  0  0  0  0  0  0  0  0
    4.3214   -0.0004    2.9841 C   0  0  0  0  0  0  0  0  0  0  0  0
    5.1854    0.2562    3.8128 O   0  0  0  0  0  0  0  0  0  0  0  0
    3.0194   -2.0498    3.7230 C   0  0  0  0  0  0  0  0  0  0  0  0
    1.1579    0.5224    2.9774 H   0  0  0  0  0  0  0  0  0  0  0  0
    2.7808   -0.0629    4.4436 H   0  0  0  0  0  0  0  0  0  0  0  0
    3.3341   -2.5880    2.8244 H   0  0  0  0  0  0  0  0  0  0  0  0
    3.7427   -2.2647    4.5161 H   0  0  0  0  0  0  0  0  0  0  0  0
    2.0413   -2.4285    4.0337 H   0  0  0  0  0  0  0  0  0  0  0  0
    4.5928    0.2063    1.6451 N   0  0  0  0  0  0  0  0  0  0  0  0
    5.8676    0.6873    1.1337 C   0  0  0  0  0  0  0  0  0  0  0  0
    3.8838   -0.1141    0.9815 H   0  0  0  0  0  0  0  0  0  0  0  0
    5.8000    0.8481    0.0533 H   0  0  0  0  0  0  0  0  0  0  0  0
    6.1378    1.6371    1.6066 H   0  0  0  0  0  0  0  0  0  0  0  0
    6.6585   -0.0437    1.3296 H   0  0  0  0  0  0  0  0  0  0  0  0
  1  2  2  0  0  0  0
  1  3  1  0  0  0  0
  1  7  1  0  0  0  0
  3  4  1  0  0  0  0
  3  5  1  0  0  0  0
  3  6  1  0  0  0  0
  7  8  1  0  0  0  0
  7 12  1  0  0  0  0
  8  9  1  0  0  0  0
  8 11  1  0  0  0  0
  8 13  1  0  0  0  0
  9 10  2  0  0  0  0
  9 17  1  0  0  0  0
 11 14  1  0  0  0  0
 11 15  1  0  0  0  0
 11 16  1  0  0  0  0
 17 18  1  0  0  0  0
 17 25  1  0  0  0  0
 18 19  1  0  0  0  0
 18 21  1  0  0  0  0
 18 26  1  0  0  0  0
 19 20  2  0  0  0  0
 19 36  1  0  0  0  0
 21 22  1  0  0  0  0
 21 27  1  0  0  0  0
 21 28  1  0  0  0  0
 22 23  1  0  0  0  0
 22 24  1  0  0  0  0
 22 29  1  0  0  0  0
 23 30  1  0  0  0  0
 23 31  1  0  0  0  0
 23 32  1  0  0  0  0
 24 33  1  0  0  0  0
 24 34  1  0  0  0  0
 24 35  1  0  0  0  0
 36 37  1  0  0  0  0
 36 41  1  0  0  0  0
 37 38  1  0  0  0  0
 37 40  1  0  0  0  0
 37 42  1  0  0  0  0
 38 39  2  0  0  0  0
 38 46  1  0  0  0  0
 40 43  1  0  0  0  0
 40 44  1  0  0  0  0
 40 45  1  0  0  0  0
 46 47  1  0  0  0  0
 46 48  1  0  0  0  0
 47 49  1  0  0  0  0
 47 50  1  0  0  0  0
 47 51  1  0  0  0  0
M  END
$$$$

  -OEChem-05262216553D

 51 50  0     1  0  0  0  0  0999 V2000
    0.9686   -2.8205   -2.1329 C   0  0  0  0  0  0  0  0  0  0  0  0
   -0.1926   -2.4428   -2.1771 O   0  0  0  0  0  0  0  0  0  0  0  0
    1.2929   -4.1863   -1.5597 C   0  0  0  0  0  0  0  0  0  0  0  0
    1.8783   -4.0725   -0.6434 H   0  0  0  0  0  0  0  0  0  0  0  0
    0.3721   -4.7272   -1.3248 H   0  0  0  0  0  0  0  0  0  0  0  0
    1.8688   -4.7687   -2.2830 H   0  0  0  0  0  0  0  0  0  0  0  0
    2.0015   -1.9915   -2.5241 N   0  0  0  0  0  0  0  0  0  0  0  0
    1.8853   -0.5519   -2.8254 C   0  0  2  0  0  0  0  0  0  0  0  0
    1.5228    0.2779   -1.5768 C   0  0  0  0  0  0  0  0  0  0  0  0
    2.3175    1.1061   -1.1481 O   0  0  0  0  0  0  0  0  0  0  0  0
    0.9347   -0.2686   -3.9980 C   0  0  0  0  0  0  0  0  0  0  0  0
    2.9280   -2.3245   -2.2687 H   0  0  0  0  0  0  0  0  0  0  0  0
    2.8775   -0.2129   -3.1409 H   0  0  0  0  0  0  0  0  0  0  0  0
   -0.1091   -0.4449   -3.7240 H   0  0  0  0  0  0  0  0  0  0  0  0
    1.0302    0.7761   -4.3101 H   0  0  0  0  0  0  0  0  0  0  0  0
    1.1838   -0.9089   -4.8495 H   0  0  0  0  0  0  0  0  0  0  0  0
    0.3268    0.1115   -0.8998 N   0  0  0  0  0  0  0  0  0  0  0  0
    0.2786   -0.0759    0.5668 C   0  0  2  0  0  0  0  0  0  0  0  0
    1.6062   -0.4516    1.2872 C   0  0  0  0  0  0  0  0  0  0  0  0
    2.4251   -1.1873    0.7415 O   0  0  0  0  0  0  0  0  0  0  0  0
   -0.8151   -1.1035    0.9512 C   0  0  0  0  0  0  0  0  0  0  0  0
   -2.2904   -0.7035    0.6812 C   0  0  0  0  0  0  0  0  0  0  0  0
   -3.1782   -1.9148    0.9948 C   0  0  0  0  0  0  0  0  0  0  0  0
   -2.6190   -0.2327   -0.7433 C   0  0  0  0  0  0  0  0  0  0  0  0
   -0.2602   -0.5644   -1.3960 H   0  0  0  0  0  0  0  0  0  0  0  0
   -0.0125    0.8921    0.9847 H   0  0  0  0  0  0  0  0  0  0  0  0
   -0.7317   -1.3224    2.0207 H   0  0  0  0  0  0  0  0  0  0  0  0
   -0.5989   -2.0366    0.4216 H   0  0  0  0  0  0  0  0  0  0  0  0
   -2.5533    0.1090    1.3669 H   0  0  0  0  0  0  0  0  0  0  0  0
   -2.9622   -2.7398    0.3078 H   0  0  0  0  0  0  0  0  0  0  0  0
   -4.2361   -1.6509    0.8979 H   0  0  0  0  0  0  0  0  0  0  0  0
   -3.0068   -2.2609    2.0188 H   0  0  0  0  0  0  0  0  0  0  0  0
   -2.2772   -0.9613   -1.4836 H   0  0  0  0  0  0  0  0  0  0  0  0
   -3.7001   -0.1084   -0.8617 H   0  0  0  0  0  0  0  0  0  0  0  0
   -2.1558    0.7359   -0.9504 H   0  0  0  0  0  0  0  0  0  0  0  0
    1.6804   -0.3217    2.6669 N   0  0  0  0  0  0  0  0  0  0  0  0
    2.7484   -0.8207    3.5615 C   0  0  2  0  0  0  0  0  0  0  0  0
    4.1474   -0.2012    3.3308 C   0  0  0  0  0  0  0  0  0  0  0  0
    4.8227    0.1196    4.3003 O   0  0  0  0  0  0  0  0  0  0  0  0
    2.8237   -2.3539    3.5418 C   0  0  0  0  0  0  0  0  0  0  0  0
    0.9606    0.2567    3.0900 H   0  0  0  0  0  0  0  0  0  0  0  0
    2.4621   -0.5327    4.5783 H   0  0  0  0  0  0  0  0  0  0  0  0
    3.2371   -2.7195    2.5977 H   0  0  0  0  0  0  0  0  0  0  0  0
    3.4696   -2.7060    4.3523 H   0  0  0  0  0  0  0  0  0  0  0  0
    1.8283   -2.7865    3.6789 H   0  0  0  0  0  0  0  0  0  0  0  0
    4.6539   -0.0056    2.0614 N   0  0  0  0  0  0  0  0  0  0  0  0
    5.9496    0.5944    1.7797 C   0  0  0  0  0  0  0  0  0  0  0  0
    4.0621   -0.3105    1.2840 H   0  0  0  0  0  0  0  0  0  0  0  0
    6.7516    0.0071    2.2383 H   0  0  0  0  0  0  0  0  0  0  0  0
    6.1207    0.6302    0.6996 H   0  0  0  0  0  0  0  0  0  0  0  0
    5.9908    1.6162    2.1708 H   0  0  0  0  0  0  0  0  0  0  0  0
  1  2  2  0  0  0  0
  1  3  1  0  0  0  0
  1  7  1  0  0  0  0
  3  4  1  0  0  0  0
  3  5  1  0  0  0  0
  3  6  1  0  0  0  0
  7  8  1  0  0  0  0
  7 12  1  0  0  0  0
  8  9  1  0  0  0  0
  8 11  1  0  0  0  0
  8 13  1  0  0  0  0
  9 10  2  0  0  0  0
  9 17  1  0  0  0  0
 11 14  1  0  0  0  0
 11 15  1  0  0  0  0
 11 16  1  0  0  0  0
 17 18  1  0  0  0  0
 17 25  1  0  0  0  0
 18 19  1  0  0  0  0
 18 21  1  0  0  0  0
 18 26  1  0  0  0  0
 19 20  2  0  0  0  0
 19 36  1  0  0  0  0
 21 22  1  0  0  0  0
 21 27  1  0  0  0  0
 21 28  1  0  0  0  0
 22 23  1  0  0  0  0
 22 24  1  0  0  0  0
 22 29  1  0  0  0  0
 23 30  1  0  0  0  0
 23 31  1  0  0  0  0
 23 32  1  0  0  0  0
 24 33  1  0  0  0  0
 24 34  1  0  0  0  0
 24 35  1  0  0  0  0
 36 37  1  0  0  0  0
 36 41  1  0  0  0  0
 37 38  1  0  0  0  0
 37 40  1  0  0  0  0
 37 42  1  0  0  0  0
 38 39  2  0  0  0  0
 38 46  1  0  0  0  0
 40 43  1  0  0  0  0
 40 44  1  0  0  0  0
 40 45  1  0  0  0  0
 46 47  1  0  0  0  0
 46 48  1  0  0  0  0
 47 49  1  0  0  0  0
 47 50  1  0  0  0  0
 47 51  1  0  0  0  0
M  END
$$$$

  -OEChem-05262216553D

 51 50  0     1  0  0  0  0  0999 V2000
    1.0629   -2.9319   -2.1101 C   0  0  0  0  0  0  0  0  0  0  0  0
   -0.1280   -2.6860   -2.0124 O   0  0  0  0  0  0  0  0  0  0  0  0
    1.6042   -4.2466   -1.5820 C   0  0  0  0  0  0  0  0  0  0  0  0
    2.2800   -4.0598   -0.7434 H   0  0  0  0  0  0  0  0  0  0  0  0
    0.7836   -4.8828   -1.2384 H   0  0  0  0  0  0  0  0  0  0  0  0
    2.1490   -4.7714   -2.3705 H   0  0  0  0  0  0  0  0  0  0  0  0
    1.9358   -1.9974   -2.6280 N   0  0  0  0  0  0  0  0  0  0  0  0
    1.6105   -0.5998   -2.9679 C   0  0  2  0  0  0  0  0  0  0  0  0
    1.3319    0.2699   -1.7243 C   0  0  0  0  0  0  0  0  0  0  0  0
    2.0083    1.2737   -1.5417 O   0  0  0  0  0  0  0  0  0  0  0  0
    0.4871   -0.4850   -4.0099 C   0  0  0  0  0  0  0  0  0  0  0  0
    2.9221   -2.2247   -2.5292 H   0  0  0  0  0  0  0  0  0  0  0  0
    2.5060   -0.1774   -3.4357 H   0  0  0  0  0  0  0  0  0  0  0  0
   -0.4852   -0.7538   -3.5884 H   0  0  0  0  0  0  0  0  0  0  0  0
    0.4227    0.5448   -4.3751 H   0  0  0  0  0  0  0  0  0  0  0  0
    0.6913   -1.1423   -4.8604 H   0  0  0  0  0  0  0  0  0  0  0  0
    0.2331    0.1009   -0.8992 N   0  0  0  0  0  0  0  0  0  0  0  0
    0.3392   -0.0613    0.5719 C   0  0  2  0  0  0  0  0  0  0  0  0
    1.7415   -0.0649    1.2620 C   0  0  0  0  0  0  0  0  0  0  0  0
    2.7551   -0.3908    0.6559 O   0  0  0  0  0  0  0  0  0  0  0  0
   -0.5110   -1.2766    1.0320 C   0  0  0  0  0  0  0  0  0  0  0  0
   -2.0527   -1.1607    0.8694 C   0  0  0  0  0  0  0  0  0  0  0  0
   -2.6752   -2.5133    1.2393 C   0  0  0  0  0  0  0  0  0  0  0  0
   -2.5875   -0.7428   -0.5090 C   0  0  0  0  0  0  0  0  0  0  0  0
   -0.3751   -0.6137   -1.3035 H   0  0  0  0  0  0  0  0  0  0  0  0
   -0.1401    0.8312    0.9848 H   0  0  0  0  0  0  0  0  0  0  0  0
   -0.3259   -1.4695    2.0922 H   0  0  0  0  0  0  0  0  0  0  0  0
   -0.1572   -2.1595    0.4931 H   0  0  0  0  0  0  0  0  0  0  0  0
   -2.4053   -0.4139    1.5886 H   0  0  0  0  0  0  0  0  0  0  0  0
   -2.3658   -3.2866    0.5282 H   0  0  0  0  0  0  0  0  0  0  0  0
   -3.7678   -2.4495    1.2281 H   0  0  0  0  0  0  0  0  0  0  0  0
   -2.3631   -2.8186    2.2429 H   0  0  0  0  0  0  0  0  0  0  0  0
   -2.2068   -1.3976   -1.2958 H   0  0  0  0  0  0  0  0  0  0  0  0
   -3.6804   -0.7998   -0.5225 H   0  0  0  0  0  0  0  0  0  0  0  0
   -2.3141    0.2912   -0.7365 H   0  0  0  0  0  0  0  0  0  0  0  0
    1.8009   -0.2087    2.6428 N   0  0  0  0  0  0  0  0  0  0  0  0
    2.9821   -0.5280    3.4767 C   0  0  2  0  0  0  0  0  0  0  0  0
    4.1279    0.5121    3.4378 C   0  0  0  0  0  0  0  0  0  0  0  0
    4.6427    0.8686    4.4899 O   0  0  0  0  0  0  0  0  0  0  0  0
    3.5139   -1.9366    3.1767 C   0  0  0  0  0  0  0  0  0  0  0  0
    0.9342   -0.0169    3.1360 H   0  0  0  0  0  0  0  0  0  0  0  0
    2.6335   -0.5397    4.5144 H   0  0  0  0  0  0  0  0  0  0  0  0
    4.0023   -1.9774    2.1990 H   0  0  0  0  0  0  0  0  0  0  0  0
    4.2484   -2.2272    3.9345 H   0  0  0  0  0  0  0  0  0  0  0  0
    2.6963   -2.6632    3.1903 H   0  0  0  0  0  0  0  0  0  0  0  0
    4.5908    1.0403    2.2494 N   0  0  0  0  0  0  0  0  0  0  0  0
    5.6670    2.0152    2.1486 C   0  0  0  0  0  0  0  0  0  0  0  0
    4.1454    0.6927    1.3947 H   0  0  0  0  0  0  0  0  0  0  0  0
    6.5956    1.6040    2.5575 H   0  0  0  0  0  0  0  0  0  0  0  0
    5.8367    2.2796    1.1005 H   0  0  0  0  0  0  0  0  0  0  0  0
    5.4109    2.9266    2.6986 H   0  0  0  0  0  0  0  0  0  0  0  0
  1  2  2  0  0  0  0
  1  3  1  0  0  0  0
  1  7  1  0  0  0  0
  3  4  1  0  0  0  0
  3  5  1  0  0  0  0
  3  6  1  0  0  0  0
  7  8  1  0  0  0  0
  7 12  1  0  0  0  0
  8  9  1  0  0  0  0
  8 11  1  0  0  0  0
  8 13  1  0  0  0  0
  9 10  2  0  0  0  0
  9 17  1  0  0  0  0
 11 14  1  0  0  0  0
 11 15  1  0  0  0  0
 11 16  1  0  0  0  0
 17 18  1  0  0  0  0
 17 25  1  0  0  0  0
 18 19  1  0  0  0  0
 18 21  1  0  0  0  0
 18 26  1  0  0  0  0
 19 20  2  0  0  0  0
 19 36  1  0  0  0  0
 21 22  1  0  0  0  0
 21 27  1  0  0  0  0
 21 28  1  0  0  0  0
 22 23  1  0  0  0  0
 22 24  1  0  0  0  0
 22 29  1  0  0  0  0
 23 30  1  0  0  0  0
 23 31  1  0  0  0  0
 23 32  1  0  0  0  0
 24 33  1  0  0  0  0
 24 34  1  0  0  0  0
 24 35  1  0  0  0  0
 36 37  1  0  0  0  0
 36 41  1  0  0  0  0
 37 38  1  0  0  0  0
 37 40  1  0  0  0  0
 37 42  1  0  0  0  0
 38 39  2  0  0  0  0
 38 46  1  0  0  0  0
 40 43  1  0  0  0  0
 40 44  1  0  0  0  0
 40 45  1  0  0  0  0
 46 47  1  0  0  0  0
 46 48  1  0  0  0  0
 47 49  1  0  0  0  0
 47 50  1  0  0  0  0
 47 51  1  0  0  0  0
M  END
$$$$

  -OEChem-05262216553D

 51 50  0     1  0  0  0  0  0999 V2000
    1.0327   -1.8347   -3.8593 C   0  0  0  0  0  0  0  0  0  0  0  0
    0.5488   -0.8764   -3.2777 O   0  0  0  0  0  0  0  0  0  0  0  0
    0.3833   -2.3495   -5.1298 C   0  0  0  0  0  0  0  0  0  0  0  0
   -0.0294   -3.3469   -4.9602 H   0  0  0  0  0  0  0  0  0  0  0  0
   -0.4258   -1.6812   -5.4380 H   0  0  0  0  0  0  0  0  0  0  0  0
    1.1213   -2.4002   -5.9342 H   0  0  0  0  0  0  0  0  0  0  0  0
    2.1349   -2.4903   -3.3458 N   0  0  0  0  0  0  0  0  0  0  0  0
    2.8944   -2.1314   -2.1300 C   0  0  2  0  0  0  0  0  0  0  0  0
    2.1264   -2.3167   -0.8025 C   0  0  0  0  0  0  0  0  0  0  0  0
    2.5354   -3.1286    0.0174 O   0  0  0  0  0  0  0  0  0  0  0  0
    3.4674   -0.7102   -2.2250 C   0  0  0  0  0  0  0  0  0  0  0  0
    2.4412   -3.3126   -3.8585 H   0  0  0  0  0  0  0  0  0  0  0  0
    3.7508   -2.8119   -2.0774 H   0  0  0  0  0  0  0  0  0  0  0  0
    2.6766    0.0434   -2.1718 H   0  0  0  0  0  0  0  0  0  0  0  0
    4.1598   -0.5321   -1.3957 H   0  0  0  0  0  0  0  0  0  0  0  0
    4.0121   -0.5800   -3.1647 H   0  0  0  0  0  0  0  0  0  0  0  0
    0.8843   -1.7495   -0.5827 N   0  0  0  0  0  0  0  0  0  0  0  0
    0.5144   -1.0022    0.6419 C   0  0  2  0  0  0  0  0  0  0  0  0
    1.6029   -0.8344    1.7518 C   0  0  0  0  0  0  0  0  0  0  0  0
    2.7612   -0.5940    1.4290 O   0  0  0  0  0  0  0  0  0  0  0  0
   -0.7649   -1.6650    1.2336 C   0  0  0  0  0  0  0  0  0  0  0  0
   -2.0806   -1.5757    0.4126 C   0  0  0  0  0  0  0  0  0  0  0  0
   -3.1471   -2.4210    1.1239 C   0  0  0  0  0  0  0  0  0  0  0  0
   -2.0017   -2.0562   -1.0423 C   0  0  0  0  0  0  0  0  0  0  0  0
    0.5433   -1.3080   -1.4405 H   0  0  0  0  0  0  0  0  0  0  0  0
    0.2602    0.0182    0.3403 H   0  0  0  0  0  0  0  0  0  0  0  0
   -0.9918   -1.2227    2.2061 H   0  0  0  0  0  0  0  0  0  0  0  0
   -0.5308   -2.7217    1.4070 H   0  0  0  0  0  0  0  0  0  0  0  0
   -2.4101   -0.5310    0.4031 H   0  0  0  0  0  0  0  0  0  0  0  0
   -2.8644   -3.4789    1.1260 H   0  0  0  0  0  0  0  0  0  0  0  0
   -4.1141   -2.3220    0.6209 H   0  0  0  0  0  0  0  0  0  0  0  0
   -3.2702   -2.0919    2.1602 H   0  0  0  0  0  0  0  0  0  0  0  0
   -1.5049   -3.0298   -1.1044 H   0  0  0  0  0  0  0  0  0  0  0  0
   -3.0042   -2.1522   -1.4710 H   0  0  0  0  0  0  0  0  0  0  0  0
   -1.4567   -1.3326   -1.6519 H   0  0  0  0  0  0  0  0  0  0  0  0
    1.2396   -0.4327    3.0321 N   0  0  0  0  0  0  0  0  0  0  0  0
    2.1316   -0.1006    4.1656 C   0  0  2  0  0  0  0  0  0  0  0  0
    2.8489    1.2659    4.0686 C   0  0  0  0  0  0  0  0  0  0  0  0
    2.8354    2.0194    5.0339 O   0  0  0  0  0  0  0  0  0  0  0  0
    3.1393   -1.2285    4.4302 C   0  0  0  0  0  0  0  0  0  0  0  0
    0.2482   -0.4918    3.2391 H   0  0  0  0  0  0  0  0  0  0  0  0
    1.4943   -0.0362    5.0535 H   0  0  0  0  0  0  0  0  0  0  0  0
    3.8845   -1.2910    3.6314 H   0  0  0  0  0  0  0  0  0  0  0  0
    3.6655   -1.0471    5.3725 H   0  0  0  0  0  0  0  0  0  0  0  0
    2.6240   -2.1909    4.5017 H   0  0  0  0  0  0  0  0  0  0  0  0
    3.5143    1.6529    2.9237 N   0  0  0  0  0  0  0  0  0  0  0  0
    4.2677    2.8913    2.7926 C   0  0  0  0  0  0  0  0  0  0  0  0
    3.5267    0.9681    2.1621 H   0  0  0  0  0  0  0  0  0  0  0  0
    5.1151    2.8973    3.4859 H   0  0  0  0  0  0  0  0  0  0  0  0
    4.6515    2.9930    1.7730 H   0  0  0  0  0  0  0  0  0  0  0  0
    3.6278    3.7531    3.0084 H   0  0  0  0  0  0  0  0  0  0  0  0
  1  2  2  0  0  0  0
  1  3  1  0  0  0  0
  1  7  1  0  0  0  0
  3  4  1  0  0  0  0
  3  5  1  0  0  0  0
  3  6  1  0  0  0  0
  7  8  1  0  0  0  0
  7 12  1  0  0  0  0
  8  9  1  0  0  0  0
  8 11  1  0  0  0  0
  8 13  1  0  0  0  0
  9 10  2  0  0  0  0
  9 17  1  0  0  0  0
 11 14  1  0  0  0  0
 11 15  1  0  0  0  0
 11 16  1  0  0  0  0
 17 18  1  0  0  0  0
 17 25  1  0  0  0  0
 18 19  1  0  0  0  0
 18 21  1  0  0  0  0
 18 26  1  0  0  0  0
 19 20  2  0  0  0  0
 19 36  1  0  0  0  0
 21 22  1  0  0  0  0
 21 27  1  0  0  0  0
 21 28  1  0  0  0  0
 22 23  1  0  0  0  0
 22 24  1  0  0  0  0
 22 29  1  0  0  0  0
 23 30  1  0  0  0  0
 23 31  1  0  0  0  0
 23 32  1  0  0  0  0
 24 33  1  0  0  0  0
 24 34  1  0  0  0  0
 24 35  1  0  0  0  0
 36 37  1  0  0  0  0
 36 41  1  0  0  0  0
 37 38  1  0  0  0  0
 37 40  1  0  0  0  0
 37 42  1  0  0  0  0
 38 39  2  0  0  0  0
 38 46  1  0  0  0  0
 40 43  1  0  0  0  0
 40 44  1  0  0  0  0
 40 45  1  0  0  0  0
 46 47  1  0  0  0  0
 46 48  1  0  0  0  0
 47 49  1  0  0  0  0
 47 50  1  0  0  0  0
 47 51  1  0  0  0  0
M  END
$$$$

  -OEChem-05262216553D

 51 50  0     1  0  0  0  0  0999 V2000
    0.7902   -1.6042   -3.8773 C   0  0  0  0  0  0  0  0  0  0  0  0
    0.3753   -0.6691   -3.2114 O   0  0  0  0  0  0  0  0  0  0  0  0
    0.0300   -2.0367   -5.1167 C   0  0  0  0  0  0  0  0  0  0  0  0
   -0.3858   -3.0366   -4.9702 H   0  0  0  0  0  0  0  0  0  0  0  0
   -0.7896   -1.3410   -5.3187 H   0  0  0  0  0  0  0  0  0  0  0  0
    0.6983   -2.0499   -5.9811 H   0  0  0  0  0  0  0  0  0  0  0  0
    1.9098   -2.3111   -3.4817 N   0  0  0  0  0  0  0  0  0  0  0  0
    2.7887   -2.0145   -2.3300 C   0  0  2  0  0  0  0  0  0  0  0  0
    2.1512   -2.2317   -0.9393 C   0  0  0  0  0  0  0  0  0  0  0  0
    2.6944   -2.9940   -0.1496 O   0  0  0  0  0  0  0  0  0  0  0  0
    3.3833   -0.6029   -2.4287 C   0  0  0  0  0  0  0  0  0  0  0  0
    2.1625   -3.1038   -4.0652 H   0  0  0  0  0  0  0  0  0  0  0  0
    3.6294   -2.7141   -2.3849 H   0  0  0  0  0  0  0  0  0  0  0  0
    2.6196    0.1634   -2.2676 H   0  0  0  0  0  0  0  0  0  0  0  0
    4.1590   -0.4713   -1.6672 H   0  0  0  0  0  0  0  0  0  0  0  0
    3.8343   -0.4466   -3.4130 H   0  0  0  0  0  0  0  0  0  0  0  0
    0.8943   -1.7468   -0.6215 N   0  0  0  0  0  0  0  0  0  0  0  0
    0.5523   -1.0972    0.6648 C   0  0  2  0  0  0  0  0  0  0  0  0
    1.7139   -0.9588    1.6988 C   0  0  0  0  0  0  0  0  0  0  0  0
    2.7477   -0.4139    1.3237 O   0  0  0  0  0  0  0  0  0  0  0  0
   -0.6722   -1.8310    1.2840 C   0  0  0  0  0  0  0  0  0  0  0  0
   -2.0298   -1.7354    0.5365 C   0  0  0  0  0  0  0  0  0  0  0  0
   -3.0339   -2.6505    1.2514 C   0  0  0  0  0  0  0  0  0  0  0  0
   -2.0093   -2.1365   -0.9444 C   0  0  0  0  0  0  0  0  0  0  0  0
    0.4806   -1.2789   -1.4321 H   0  0  0  0  0  0  0  0  0  0  0  0
    0.2486   -0.0688    0.4450 H   0  0  0  0  0  0  0  0  0  0  0  0
   -0.8612   -1.4348    2.2850 H   0  0  0  0  0  0  0  0  0  0  0  0
   -0.4009   -2.8875    1.3923 H   0  0  0  0  0  0  0  0  0  0  0  0
   -2.3880   -0.7020    0.6002 H   0  0  0  0  0  0  0  0  0  0  0  0
   -2.7220   -3.6977    1.1814 H   0  0  0  0  0  0  0  0  0  0  0  0
   -4.0279   -2.5541    0.8034 H   0  0  0  0  0  0  0  0  0  0  0  0
   -3.1121   -2.3809    2.3092 H   0  0  0  0  0  0  0  0  0  0  0  0
   -1.4904   -3.0905   -1.0819 H   0  0  0  0  0  0  0  0  0  0  0  0
   -3.0286   -2.2390   -1.3293 H   0  0  0  0  0  0  0  0  0  0  0  0
   -1.5142   -1.3668   -1.5396 H   0  0  0  0  0  0  0  0  0  0  0  0
    1.4767   -0.9707    3.0678 N   0  0  0  0  0  0  0  0  0  0  0  0
    2.4470   -0.7047    4.1523 C   0  0  2  0  0  0  0  0  0  0  0  0
    2.8247    0.7825    4.3391 C   0  0  0  0  0  0  0  0  0  0  0  0
    2.8000    1.2723    5.4612 O   0  0  0  0  0  0  0  0  0  0  0  0
    3.7030   -1.5769    4.0093 C   0  0  0  0  0  0  0  0  0  0  0  0
    0.5756   -1.3450    3.3463 H   0  0  0  0  0  0  0  0  0  0  0  0
    1.9613   -1.0071    5.0854 H   0  0  0  0  0  0  0  0  0  0  0  0
    4.3158   -1.2572    3.1614 H   0  0  0  0  0  0  0  0  0  0  0  0
    4.3131   -1.5048    4.9149 H   0  0  0  0  0  0  0  0  0  0  0  0
    3.4249   -2.6247    3.8610 H   0  0  0  0  0  0  0  0  0  0  0  0
    3.1818    1.5735    3.2665 N   0  0  0  0  0  0  0  0  0  0  0  0
    3.5794    2.9697    3.3724 C   0  0  0  0  0  0  0  0  0  0  0  0
    3.2222    1.1016    2.3584 H   0  0  0  0  0  0  0  0  0  0  0  0
    3.7729    3.3818    2.3774 H   0  0  0  0  0  0  0  0  0  0  0  0
    2.7856    3.5594    3.8425 H   0  0  0  0  0  0  0  0  0  0  0  0
    4.4910    3.0637    3.9713 H   0  0  0  0  0  0  0  0  0  0  0  0
  1  2  2  0  0  0  0
  1  3  1  0  0  0  0
  1  7  1  0  0  0  0
  3  4  1  0  0  0  0
  3  5  1  0  0  0  0
  3  6  1  0  0  0  0
  7  8  1  0  0  0  0
  7 12  1  0  0  0  0
  8  9  1  0  0  0  0
  8 11  1  0  0  0  0
  8 13  1  0  0  0  0
  9 10  2  0  0  0  0
  9 17  1  0  0  0  0
 11 14  1  0  0  0  0
 11 15  1  0  0  0  0
 11 16  1  0  0  0  0
 17 18  1  0  0  0  0
 17 25  1  0  0  0  0
 18 19  1  0  0  0  0
 18 21  1  0  0  0  0
 18 26  1  0  0  0  0
 19 20  2  0  0  0  0
 19 36  1  0  0  0  0
 21 22  1  0  0  0  0
 21 27  1  0  0  0  0
 21 28  1  0  0  0  0
 22 23  1  0  0  0  0
 22 24  1  0  0  0  0
 22 29  1  0  0  0  0
 23 30  1  0  0  0  0
 23 31  1  0  0  0  0
 23 32  1  0  0  0  0
 24 33  1  0  0  0  0
 24 34  1  0  0  0  0
 24 35  1  0  0  0  0
 36 37  1  0  0  0  0
 36 41  1  0  0  0  0
 37 38  1  0  0  0  0
 37 40  1  0  0  0  0
 37 42  1  0  0  0  0
 38 39  2  0  0  0  0
 38 46  1  0  0  0  0
 40 43  1  0  0  0  0
 40 44  1  0  0  0  0
 40 45  1  0  0  0  0
 46 47  1  0  0  0  0
 46 48  1  0  0  0  0
 47 49  1  0  0  0  0
 47 50  1  0  0  0  0
 47 51  1  0  0  0  0
M  END
$$$$

  -OEChem-05262216553D

 51 50  0     1  0  0  0  0  0999 V2000
    0.6789   -1.5641   -3.9360 C   0  0  0  0  0  0  0  0  0  0  0  0
    0.1675   -0.6969   -3.2459 O   0  0  0  0  0  0  0  0  0  0  0  0
   -0.0244   -2.0359   -5.1945 C   0  0  0  0  0  0  0  0  0  0  0  0
   -0.2711   -3.0971   -5.1095 H   0  0  0  0  0  0  0  0  0  0  0  0
   -0.9485   -1.4707   -5.3453 H   0  0  0  0  0  0  0  0  0  0  0  0
    0.6232   -1.8875   -6.0621 H   0  0  0  0  0  0  0  0  0  0  0  0
    1.8698   -2.1549   -3.5601 N   0  0  0  0  0  0  0  0  0  0  0  0
    2.7232   -1.7826   -2.4120 C   0  0  2  0  0  0  0  0  0  0  0  0
    2.1281   -2.0830   -1.0180 C   0  0  0  0  0  0  0  0  0  0  0  0
    2.7630   -2.7865   -0.2420 O   0  0  0  0  0  0  0  0  0  0  0  0
    3.1634   -0.3146   -2.4968 C   0  0  0  0  0  0  0  0  0  0  0  0
    2.2076   -2.8960   -4.1680 H   0  0  0  0  0  0  0  0  0  0  0  0
    3.6321   -2.3888   -2.4853 H   0  0  0  0  0  0  0  0  0  0  0  0
    2.3230    0.3640   -2.3244 H   0  0  0  0  0  0  0  0  0  0  0  0
    3.9242   -0.1086   -1.7368 H   0  0  0  0  0  0  0  0  0  0  0  0
    3.5903   -0.1000   -3.4811 H   0  0  0  0  0  0  0  0  0  0  0  0
    0.8430   -1.7044   -0.6680 N   0  0  0  0  0  0  0  0  0  0  0  0
    0.4837   -1.1107    0.6399 C   0  0  2  0  0  0  0  0  0  0  0  0
    1.6687   -0.9175    1.6338 C   0  0  0  0  0  0  0  0  0  0  0  0
    2.5709   -0.1574    1.2950 O   0  0  0  0  0  0  0  0  0  0  0  0
   -0.6698   -1.9271    1.2863 C   0  0  0  0  0  0  0  0  0  0  0  0
   -2.0522   -1.9092    0.5823 C   0  0  0  0  0  0  0  0  0  0  0  0
   -2.9737   -2.8941    1.3149 C   0  0  0  0  0  0  0  0  0  0  0  0
   -2.0463   -2.2923   -0.9034 C   0  0  0  0  0  0  0  0  0  0  0  0
    0.3710   -1.2623   -1.4612 H   0  0  0  0  0  0  0  0  0  0  0  0
    0.1066   -0.1010    0.4504 H   0  0  0  0  0  0  0  0  0  0  0  0
   -0.8467   -1.5481    2.2974 H   0  0  0  0  0  0  0  0  0  0  0  0
   -0.3308   -2.9656    1.3734 H   0  0  0  0  0  0  0  0  0  0  0  0
   -2.4725   -0.9013    0.6698 H   0  0  0  0  0  0  0  0  0  0  0  0
   -2.6020   -3.9191    1.2156 H   0  0  0  0  0  0  0  0  0  0  0  0
   -3.9868   -2.8507    0.9029 H   0  0  0  0  0  0  0  0  0  0  0  0
   -3.0304   -2.6463    2.3795 H   0  0  0  0  0  0  0  0  0  0  0  0
   -1.4672   -3.2067   -1.0669 H   0  0  0  0  0  0  0  0  0  0  0  0
   -3.0665   -2.4610   -1.2618 H   0  0  0  0  0  0  0  0  0  0  0  0
   -1.6214   -1.4841   -1.5021 H   0  0  0  0  0  0  0  0  0  0  0  0
    1.5803   -1.2690    2.9742 N   0  0  0  0  0  0  0  0  0  0  0  0
    2.6338   -1.1285    4.0020 C   0  0  2  0  0  0  0  0  0  0  0  0
    2.8772    0.3152    4.4990 C   0  0  0  0  0  0  0  0  0  0  0  0
    2.8947    0.5419    5.7024 O   0  0  0  0  0  0  0  0  0  0  0  0
    3.9461   -1.7805    3.5415 C   0  0  0  0  0  0  0  0  0  0  0  0
    0.7976   -1.8722    3.2057 H   0  0  0  0  0  0  0  0  0  0  0  0
    2.2934   -1.6910    4.8771 H   0  0  0  0  0  0  0  0  0  0  0  0
    4.4208   -1.1993    2.7454 H   0  0  0  0  0  0  0  0  0  0  0  0
    4.6472   -1.8446    4.3794 H   0  0  0  0  0  0  0  0  0  0  0  0
    3.7594   -2.7917    3.1666 H   0  0  0  0  0  0  0  0  0  0  0  0
    3.0767    1.3566    3.6157 N   0  0  0  0  0  0  0  0  0  0  0  0
    3.3207    2.7360    4.0121 C   0  0  0  0  0  0  0  0  0  0  0  0
    3.0548    1.1104    2.6218 H   0  0  0  0  0  0  0  0  0  0  0  0
    3.4759    3.3598    3.1267 H   0  0  0  0  0  0  0  0  0  0  0  0
    2.4651    3.1310    4.5694 H   0  0  0  0  0  0  0  0  0  0  0  0
    4.2139    2.8011    4.6419 H   0  0  0  0  0  0  0  0  0  0  0  0
  1  2  2  0  0  0  0
  1  3  1  0  0  0  0
  1  7  1  0  0  0  0
  3  4  1  0  0  0  0
  3  5  1  0  0  0  0
  3  6  1  0  0  0  0
  7  8  1  0  0  0  0
  7 12  1  0  0  0  0
  8  9  1  0  0  0  0
  8 11  1  0  0  0  0
  8 13  1  0  0  0  0
  9 10  2  0  0  0  0
  9 17  1  0  0  0  0
 11 14  1  0  0  0  0
 11 15  1  0  0  0  0
 11 16  1  0  0  0  0
 17 18  1  0  0  0  0
 17 25  1  0  0  0  0
 18 19  1  0  0  0  0
 18 21  1  0  0  0  0
 18 26  1  0  0  0  0
 19 20  2  0  0  0  0
 19 36  1  0  0  0  0
 21 22  1  0  0  0  0
 21 27  1  0  0  0  0
 21 28  1  0  0  0  0
 22 23  1  0  0  0  0
 22 24  1  0  0  0  0
 22 29  1  0  0  0  0
 23 30  1  0  0  0  0
 23 31  1  0  0  0  0
 23 32  1  0  0  0  0
 24 33  1  0  0  0  0
 24 34  1  0  0  0  0
 24 35  1  0  0  0  0
 36 37  1  0  0  0  0
 36 41  1  0  0  0  0
 37 38  1  0  0  0  0
 37 40  1  0  0  0  0
 37 42  1  0  0  0  0
 38 39  2  0  0  0  0
 38 46  1  0  0  0  0
 40 43  1  0  0  0  0
 40 44  1  0  0  0  0
 40 45  1  0  0  0  0
 46 47  1  0  0  0  0
 46 48  1  0  0  0  0
 47 49  1  0  0  0  0
 47 50  1  0  0  0  0
 47 51  1  0  0  0  0
M  END
$$$$

  -OEChem-05262216553D

 51 50  0     1  0  0  0  0  0999 V2000
    0.5474   -1.4887   -3.9664 C   0  0  0  0  0  0  0  0  0  0  0  0
    0.0733   -0.6121   -3.2622 O   0  0  0  0  0  0  0  0  0  0  0  0
   -0.2306   -1.9858   -5.1704 C   0  0  0  0  0  0  0  0  0  0  0  0
   -0.5157   -3.0309   -5.0256 H   0  0  0  0  0  0  0  0  0  0  0  0
   -1.1378   -1.3893   -5.3059 H   0  0  0  0  0  0  0  0  0  0  0  0
    0.3807   -1.9028   -6.0725 H   0  0  0  0  0  0  0  0  0  0  0  0
    1.7565   -2.0743   -3.6431 N   0  0  0  0  0  0  0  0  0  0  0  0
    2.6693   -1.6829   -2.5472 C   0  0  2  0  0  0  0  0  0  0  0  0
    2.1544   -1.9628   -1.1164 C   0  0  0  0  0  0  0  0  0  0  0  0
    2.8739   -2.5869   -0.3472 O   0  0  0  0  0  0  0  0  0  0  0  0
    3.1014   -0.2155   -2.6785 C   0  0  0  0  0  0  0  0  0  0  0  0
    2.0641   -2.8227   -4.2582 H   0  0  0  0  0  0  0  0  0  0  0  0
    3.5745   -2.2885   -2.6613 H   0  0  0  0  0  0  0  0  0  0  0  0
    2.2688    0.4651   -2.4770 H   0  0  0  0  0  0  0  0  0  0  0  0
    3.8979    0.0046   -1.9601 H   0  0  0  0  0  0  0  0  0  0  0  0
    3.4798   -0.0174   -3.6858 H   0  0  0  0  0  0  0  0  0  0  0  0
    0.8615   -1.6523   -0.7270 N   0  0  0  0  0  0  0  0  0  0  0  0
    0.4931   -1.1239    0.6059 C   0  0  2  0  0  0  0  0  0  0  0  0
    1.6776   -0.9144    1.5928 C   0  0  0  0  0  0  0  0  0  0  0  0
    2.4357    0.0246    1.3734 O   0  0  0  0  0  0  0  0  0  0  0  0
   -0.6146   -2.0035    1.2461 C   0  0  0  0  0  0  0  0  0  0  0  0
   -2.0092   -2.0192    0.5675 C   0  0  0  0  0  0  0  0  0  0  0  0
   -2.8794   -3.0612    1.2839 C   0  0  0  0  0  0  0  0  0  0  0  0
   -2.0129   -2.3547   -0.9294 C   0  0  0  0  0  0  0  0  0  0  0  0
    0.3408   -1.2284   -1.4995 H   0  0  0  0  0  0  0  0  0  0  0  0
    0.0715   -0.1249    0.4551 H   0  0  0  0  0  0  0  0  0  0  0  0
   -0.7771   -1.6630    2.2741 H   0  0  0  0  0  0  0  0  0  0  0  0
   -0.2366   -3.0308    1.2909 H   0  0  0  0  0  0  0  0  0  0  0  0
   -2.4675   -1.0323    0.6933 H   0  0  0  0  0  0  0  0  0  0  0  0
   -2.4681   -4.0673    1.1518 H   0  0  0  0  0  0  0  0  0  0  0  0
   -3.8993   -3.0484    0.8866 H   0  0  0  0  0  0  0  0  0  0  0  0
   -2.9307   -2.8443    2.3554 H   0  0  0  0  0  0  0  0  0  0  0  0
   -1.4013   -3.2398   -1.1312 H   0  0  0  0  0  0  0  0  0  0  0  0
   -3.0316   -2.5518   -1.2780 H   0  0  0  0  0  0  0  0  0  0  0  0
   -1.6301   -1.5114   -1.5073 H   0  0  0  0  0  0  0  0  0  0  0  0
    1.7522   -1.5718    2.8132 N   0  0  0  0  0  0  0  0  0  0  0  0
    2.8446   -1.4821    3.8051 C   0  0  2  0  0  0  0  0  0  0  0  0
    2.9077   -0.1554    4.5967 C   0  0  0  0  0  0  0  0  0  0  0  0
    3.0111   -0.1872    5.8166 O   0  0  0  0  0  0  0  0  0  0  0  0
    4.2010   -1.8043    3.1610 C   0  0  0  0  0  0  0  0  0  0  0  0
    1.1181   -2.3590    2.9063 H   0  0  0  0  0  0  0  0  0  0  0  0
    2.6559   -2.2626    4.5491 H   0  0  0  0  0  0  0  0  0  0  0  0
    4.5166   -1.0097    2.4786 H   0  0  0  0  0  0  0  0  0  0  0  0
    4.9671   -1.9124    3.9349 H   0  0  0  0  0  0  0  0  0  0  0  0
    4.1417   -2.7408    2.5977 H   0  0  0  0  0  0  0  0  0  0  0  0
    2.8510    1.0669    3.9590 N   0  0  0  0  0  0  0  0  0  0  0  0
    2.9262    2.3525    4.6379 C   0  0  0  0  0  0  0  0  0  0  0  0
    2.7928    1.0352    2.9372 H   0  0  0  0  0  0  0  0  0  0  0  0
    2.8535    3.1670    3.9108 H   0  0  0  0  0  0  0  0  0  0  0  0
    2.1056    2.4552    5.3555 H   0  0  0  0  0  0  0  0  0  0  0  0
    3.8771    2.4486    5.1718 H   0  0  0  0  0  0  0  0  0  0  0  0
  1  2  2  0  0  0  0
  1  3  1  0  0  0  0
  1  7  1  0  0  0  0
  3  4  1  0  0  0  0
  3  5  1  0  0  0  0
  3  6  1  0  0  0  0
  7  8  1  0  0  0  0
  7 12  1  0  0  0  0
  8  9  1  0  0  0  0
  8 11  1  0  0  0  0
  8 13  1  0  0  0  0
  9 10  2  0  0  0  0
  9 17  1  0  0  0  0
 11 14  1  0  0  0  0
 11 15  1  0  0  0  0
 11 16  1  0  0  0  0
 17 18  1  0  0  0  0
 17 25  1  0  0  0  0
 18 19  1  0  0  0  0
 18 21  1  0  0  0  0
 18 26  1  0  0  0  0
 19 20  2  0  0  0  0
 19 36  1  0  0  0  0
 21 22  1  0  0  0  0
 21 27  1  0  0  0  0
 21 28  1  0  0  0  0
 22 23  1  0  0  0  0
 22 24  1  0  0  0  0
 22 29  1  0  0  0  0
 23 30  1  0  0  0  0
 23 31  1  0  0  0  0
 23 32  1  0  0  0  0
 24 33  1  0  0  0  0
 24 34  1  0  0  0  0
 24 35  1  0  0  0  0
 36 37  1  0  0  0  0
 36 41  1  0  0  0  0
 37 38  1  0  0  0  0
 37 40  1  0  0  0  0
 37 42  1  0  0  0  0
 38 39  2  0  0  0  0
 38 46  1  0  0  0  0
 40 43  1  0  0  0  0
 40 44  1  0  0  0  0
 40 45  1  0  0  0  0
 46 47  1  0  0  0  0
 46 48  1  0  0  0  0
 47 49  1  0  0  0  0
 47 50  1  0  0  0  0
 47 51  1  0  0  0  0
M  END
$$$$

  -OEChem-05262216553D

 51 50  0     1  0  0  0  0  0999 V2000
    1.1633   -2.8937   -3.5024 C   0  0  0  0  0  0  0  0  0  0  0  0
    0.1231   -2.7382   -2.8823 O   0  0  0  0  0  0  0  0  0  0  0  0
    1.5086   -4.2602   -4.0634 C   0  0  0  0  0  0  0  0  0  0  0  0
    2.4599   -4.6039   -3.6500 H   0  0  0  0  0  0  0  0  0  0  0  0
    0.7308   -4.9834   -3.8019 H   0  0  0  0  0  0  0  0  0  0  0  0
    1.5894   -4.2085   -5.1520 H   0  0  0  0  0  0  0  0  0  0  0  0
    2.0436   -1.8434   -3.6774 N   0  0  0  0  0  0  0  0  0  0  0  0
    1.9131   -0.5207   -3.0408 C   0  0  2  0  0  0  0  0  0  0  0  0
    1.8993   -0.6057   -1.4957 C   0  0  0  0  0  0  0  0  0  0  0  0
    2.9561   -0.8659   -0.9400 O   0  0  0  0  0  0  0  0  0  0  0  0
    0.7166    0.2479   -3.6270 C   0  0  0  0  0  0  0  0  0  0  0  0
    2.9491   -2.0861   -4.0695 H   0  0  0  0  0  0  0  0  0  0  0  0
    2.8085    0.0567   -3.2936 H   0  0  0  0  0  0  0  0  0  0  0  0
   -0.2315   -0.2492   -3.4048 H   0  0  0  0  0  0  0  0  0  0  0  0
    0.6801    1.2608   -3.2141 H   0  0  0  0  0  0  0  0  0  0  0  0
    0.8160    0.3225   -4.7140 H   0  0  0  0  0  0  0  0  0  0  0  0
    0.7113   -0.4893   -0.7863 N   0  0  0  0  0  0  0  0  0  0  0  0
    0.5001   -0.4975    0.6790 C   0  0  2  0  0  0  0  0  0  0  0  0
    1.7565   -0.6541    1.5768 C   0  0  0  0  0  0  0  0  0  0  0  0
    2.3534    0.3600    1.9209 O   0  0  0  0  0  0  0  0  0  0  0  0
   -0.6103   -1.5032    1.0770 C   0  0  0  0  0  0  0  0  0  0  0  0
   -2.0569   -1.1914    0.6071 C   0  0  0  0  0  0  0  0  0  0  0  0
   -2.9499   -2.3822    0.9810 C   0  0  0  0  0  0  0  0  0  0  0  0
   -2.2450   -0.9086   -0.8892 C   0  0  0  0  0  0  0  0  0  0  0  0
   -0.1193   -0.5502   -1.3694 H   0  0  0  0  0  0  0  0  0  0  0  0
    0.1197    0.4970    0.9337 H   0  0  0  0  0  0  0  0  0  0  0  0
   -0.6369   -1.5752    2.1701 H   0  0  0  0  0  0  0  0  0  0  0  0
   -0.3237   -2.4867    0.6883 H   0  0  0  0  0  0  0  0  0  0  0  0
   -2.4066   -0.3105    1.1560 H   0  0  0  0  0  0  0  0  0  0  0  0
   -2.6512   -3.2785    0.4274 H   0  0  0  0  0  0  0  0  0  0  0  0
   -3.9972   -2.1644    0.7489 H   0  0  0  0  0  0  0  0  0  0  0  0
   -2.8772   -2.5948    2.0523 H   0  0  0  0  0  0  0  0  0  0  0  0
   -1.8045   -1.7077   -1.4907 H   0  0  0  0  0  0  0  0  0  0  0  0
   -3.3102   -0.8464   -1.1331 H   0  0  0  0  0  0  0  0  0  0  0  0
   -1.7935    0.0480   -1.1649 H   0  0  0  0  0  0  0  0  0  0  0  0
    2.0332   -1.8567    2.2119 N   0  0  0  0  0  0  0  0  0  0  0  0
    3.2199   -2.1680    3.0357 C   0  0  2  0  0  0  0  0  0  0  0  0
    3.2449   -1.5134    4.4358 C   0  0  0  0  0  0  0  0  0  0  0  0
    3.4949   -2.2027    5.4170 O   0  0  0  0  0  0  0  0  0  0  0  0
    4.5139   -1.8655    2.2665 C   0  0  0  0  0  0  0  0  0  0  0  0
    1.5098   -2.6486    1.8523 H   0  0  0  0  0  0  0  0  0  0  0  0
    3.2031   -3.2478    3.2142 H   0  0  0  0  0  0  0  0  0  0  0  0
    4.6534   -0.7887    2.1321 H   0  0  0  0  0  0  0  0  0  0  0  0
    5.3769   -2.2550    2.8150 H   0  0  0  0  0  0  0  0  0  0  0  0
    4.4881   -2.3365    1.2790 H   0  0  0  0  0  0  0  0  0  0  0  0
    3.0065   -0.1652    4.6062 N   0  0  0  0  0  0  0  0  0  0  0  0
    3.0688    0.5227    5.8874 C   0  0  0  0  0  0  0  0  0  0  0  0
    2.8296    0.3693    3.7505 H   0  0  0  0  0  0  0  0  0  0  0  0
    4.0720    0.4386    6.3177 H   0  0  0  0  0  0  0  0  0  0  0  0
    2.8354    1.5837    5.7571 H   0  0  0  0  0  0  0  0  0  0  0  0
    2.3465    0.0921    6.5884 H   0  0  0  0  0  0  0  0  0  0  0  0
  1  2  2  0  0  0  0
  1  3  1  0  0  0  0
  1  7  1  0  0  0  0
  3  4  1  0  0  0  0
  3  5  1  0  0  0  0
  3  6  1  0  0  0  0
  7  8  1  0  0  0  0
  7 12  1  0  0  0  0
  8  9  1  0  0  0  0
  8 11  1  0  0  0  0
  8 13  1  0  0  0  0
  9 10  2  0  0  0  0
  9 17  1  0  0  0  0
 11 14  1  0  0  0  0
 11 15  1  0  0  0  0
 11 16  1  0  0  0  0
 17 18  1  0  0  0  0
 17 25  1  0  0  0  0
 18 19  1  0  0  0  0
 18 21  1  0  0  0  0
 18 26  1  0  0  0  0
 19 20  2  0  0  0  0
 19 36  1  0  0  0  0
 21 22  1  0  0  0  0
 21 27  1  0  0  0  0
 21 28  1  0  0  0  0
 22 23  1  0  0  0  0
 22 24  1  0  0  0  0
 22 29  1  0  0  0  0
 23 30  1  0  0  0  0
 23 31  1  0  0  0  0
 23 32  1  0  0  0  0
 24 33  1  0  0  0  0
 24 34  1  0  0  0  0
 24 35  1  0  0  0  0
 36 37  1  0  0  0  0
 36 41  1  0  0  0  0
 37 38  1  0  0  0  0
 37 40  1  0  0  0  0
 37 42  1  0  0  0  0
 38 39  2  0  0  0  0
 38 46  1  0  0  0  0
 40 43  1  0  0  0  0
 40 44  1  0  0  0  0
 40 45  1  0  0  0  0
 46 47  1  0  0  0  0
 46 48  1  0  0  0  0
 47 49  1  0  0  0  0
 47 50  1  0  0  0  0
 47 51  1  0  0  0  0
M  END
$$$$

  -OEChem-05262216553D

 51 50  0     1  0  0  0  0  0999 V2000
    1.2420   -2.8951   -3.2291 C   0  0  0  0  0  0  0  0  0  0  0  0
    0.2580   -2.7993   -2.5118 O   0  0  0  0  0  0  0  0  0  0  0  0
    1.7204   -4.2654   -3.6702 C   0  0  0  0  0  0  0  0  0  0  0  0
    2.7100   -4.4674   -3.2523 H   0  0  0  0  0  0  0  0  0  0  0  0
    1.0275   -5.0370   -3.3228 H   0  0  0  0  0  0  0  0  0  0  0  0
    1.7764   -4.3098   -4.7604 H   0  0  0  0  0  0  0  0  0  0  0  0
    1.9467   -1.7699   -3.6138 N   0  0  0  0  0  0  0  0  0  0  0  0
    1.6895   -0.4048   -3.1207 C   0  0  2  0  0  0  0  0  0  0  0  0
    1.7702   -0.3079   -1.5784 C   0  0  0  0  0  0  0  0  0  0  0  0
    2.8800   -0.3445   -1.0699 O   0  0  0  0  0  0  0  0  0  0  0  0
    0.3716    0.1347   -3.7016 C   0  0  0  0  0  0  0  0  0  0  0  0
    2.8294   -1.9387   -4.0883 H   0  0  0  0  0  0  0  0  0  0  0  0
    2.4885    0.2419   -3.4978 H   0  0  0  0  0  0  0  0  0  0  0  0
   -0.4843   -0.4688   -3.3875 H   0  0  0  0  0  0  0  0  0  0  0  0
    0.2079    1.1657   -3.3725 H   0  0  0  0  0  0  0  0  0  0  0  0
    0.4123    0.1253   -4.7950 H   0  0  0  0  0  0  0  0  0  0  0  0
    0.6125   -0.2758   -0.8138 N   0  0  0  0  0  0  0  0  0  0  0  0
    0.4738   -0.3920    0.6539 C   0  0  2  0  0  0  0  0  0  0  0  0
    1.7679   -0.5752    1.4873 C   0  0  0  0  0  0  0  0  0  0  0  0
    2.2120    0.3842    2.1078 O   0  0  0  0  0  0  0  0  0  0  0  0
   -0.5673   -1.4783    1.0213 C   0  0  0  0  0  0  0  0  0  0  0  0
   -2.0464   -1.2085    0.6338 C   0  0  0  0  0  0  0  0  0  0  0  0
   -2.8621   -2.4678    0.9557 C   0  0  0  0  0  0  0  0  0  0  0  0
   -2.3134   -0.8358   -0.8315 C   0  0  0  0  0  0  0  0  0  0  0  0
   -0.2204   -0.5001   -1.3523 H   0  0  0  0  0  0  0  0  0  0  0  0
    0.0656    0.5648    0.9962 H   0  0  0  0  0  0  0  0  0  0  0  0
   -0.5370   -1.6305    2.1061 H   0  0  0  0  0  0  0  0  0  0  0  0
   -0.2528   -2.4166    0.5508 H   0  0  0  0  0  0  0  0  0  0  0  0
   -2.4142   -0.3862    1.2571 H   0  0  0  0  0  0  0  0  0  0  0  0
   -2.5390   -3.3070    0.3311 H   0  0  0  0  0  0  0  0  0  0  0  0
   -3.9273   -2.2916    0.7761 H   0  0  0  0  0  0  0  0  0  0  0  0
   -2.7367   -2.7474    2.0065 H   0  0  0  0  0  0  0  0  0  0  0  0
   -1.8589   -1.5666   -1.5060 H   0  0  0  0  0  0  0  0  0  0  0  0
   -3.3900   -0.8154   -1.0281 H   0  0  0  0  0  0  0  0  0  0  0  0
   -1.9239    0.1607   -1.0567 H   0  0  0  0  0  0  0  0  0  0  0  0
    2.2462   -1.8504    1.7513 N   0  0  0  0  0  0  0  0  0  0  0  0
    3.4793   -2.2011    2.4854 C   0  0  2  0  0  0  0  0  0  0  0  0
    3.4210   -1.9814    4.0144 C   0  0  0  0  0  0  0  0  0  0  0  0
    3.8012   -2.8715    4.7654 O   0  0  0  0  0  0  0  0  0  0  0  0
    4.6990   -1.4936    1.8781 C   0  0  0  0  0  0  0  0  0  0  0  0
    1.8457   -2.5730    1.1610 H   0  0  0  0  0  0  0  0  0  0  0  0
    3.6327   -3.2758    2.3453 H   0  0  0  0  0  0  0  0  0  0  0  0
    4.6662   -0.4161    2.0650 H   0  0  0  0  0  0  0  0  0  0  0  0
    5.6197   -1.8882    2.3187 H   0  0  0  0  0  0  0  0  0  0  0  0
    4.7337   -1.6560    0.7964 H   0  0  0  0  0  0  0  0  0  0  0  0
    2.9653   -0.7959    4.5539 N   0  0  0  0  0  0  0  0  0  0  0  0
    2.9438   -0.4970    5.9783 C   0  0  0  0  0  0  0  0  0  0  0  0
    2.6948   -0.0734    3.8801 H   0  0  0  0  0  0  0  0  0  0  0  0
    3.9588   -0.5150    6.3882 H   0  0  0  0  0  0  0  0  0  0  0  0
    2.5185    0.4968    6.1477 H   0  0  0  0  0  0  0  0  0  0  0  0
    2.3328   -1.2303    6.5146 H   0  0  0  0  0  0  0  0  0  0  0  0
  1  2  2  0  0  0  0
  1  3  1  0  0  0  0
  1  7  1  0  0  0  0
  3  4  1  0  0  0  0
  3  5  1  0  0  0  0
  3  6  1  0  0  0  0
  7  8  1  0  0  0  0
  7 12  1  0  0  0  0
  8  9  1  0  0  0  0
  8 11  1  0  0  0  0
  8 13  1  0  0  0  0
  9 10  2  0  0  0  0
  9 17  1  0  0  0  0
 11 14  1  0  0  0  0
 11 15  1  0  0  0  0
 11 16  1  0  0  0  0
 17 18  1  0  0  0  0
 17 25  1  0  0  0  0
 18 19  1  0  0  0  0
 18 21  1  0  0  0  0
 18 26  1  0  0  0  0
 19 20  2  0  0  0  0
 19 36  1  0  0  0  0
 21 22  1  0  0  0  0
 21 27  1  0  0  0  0
 21 28  1  0  0  0  0
 22 23  1  0  0  0  0
 22 24  1  0  0  0  0
 22 29  1  0  0  0  0
 23 30  1  0  0  0  0
 23 31  1  0  0  0  0
 23 32  1  0  0  0  0
 24 33  1  0  0  0  0
 24 34  1  0  0  0  0
 24 35  1  0  0  0  0
 36 37  1  0  0  0  0
 36 41  1  0  0  0  0
 37 38  1  0  0  0  0
 37 40  1  0  0  0  0
 37 42  1  0  0  0  0
 38 39  2  0  0  0  0
 38 46  1  0  0  0  0
 40 43  1  0  0  0  0
 40 44  1  0  0  0  0
 40 45  1  0  0  0  0
 46 47  1  0  0  0  0
 46 48  1  0  0  0  0
 47 49  1  0  0  0  0
 47 50  1  0  0  0  0
 47 51  1  0  0  0  0
M  END
$$$$

  -OEChem-05262216553D

 51 50  0     1  0  0  0  0  0999 V2000
    2.1543   -2.7981   -2.4164 C   0  0  0  0  0  0  0  0  0  0  0  0
    1.3181   -2.9155   -1.5298 O   0  0  0  0  0  0  0  0  0  0  0  0
    3.2695   -3.8194   -2.5321 C   0  0  0  0  0  0  0  0  0  0  0  0
    4.2362   -3.3355   -2.3709 H   0  0  0  0  0  0  0  0  0  0  0  0
    3.1414   -4.6057   -1.7827 H   0  0  0  0  0  0  0  0  0  0  0  0
    3.2587   -4.2752   -3.5252 H   0  0  0  0  0  0  0  0  0  0  0  0
    2.1311   -1.7146   -3.2763 N   0  0  0  0  0  0  0  0  0  0  0  0
    1.2497   -0.5432   -3.1129 C   0  0  2  0  0  0  0  0  0  0  0  0
    1.3554    0.0628   -1.6919 C   0  0  0  0  0  0  0  0  0  0  0  0
    2.4598    0.4132   -1.3035 O   0  0  0  0  0  0  0  0  0  0  0  0
   -0.1810   -0.9196   -3.5298 C   0  0  0  0  0  0  0  0  0  0  0  0
    2.9521   -1.6042   -3.8651 H   0  0  0  0  0  0  0  0  0  0  0  0
    1.5919    0.2403   -3.7964 H   0  0  0  0  0  0  0  0  0  0  0  0
   -0.5905   -1.6985   -2.8797 H   0  0  0  0  0  0  0  0  0  0  0  0
   -0.8351   -0.0434   -3.4851 H   0  0  0  0  0  0  0  0  0  0  0  0
   -0.1845   -1.2963   -4.5573 H   0  0  0  0  0  0  0  0  0  0  0  0
    0.2530    0.1213   -0.8514 N   0  0  0  0  0  0  0  0  0  0  0  0
    0.2763   -0.1331    0.6063 C   0  0  2  0  0  0  0  0  0  0  0  0
    1.6434   -0.4968    1.2382 C   0  0  0  0  0  0  0  0  0  0  0  0
    2.1170    0.2271    2.1066 O   0  0  0  0  0  0  0  0  0  0  0  0
   -0.7731   -1.2007    1.0034 C   0  0  0  0  0  0  0  0  0  0  0  0
   -2.2694   -0.8303    0.8267 C   0  0  0  0  0  0  0  0  0  0  0  0
   -3.1102   -2.0762    1.1368 C   0  0  0  0  0  0  0  0  0  0  0  0
   -2.6779   -0.3207   -0.5626 C   0  0  0  0  0  0  0  0  0  0  0  0
   -0.5959   -0.1979   -1.3060 H   0  0  0  0  0  0  0  0  0  0  0  0
   -0.0157    0.8058    1.0884 H   0  0  0  0  0  0  0  0  0  0  0  0
   -0.6202   -1.4530    2.0592 H   0  0  0  0  0  0  0  0  0  0  0  0
   -0.5689   -2.1069    0.4229 H   0  0  0  0  0  0  0  0  0  0  0  0
   -2.5161   -0.0505    1.5554 H   0  0  0  0  0  0  0  0  0  0  0  0
   -2.9127   -2.8688    0.4076 H   0  0  0  0  0  0  0  0  0  0  0  0
   -4.1779   -1.8364    1.1084 H   0  0  0  0  0  0  0  0  0  0  0  0
   -2.8746   -2.4572    2.1356 H   0  0  0  0  0  0  0  0  0  0  0  0
   -2.3431   -1.0119   -1.3412 H   0  0  0  0  0  0  0  0  0  0  0  0
   -3.7670   -0.2318   -0.6296 H   0  0  0  0  0  0  0  0  0  0  0  0
   -2.2595    0.6722   -0.7505 H   0  0  0  0  0  0  0  0  0  0  0  0
    2.1613   -1.7664    1.0308 N   0  0  0  0  0  0  0  0  0  0  0  0
    3.4634   -2.2829    1.4950 C   0  0  2  0  0  0  0  0  0  0  0  0
    3.5599   -2.5721    3.0102 C   0  0  0  0  0  0  0  0  0  0  0  0
    4.0998   -3.6036    3.3917 O   0  0  0  0  0  0  0  0  0  0  0  0
    4.6077   -1.3681    1.0382 C   0  0  0  0  0  0  0  0  0  0  0  0
    1.7204   -2.2720    0.2579 H   0  0  0  0  0  0  0  0  0  0  0  0
    3.6084   -3.2477    0.9993 H   0  0  0  0  0  0  0  0  0  0  0  0
    4.5786   -0.4080    1.5619 H   0  0  0  0  0  0  0  0  0  0  0  0
    5.5723   -1.8413    1.2456 H   0  0  0  0  0  0  0  0  0  0  0  0
    4.5374   -1.1785   -0.0371 H   0  0  0  0  0  0  0  0  0  0  0  0
    3.0758   -1.6813    3.9465 N   0  0  0  0  0  0  0  0  0  0  0  0
    3.2124   -1.8497    5.3858 C   0  0  0  0  0  0  0  0  0  0  0  0
    2.7088   -0.8008    3.5735 H   0  0  0  0  0  0  0  0  0  0  0  0
    4.2697   -1.8805    5.6688 H   0  0  0  0  0  0  0  0  0  0  0  0
    2.7372   -1.0144    5.9090 H   0  0  0  0  0  0  0  0  0  0  0  0
    2.7322   -2.7789    5.7096 H   0  0  0  0  0  0  0  0  0  0  0  0
  1  2  2  0  0  0  0
  1  3  1  0  0  0  0
  1  7  1  0  0  0  0
  3  4  1  0  0  0  0
  3  5  1  0  0  0  0
  3  6  1  0  0  0  0
  7  8  1  0  0  0  0
  7 12  1  0  0  0  0
  8  9  1  0  0  0  0
  8 11  1  0  0  0  0
  8 13  1  0  0  0  0
  9 10  2  0  0  0  0
  9 17  1  0  0  0  0
 11 14  1  0  0  0  0
 11 15  1  0  0  0  0
 11 16  1  0  0  0  0
 17 18  1  0  0  0  0
 17 25  1  0  0  0  0
 18 19  1  0  0  0  0
 18 21  1  0  0  0  0
 18 26  1  0  0  0  0
 19 20  2  0  0  0  0
 19 36  1  0  0  0  0
 21 22  1  0  0  0  0
 21 27  1  0  0  0  0
 21 28  1  0  0  0  0
 22 23  1  0  0  0  0
 22 24  1  0  0  0  0
 22 29  1  0  0  0  0
 23 30  1  0  0  0  0
 23 31  1  0  0  0  0
 23 32  1  0  0  0  0
 24 33  1  0  0  0  0
 24 34  1  0  0  0  0
 24 35  1  0  0  0  0
 36 37  1  0  0  0  0
 36 41  1  0  0  0  0
 37 38  1  0  0  0  0
 37 40  1  0  0  0  0
 37 42  1  0  0  0  0
 38 39  2  0  0  0  0
 38 46  1  0  0  0  0
 40 43  1  0  0  0  0
 40 44  1  0  0  0  0
 40 45  1  0  0  0  0
 46 47  1  0  0  0  0
 46 48  1  0  0  0  0
 47 49  1  0  0  0  0
 47 50  1  0  0  0  0
 47 51  1  0  0  0  0
M  END
$$$$

  -OEChem-05262216553D

 51 50  0     1  0  0  0  0  0999 V2000
    2.1070   -2.8523   -2.5902 C   0  0  0  0  0  0  0  0  0  0  0  0
    1.3553   -2.9751   -1.6320 O   0  0  0  0  0  0  0  0  0  0  0  0
    3.2215   -3.8584   -2.8044 C   0  0  0  0  0  0  0  0  0  0  0  0
    4.1918   -3.3633   -2.7153 H   0  0  0  0  0  0  0  0  0  0  0  0
    3.1630   -4.6537   -2.0554 H   0  0  0  0  0  0  0  0  0  0  0  0
    3.1377   -4.3052   -3.7981 H   0  0  0  0  0  0  0  0  0  0  0  0
    1.9946   -1.7656   -3.4384 N   0  0  0  0  0  0  0  0  0  0  0  0
    1.1036   -0.6155   -3.1964 C   0  0  2  0  0  0  0  0  0  0  0  0
    1.3004   -0.0180   -1.7813 C   0  0  0  0  0  0  0  0  0  0  0  0
    2.4244    0.3382   -1.4606 O   0  0  0  0  0  0  0  0  0  0  0  0
   -0.3457   -1.0219   -3.5065 C   0  0  0  0  0  0  0  0  0  0  0  0
    2.7583   -1.6395   -4.0971 H   0  0  0  0  0  0  0  0  0  0  0  0
    1.3753    0.1808   -3.8963 H   0  0  0  0  0  0  0  0  0  0  0  0
   -0.6899   -1.8069   -2.8262 H   0  0  0  0  0  0  0  0  0  0  0  0
   -1.0128   -0.1593   -3.4145 H   0  0  0  0  0  0  0  0  0  0  0  0
   -0.4178   -1.4016   -4.5304 H   0  0  0  0  0  0  0  0  0  0  0  0
    0.2481    0.0923   -0.8847 N   0  0  0  0  0  0  0  0  0  0  0  0
    0.3363   -0.1054    0.5808 C   0  0  2  0  0  0  0  0  0  0  0  0
    1.7111   -0.4745    1.1929 C   0  0  0  0  0  0  0  0  0  0  0  0
    2.1183    0.1476    2.1674 O   0  0  0  0  0  0  0  0  0  0  0  0
   -0.6942   -1.1570    1.0585 C   0  0  0  0  0  0  0  0  0  0  0  0
   -2.1981   -0.7978    0.9326 C   0  0  0  0  0  0  0  0  0  0  0  0
   -3.0182   -2.0350    1.3230 C   0  0  0  0  0  0  0  0  0  0  0  0
   -2.6686   -0.3406   -0.4550 C   0  0  0  0  0  0  0  0  0  0  0  0
   -0.6338   -0.2108   -1.2844 H   0  0  0  0  0  0  0  0  0  0  0  0
    0.0712    0.8532    1.0388 H   0  0  0  0  0  0  0  0  0  0  0  0
   -0.4981   -1.3707    2.1156 H   0  0  0  0  0  0  0  0  0  0  0  0
   -0.5075   -2.0836    0.5040 H   0  0  0  0  0  0  0  0  0  0  0  0
   -2.4169    0.0070    1.6430 H   0  0  0  0  0  0  0  0  0  0  0  0
   -2.8439   -2.8537    0.6174 H   0  0  0  0  0  0  0  0  0  0  0  0
   -4.0876   -1.8019    1.3269 H   0  0  0  0  0  0  0  0  0  0  0  0
   -2.7421   -2.3765    2.3257 H   0  0  0  0  0  0  0  0  0  0  0  0
   -2.3681   -1.0608   -1.2212 H   0  0  0  0  0  0  0  0  0  0  0  0
   -3.7597   -0.2543   -0.4760 H   0  0  0  0  0  0  0  0  0  0  0  0
   -2.2606    0.6443   -0.6985 H   0  0  0  0  0  0  0  0  0  0  0  0
    2.3485   -1.6384    0.7899 N   0  0  0  0  0  0  0  0  0  0  0  0
    3.6665   -2.1396    1.2235 C   0  0  2  0  0  0  0  0  0  0  0  0
    3.7246   -2.6719    2.6729 C   0  0  0  0  0  0  0  0  0  0  0  0
    4.3121   -3.7211    2.9075 O   0  0  0  0  0  0  0  0  0  0  0  0
    4.7557   -1.0866    0.9841 C   0  0  0  0  0  0  0  0  0  0  0  0
    1.9233   -2.0988   -0.0188 H   0  0  0  0  0  0  0  0  0  0  0  0
    3.9002   -2.9942    0.5810 H   0  0  0  0  0  0  0  0  0  0  0  0
    4.6404   -0.2376    1.6640 H   0  0  0  0  0  0  0  0  0  0  0  0
    5.7444   -1.5252    1.1495 H   0  0  0  0  0  0  0  0  0  0  0  0
    4.7068   -0.7168   -0.0446 H   0  0  0  0  0  0  0  0  0  0  0  0
    3.1531   -1.9735    3.7172 N   0  0  0  0  0  0  0  0  0  0  0  0
    3.2453   -2.3684    5.1150 C   0  0  0  0  0  0  0  0  0  0  0  0
    2.7454   -1.0661    3.4744 H   0  0  0  0  0  0  0  0  0  0  0  0
    2.6848   -1.6678    5.7415 H   0  0  0  0  0  0  0  0  0  0  0  0
    2.8279   -3.3705    5.2586 H   0  0  0  0  0  0  0  0  0  0  0  0
    4.2898   -2.3700    5.4433 H   0  0  0  0  0  0  0  0  0  0  0  0
  1  2  2  0  0  0  0
  1  3  1  0  0  0  0
  1  7  1  0  0  0  0
  3  4  1  0  0  0  0
  3  5  1  0  0  0  0
  3  6  1  0  0  0  0
  7  8  1  0  0  0  0
  7 12  1  0  0  0  0
  8  9  1  0  0  0  0
  8 11  1  0  0  0  0
  8 13  1  0  0  0  0
  9 10  2  0  0  0  0
  9 17  1  0  0  0  0
 11 14  1  0  0  0  0
 11 15  1  0  0  0  0
 11 16  1  0  0  0  0
 17 18  1  0  0  0  0
 17 25  1  0  0  0  0
 18 19  1  0  0  0  0
 18 21  1  0  0  0  0
 18 26  1  0  0  0  0
 19 20  2  0  0  0  0
 19 36  1  0  0  0  0
 21 22  1  0  0  0  0
 21 27  1  0  0  0  0
 21 28  1  0  0  0  0
 22 23  1  0  0  0  0
 22 24  1  0  0  0  0
 22 29  1  0  0  0  0
 23 30  1  0  0  0  0
 23 31  1  0  0  0  0
 23 32  1  0  0  0  0
 24 33  1  0  0  0  0
 24 34  1  0  0  0  0
 24 35  1  0  0  0  0
 36 37  1  0  0  0  0
 36 41  1  0  0  0  0
 37 38  1  0  0  0  0
 37 40  1  0  0  0  0
 37 42  1  0  0  0  0
 38 39  2  0  0  0  0
 38 46  1  0  0  0  0
 40 43  1  0  0  0  0
 40 44  1  0  0  0  0
 40 45  1  0  0  0  0
 46 47  1  0  0  0  0
 46 48  1  0  0  0  0
 47 49  1  0  0  0  0
 47 50  1  0  0  0  0
 47 51  1  0  0  0  0
M  END
$$$$

  -OEChem-05262216553D

 51 50  0     1  0  0  0  0  0999 V2000
    2.2322   -2.7978   -2.7367 C   0  0  0  0  0  0  0  0  0  0  0  0
    1.5663   -2.9802   -1.7268 O   0  0  0  0  0  0  0  0  0  0  0  0
    3.4031   -3.7120   -3.0427 C   0  0  0  0  0  0  0  0  0  0  0  0
    4.3365   -3.1441   -3.0148 H   0  0  0  0  0  0  0  0  0  0  0  0
    3.4589   -4.5151   -2.3021 H   0  0  0  0  0  0  0  0  0  0  0  0
    3.2836   -4.1564   -4.0339 H   0  0  0  0  0  0  0  0  0  0  0  0
    1.9657   -1.7211   -3.5626 N   0  0  0  0  0  0  0  0  0  0  0  0
    0.9905   -0.6599   -3.2482 C   0  0  2  0  0  0  0  0  0  0  0  0
    1.2173   -0.0578   -1.8389 C   0  0  0  0  0  0  0  0  0  0  0  0
    2.3314    0.3617   -1.5639 O   0  0  0  0  0  0  0  0  0  0  0  0
   -0.4313   -1.1976   -3.4718 C   0  0  0  0  0  0  0  0  0  0  0  0
    2.6620   -1.5279   -4.2772 H   0  0  0  0  0  0  0  0  0  0  0  0
    1.1430    0.1630   -3.9534 H   0  0  0  0  0  0  0  0  0  0  0  0
   -0.6670   -1.9946   -2.7599 H   0  0  0  0  0  0  0  0  0  0  0  0
   -1.1660   -0.3948   -3.3581 H   0  0  0  0  0  0  0  0  0  0  0  0
   -0.5244   -1.6036   -4.4837 H   0  0  0  0  0  0  0  0  0  0  0  0
    0.1949    0.0454   -0.9088 N   0  0  0  0  0  0  0  0  0  0  0  0
    0.3171   -0.1394    0.5575 C   0  0  2  0  0  0  0  0  0  0  0  0
    1.6932   -0.4927    1.1841 C   0  0  0  0  0  0  0  0  0  0  0  0
    1.9874    0.0004    2.2674 O   0  0  0  0  0  0  0  0  0  0  0  0
   -0.6934   -1.2048    1.0484 C   0  0  0  0  0  0  0  0  0  0  0  0
   -2.2045   -0.8679    0.9423 C   0  0  0  0  0  0  0  0  0  0  0  0
   -3.0012   -2.1166    1.3438 C   0  0  0  0  0  0  0  0  0  0  0  0
   -2.7049   -0.4196   -0.4383 C   0  0  0  0  0  0  0  0  0  0  0  0
   -0.6950   -0.2691   -1.2805 H   0  0  0  0  0  0  0  0  0  0  0  0
    0.0430    0.8188    1.0111 H   0  0  0  0  0  0  0  0  0  0  0  0
   -0.4838   -1.4164    2.1033 H   0  0  0  0  0  0  0  0  0  0  0  0
   -0.4975   -2.1288    0.4923 H   0  0  0  0  0  0  0  0  0  0  0  0
   -2.4251   -0.0668    1.6563 H   0  0  0  0  0  0  0  0  0  0  0  0
   -2.8310   -2.9312    0.6324 H   0  0  0  0  0  0  0  0  0  0  0  0
   -4.0731   -1.8960    1.3696 H   0  0  0  0  0  0  0  0  0  0  0  0
   -2.7008   -2.4573    2.3399 H   0  0  0  0  0  0  0  0  0  0  0  0
   -2.4094   -1.1384   -1.2077 H   0  0  0  0  0  0  0  0  0  0  0  0
   -3.7972   -0.3473   -0.4406 H   0  0  0  0  0  0  0  0  0  0  0  0
   -2.3143    0.5698   -0.6920 H   0  0  0  0  0  0  0  0  0  0  0  0
    2.5082   -1.4650    0.6262 N   0  0  0  0  0  0  0  0  0  0  0  0
    3.8673   -1.8580    1.0437 C   0  0  2  0  0  0  0  0  0  0  0  0
    3.9492   -2.6297    2.3798 C   0  0  0  0  0  0  0  0  0  0  0  0
    4.6719   -3.6155    2.4640 O   0  0  0  0  0  0  0  0  0  0  0  0
    4.8073   -0.6454    1.0509 C   0  0  0  0  0  0  0  0  0  0  0  0
    2.1619   -1.8632   -0.2493 H   0  0  0  0  0  0  0  0  0  0  0  0
    4.2395   -2.5460    0.2783 H   0  0  0  0  0  0  0  0  0  0  0  0
    4.5537    0.0469    1.8590 H   0  0  0  0  0  0  0  0  0  0  0  0
    5.8415   -0.9733    1.1937 H   0  0  0  0  0  0  0  0  0  0  0  0
    4.7412   -0.1086    0.0993 H   0  0  0  0  0  0  0  0  0  0  0  0
    3.2459   -2.2149    3.4926 N   0  0  0  0  0  0  0  0  0  0  0  0
    3.3294   -2.8505    4.7992 C   0  0  0  0  0  0  0  0  0  0  0  0
    2.7164   -1.3451    3.3856 H   0  0  0  0  0  0  0  0  0  0  0  0
    4.3543   -2.8065    5.1817 H   0  0  0  0  0  0  0  0  0  0  0  0
    2.6719   -2.3394    5.5091 H   0  0  0  0  0  0  0  0  0  0  0  0
    3.0204   -3.8989    4.7347 H   0  0  0  0  0  0  0  0  0  0  0  0
  1  2  2  0  0  0  0
  1  3  1  0  0  0  0
  1  7  1  0  0  0  0
  3  4  1  0  0  0  0
  3  5  1  0  0  0  0
  3  6  1  0  0  0  0
  7  8  1  0  0  0  0
  7 12  1  0  0  0  0
  8  9  1  0  0  0  0
  8 11  1  0  0  0  0
  8 13  1  0  0  0  0
  9 10  2  0  0  0  0
  9 17  1  0  0  0  0
 11 14  1  0  0  0  0
 11 15  1  0  0  0  0
 11 16  1  0  0  0  0
 17 18  1  0  0  0  0
 17 25  1  0  0  0  0
 18 19  1  0  0  0  0
 18 21  1  0  0  0  0
 18 26  1  0  0  0  0
 19 20  2  0  0  0  0
 19 36  1  0  0  0  0
 21 22  1  0  0  0  0
 21 27  1  0  0  0  0
 21 28  1  0  0  0  0
 22 23  1  0  0  0  0
 22 24  1  0  0  0  0
 22 29  1  0  0  0  0
 23 30  1  0  0  0  0
 23 31  1  0  0  0  0
 23 32  1  0  0  0  0
 24 33  1  0  0  0  0
 24 34  1  0  0  0  0
 24 35  1  0  0  0  0
 36 37  1  0  0  0  0
 36 41  1  0  0  0  0
 37 38  1  0  0  0  0
 37 40  1  0  0  0  0
 37 42  1  0  0  0  0
 38 39  2  0  0  0  0
 38 46  1  0  0  0  0
 40 43  1  0  0  0  0
 40 44  1  0  0  0  0
 40 45  1  0  0  0  0
 46 47  1  0  0  0  0
 46 48  1  0  0  0  0
 47 49  1  0  0  0  0
 47 50  1  0  0  0  0
 47 51  1  0  0  0  0
M  END
$$$$

  -OEChem-05262216553D

 51 50  0     1  0  0  0  0  0999 V2000
    2.2892   -2.7479   -2.8641 C   0  0  0  0  0  0  0  0  0  0  0  0
    1.7028   -2.9493   -1.8107 O   0  0  0  0  0  0  0  0  0  0  0  0
    3.4870   -3.5995   -3.2372 C   0  0  0  0  0  0  0  0  0  0  0  0
    4.3832   -2.9766   -3.2958 H   0  0  0  0  0  0  0  0  0  0  0  0
    3.6477   -4.3757   -2.4832 H   0  0  0  0  0  0  0  0  0  0  0  0
    3.3195   -4.0787   -4.2047 H   0  0  0  0  0  0  0  0  0  0  0  0
    1.9102   -1.6973   -3.6796 N   0  0  0  0  0  0  0  0  0  0  0  0
    0.8949   -0.6921   -3.3121 C   0  0  2  0  0  0  0  0  0  0  0  0
    1.1684   -0.0692   -1.9201 C   0  0  0  0  0  0  0  0  0  0  0  0
    2.2827    0.3799   -1.6993 O   0  0  0  0  0  0  0  0  0  0  0  0
   -0.5025   -1.3157   -3.4460 C   0  0  0  0  0  0  0  0  0  0  0  0
    2.5449   -1.4758   -4.4418 H   0  0  0  0  0  0  0  0  0  0  0  0
    0.9564    0.1324   -4.0294 H   0  0  0  0  0  0  0  0  0  0  0  0
   -0.6547   -2.1022   -2.6999 H   0  0  0  0  0  0  0  0  0  0  0  0
   -1.2757   -0.5523   -3.3172 H   0  0  0  0  0  0  0  0  0  0  0  0
   -0.6234   -1.7574   -4.4400 H   0  0  0  0  0  0  0  0  0  0  0  0
    0.1864    0.0350   -0.9489 N   0  0  0  0  0  0  0  0  0  0  0  0
    0.3478   -0.1543    0.5152 C   0  0  2  0  0  0  0  0  0  0  0  0
    1.7206   -0.5212    1.1508 C   0  0  0  0  0  0  0  0  0  0  0  0
    1.9129   -0.2006    2.3187 O   0  0  0  0  0  0  0  0  0  0  0  0
   -0.6698   -1.2130    1.0116 C   0  0  0  0  0  0  0  0  0  0  0  0
   -2.1796   -0.8592    0.9384 C   0  0  0  0  0  0  0  0  0  0  0  0
   -2.9789   -2.1062    1.3403 C   0  0  0  0  0  0  0  0  0  0  0  0
   -2.7074   -0.3895   -0.4241 C   0  0  0  0  0  0  0  0  0  0  0  0
   -0.7153   -0.2805   -1.2900 H   0  0  0  0  0  0  0  0  0  0  0  0
    0.0867    0.8050    0.9737 H   0  0  0  0  0  0  0  0  0  0  0  0
   -0.4486   -1.4436    2.0602 H   0  0  0  0  0  0  0  0  0  0  0  0
   -0.4934   -2.1319    0.4407 H   0  0  0  0  0  0  0  0  0  0  0  0
   -2.3770   -0.0647    1.6666 H   0  0  0  0  0  0  0  0  0  0  0  0
   -2.8245   -2.9152    0.6188 H   0  0  0  0  0  0  0  0  0  0  0  0
   -4.0487   -1.8796    1.3848 H   0  0  0  0  0  0  0  0  0  0  0  0
   -2.6662   -2.4586    2.3283 H   0  0  0  0  0  0  0  0  0  0  0  0
   -2.4482   -1.1085   -1.2063 H   0  0  0  0  0  0  0  0  0  0  0  0
   -3.7976   -0.2949   -0.3951 H   0  0  0  0  0  0  0  0  0  0  0  0
   -2.3040    0.5940   -0.6808 H   0  0  0  0  0  0  0  0  0  0  0  0
    2.6839   -1.2644    0.4914 N   0  0  0  0  0  0  0  0  0  0  0  0
    4.0556   -1.5800    0.9326 C   0  0  2  0  0  0  0  0  0  0  0  0
    4.1610   -2.5731    2.1124 C   0  0  0  0  0  0  0  0  0  0  0  0
    5.0035   -3.4623    2.0794 O   0  0  0  0  0  0  0  0  0  0  0  0
    4.8411   -0.2946    1.2219 C   0  0  0  0  0  0  0  0  0  0  0  0
    2.4417   -1.5112   -0.4692 H   0  0  0  0  0  0  0  0  0  0  0  0
    4.5463   -2.0697    0.0859 H   0  0  0  0  0  0  0  0  0  0  0  0
    4.4732    0.1984    2.1265 H   0  0  0  0  0  0  0  0  0  0  0  0
    5.9008   -0.5269    1.3653 H   0  0  0  0  0  0  0  0  0  0  0  0
    4.7486    0.4020    0.3825 H   0  0  0  0  0  0  0  0  0  0  0  0
    3.3511   -2.4567    3.2242 N   0  0  0  0  0  0  0  0  0  0  0  0
    3.4545   -3.2972    4.4082 C   0  0  0  0  0  0  0  0  0  0  0  0
    2.7246   -1.6472    3.2326 H   0  0  0  0  0  0  0  0  0  0  0  0
    4.4293   -3.1636    4.8882 H   0  0  0  0  0  0  0  0  0  0  0  0
    2.6739   -3.0309    5.1271 H   0  0  0  0  0  0  0  0  0  0  0  0
    3.3329   -4.3521    4.1415 H   0  0  0  0  0  0  0  0  0  0  0  0
  1  2  2  0  0  0  0
  1  3  1  0  0  0  0
  1  7  1  0  0  0  0
  3  4  1  0  0  0  0
  3  5  1  0  0  0  0
  3  6  1  0  0  0  0
  7  8  1  0  0  0  0
  7 12  1  0  0  0  0
  8  9  1  0  0  0  0
  8 11  1  0  0  0  0
  8 13  1  0  0  0  0
  9 10  2  0  0  0  0
  9 17  1  0  0  0  0
 11 14  1  0  0  0  0
 11 15  1  0  0  0  0
 11 16  1  0  0  0  0
 17 18  1  0  0  0  0
 17 25  1  0  0  0  0
 18 19  1  0  0  0  0
 18 21  1  0  0  0  0
 18 26  1  0  0  0  0
 19 20  2  0  0  0  0
 19 36  1  0  0  0  0
 21 22  1  0  0  0  0
 21 27  1  0  0  0  0
 21 28  1  0  0  0  0
 22 23  1  0  0  0  0
 22 24  1  0  0  0  0
 22 29  1  0  0  0  0
 23 30  1  0  0  0  0
 23 31  1  0  0  0  0
 23 32  1  0  0  0  0
 24 33  1  0  0  0  0
 24 34  1  0  0  0  0
 24 35  1  0  0  0  0
 36 37  1  0  0  0  0
 36 41  1  0  0  0  0
 37 38  1  0  0  0  0
 37 40  1  0  0  0  0
 37 42  1  0  0  0  0
 38 39  2  0  0  0  0
 38 46  1  0  0  0  0
 40 43  1  0  0  0  0
 40 44  1  0  0  0  0
 40 45  1  0  0  0  0
 46 47  1  0  0  0  0
 46 48  1  0  0  0  0
 47 49  1  0  0  0  0
 47 50  1  0  0  0  0
 47 51  1  0  0  0  0
M  END
$$$$

  -OEChem-05262216553D

 51 50  0     1  0  0  0  0  0999 V2000
    2.5172   -2.7497   -2.1209 C   0  0  0  0  0  0  0  0  0  0  0  0
    1.7897   -2.7677   -1.1388 O   0  0  0  0  0  0  0  0  0  0  0  0
    3.7924   -3.5704   -2.1217 C   0  0  0  0  0  0  0  0  0  0  0  0
    4.6616   -2.9111   -2.1867 H   0  0  0  0  0  0  0  0  0  0  0  0
    3.8659   -4.1563   -1.2008 H   0  0  0  0  0  0  0  0  0  0  0  0
    3.7970   -4.2542   -2.9739 H   0  0  0  0  0  0  0  0  0  0  0  0
    2.2227   -1.9359   -3.2003 N   0  0  0  0  0  0  0  0  0  0  0  0
    1.1086   -0.9694   -3.2469 C   0  0  2  0  0  0  0  0  0  0  0  0
    1.1412    0.0079   -2.0466 C   0  0  0  0  0  0  0  0  0  0  0  0
    2.1136    0.7389   -1.9306 O   0  0  0  0  0  0  0  0  0  0  0  0
   -0.2198   -1.7255   -3.4001 C   0  0  0  0  0  0  0  0  0  0  0  0
    2.9346   -1.8761   -3.9235 H   0  0  0  0  0  0  0  0  0  0  0  0
    1.2325   -0.3484   -4.1399 H   0  0  0  0  0  0  0  0  0  0  0  0
   -0.4086   -2.3729   -2.5385 H   0  0  0  0  0  0  0  0  0  0  0  0
   -1.0509   -1.0206   -3.5001 H   0  0  0  0  0  0  0  0  0  0  0  0
   -0.1933   -2.3511   -4.2975 H   0  0  0  0  0  0  0  0  0  0  0  0
    0.1329    0.0376   -1.0988 N   0  0  0  0  0  0  0  0  0  0  0  0
    0.2672    0.0821    0.3805 C   0  0  2  0  0  0  0  0  0  0  0  0
    1.6531    0.0967    1.1041 C   0  0  0  0  0  0  0  0  0  0  0  0
    1.6522    0.2122    2.3218 O   0  0  0  0  0  0  0  0  0  0  0  0
   -0.5901   -1.0739    0.9729 C   0  0  0  0  0  0  0  0  0  0  0  0
   -2.1333   -0.9951    0.8059 C   0  0  0  0  0  0  0  0  0  0  0  0
   -2.7346   -2.3054    1.3332 C   0  0  0  0  0  0  0  0  0  0  0  0
   -2.6703   -0.7790   -0.6161 C   0  0  0  0  0  0  0  0  0  0  0  0
   -0.6501   -0.5408   -1.3855 H   0  0  0  0  0  0  0  0  0  0  0  0
   -0.1901    1.0257    0.6938 H   0  0  0  0  0  0  0  0  0  0  0  0
   -0.4011   -1.1444    2.0494 H   0  0  0  0  0  0  0  0  0  0  0  0
   -0.2341   -2.0105    0.5311 H   0  0  0  0  0  0  0  0  0  0  0  0
   -2.4955   -0.1683    1.4270 H   0  0  0  0  0  0  0  0  0  0  0  0
   -2.4139   -3.1539    0.7199 H   0  0  0  0  0  0  0  0  0  0  0  0
   -3.8280   -2.2601    1.3193 H   0  0  0  0  0  0  0  0  0  0  0  0
   -2.4166   -2.4838    2.3652 H   0  0  0  0  0  0  0  0  0  0  0  0
   -2.2728   -1.5350   -1.2981 H   0  0  0  0  0  0  0  0  0  0  0  0
   -3.7624   -0.8554   -0.6233 H   0  0  0  0  0  0  0  0  0  0  0  0
   -2.4142    0.2185   -0.9836 H   0  0  0  0  0  0  0  0  0  0  0  0
    2.8512   -0.2257    0.4911 N   0  0  0  0  0  0  0  0  0  0  0  0
    4.1325   -0.5617    1.1403 C   0  0  2  0  0  0  0  0  0  0  0  0
    4.0841   -1.9108    1.8968 C   0  0  0  0  0  0  0  0  0  0  0  0
    4.9409   -2.2015    2.7233 O   0  0  0  0  0  0  0  0  0  0  0  0
    4.6531    0.5953    2.0086 C   0  0  0  0  0  0  0  0  0  0  0  0
    2.8457   -0.1217   -0.5234 H   0  0  0  0  0  0  0  0  0  0  0  0
    4.8621   -0.7030    0.3385 H   0  0  0  0  0  0  0  0  0  0  0  0
    4.0714    0.6911    2.9299 H   0  0  0  0  0  0  0  0  0  0  0  0
    5.6966    0.4166    2.2854 H   0  0  0  0  0  0  0  0  0  0  0  0
    4.5971    1.5394    1.4587 H   0  0  0  0  0  0  0  0  0  0  0  0
    3.1517   -2.8699    1.5413 N   0  0  0  0  0  0  0  0  0  0  0  0
    3.0267   -4.1626    2.1978 C   0  0  0  0  0  0  0  0  0  0  0  0
    2.4779   -2.6139    0.8174 H   0  0  0  0  0  0  0  0  0  0  0  0
    3.9631   -4.7249    2.1213 H   0  0  0  0  0  0  0  0  0  0  0  0
    2.7791   -4.0296    3.2561 H   0  0  0  0  0  0  0  0  0  0  0  0
    2.2319   -4.7479    1.7257 H   0  0  0  0  0  0  0  0  0  0  0  0
  1  2  2  0  0  0  0
  1  3  1  0  0  0  0
  1  7  1  0  0  0  0
  3  4  1  0  0  0  0
  3  5  1  0  0  0  0
  3  6  1  0  0  0  0
  7  8  1  0  0  0  0
  7 12  1  0  0  0  0
  8  9  1  0  0  0  0
  8 11  1  0  0  0  0
  8 13  1  0  0  0  0
  9 10  2  0  0  0  0
  9 17  1  0  0  0  0
 11 14  1  0  0  0  0
 11 15  1  0  0  0  0
 11 16  1  0  0  0  0
 17 18  1  0  0  0  0
 17 25  1  0  0  0  0
 18 19  1  0  0  0  0
 18 21  1  0  0  0  0
 18 26  1  0  0  0  0
 19 20  2  0  0  0  0
 19 36  1  0  0  0  0
 21 22  1  0  0  0  0
 21 27  1  0  0  0  0
 21 28  1  0  0  0  0
 22 23  1  0  0  0  0
 22 24  1  0  0  0  0
 22 29  1  0  0  0  0
 23 30  1  0  0  0  0
 23 31  1  0  0  0  0
 23 32  1  0  0  0  0
 24 33  1  0  0  0  0
 24 34  1  0  0  0  0
 24 35  1  0  0  0  0
 36 37  1  0  0  0  0
 36 41  1  0  0  0  0
 37 38  1  0  0  0  0
 37 40  1  0  0  0  0
 37 42  1  0  0  0  0
 38 39  2  0  0  0  0
 38 46  1  0  0  0  0
 40 43  1  0  0  0  0
 40 44  1  0  0  0  0
 40 45  1  0  0  0  0
 46 47  1  0  0  0  0
 46 48  1  0  0  0  0
 47 49  1  0  0  0  0
 47 50  1  0  0  0  0
 47 51  1  0  0  0  0
M  END
$$$$

  -OEChem-05262216553D

 51 50  0     1  0  0  0  0  0999 V2000
    2.6428   -2.7002   -2.1434 C   0  0  0  0  0  0  0  0  0  0  0  0
    1.8481   -2.8314   -1.2223 O   0  0  0  0  0  0  0  0  0  0  0  0
    3.9015   -3.5457   -2.1729 C   0  0  0  0  0  0  0  0  0  0  0  0
    4.7849   -2.9023   -2.1599 H   0  0  0  0  0  0  0  0  0  0  0  0
    3.9360   -4.2051   -1.3008 H   0  0  0  0  0  0  0  0  0  0  0  0
    3.9192   -4.1585   -3.0776 H   0  0  0  0  0  0  0  0  0  0  0  0
    2.4485   -1.7299   -3.1075 N   0  0  0  0  0  0  0  0  0  0  0  0
    1.3287   -0.7713   -3.1362 C   0  0  2  0  0  0  0  0  0  0  0  0
    1.2267    0.0786   -1.8444 C   0  0  0  0  0  0  0  0  0  0  0  0
    2.0336    0.9812   -1.6990 O   0  0  0  0  0  0  0  0  0  0  0  0
    0.0340   -1.5108   -3.5052 C   0  0  0  0  0  0  0  0  0  0  0  0
    3.2058   -1.5945   -3.7722 H   0  0  0  0  0  0  0  0  0  0  0  0
    1.5232   -0.0527   -3.9393 H   0  0  0  0  0  0  0  0  0  0  0  0
   -0.1951   -2.2940   -2.7783 H   0  0  0  0  0  0  0  0  0  0  0  0
   -0.8071   -0.8116   -3.5487 H   0  0  0  0  0  0  0  0  0  0  0  0
    0.1394   -1.9808   -4.4879 H   0  0  0  0  0  0  0  0  0  0  0  0
    0.1617   -0.0450   -0.9701 N   0  0  0  0  0  0  0  0  0  0  0  0
    0.1124    0.1599    0.5000 C   0  0  2  0  0  0  0  0  0  0  0  0
    1.3180    0.5683    1.4095 C   0  0  0  0  0  0  0  0  0  0  0  0
    1.0497    1.0312    2.5075 O   0  0  0  0  0  0  0  0  0  0  0  0
   -0.5235   -1.1025    1.1479 C   0  0  0  0  0  0  0  0  0  0  0  0
   -2.0156   -1.4083    0.8435 C   0  0  0  0  0  0  0  0  0  0  0  0
   -2.3573   -2.7672    1.4701 C   0  0  0  0  0  0  0  0  0  0  0  0
   -2.4238   -1.4651   -0.6342 C   0  0  0  0  0  0  0  0  0  0  0  0
   -0.4804   -0.7665   -1.2809 H   0  0  0  0  0  0  0  0  0  0  0  0
   -0.5871    0.9903    0.6411 H   0  0  0  0  0  0  0  0  0  0  0  0
   -0.4399   -1.0249    2.2378 H   0  0  0  0  0  0  0  0  0  0  0  0
    0.0803   -1.9650    0.8464 H   0  0  0  0  0  0  0  0  0  0  0  0
   -2.6228   -0.6352    1.3274 H   0  0  0  0  0  0  0  0  0  0  0  0
   -1.7811   -3.5689    0.9969 H   0  0  0  0  0  0  0  0  0  0  0  0
   -3.4227   -2.9883    1.3518 H   0  0  0  0  0  0  0  0  0  0  0  0
   -2.1297   -2.7619    2.5407 H   0  0  0  0  0  0  0  0  0  0  0  0
   -1.7915   -2.1707   -1.1784 H   0  0  0  0  0  0  0  0  0  0  0  0
   -3.4627   -1.7971   -0.7275 H   0  0  0  0  0  0  0  0  0  0  0  0
   -2.3575   -0.4769   -1.0977 H   0  0  0  0  0  0  0  0  0  0  0  0
    2.6380    0.8188    1.1254 N   0  0  0  0  0  0  0  0  0  0  0  0
    3.4976   -0.2730    0.6491 C   0  0  2  0  0  0  0  0  0  0  0  0
    3.6482   -1.4105    1.6829 C   0  0  0  0  0  0  0  0  0  0  0  0
    4.3689   -1.2841    2.6642 O   0  0  0  0  0  0  0  0  0  0  0  0
    4.8526    0.3372    0.2806 C   0  0  0  0  0  0  0  0  0  0  0  0
    3.0425    1.3521    1.8913 H   0  0  0  0  0  0  0  0  0  0  0  0
    3.0841   -0.7215   -0.2489 H   0  0  0  0  0  0  0  0  0  0  0  0
    5.3111    0.8144    1.1528 H   0  0  0  0  0  0  0  0  0  0  0  0
    5.5315   -0.4372   -0.0886 H   0  0  0  0  0  0  0  0  0  0  0  0
    4.7253    1.0914   -0.5024 H   0  0  0  0  0  0  0  0  0  0  0  0
    2.9745   -2.6025    1.4878 N   0  0  0  0  0  0  0  0  0  0  0  0
    3.0031   -3.7045    2.4395 C   0  0  0  0  0  0  0  0  0  0  0  0
    2.3948   -2.6883    0.6492 H   0  0  0  0  0  0  0  0  0  0  0  0
    4.0295   -4.0539    2.5916 H   0  0  0  0  0  0  0  0  0  0  0  0
    2.5919   -3.3867    3.4034 H   0  0  0  0  0  0  0  0  0  0  0  0
    2.4043   -4.5407    2.0660 H   0  0  0  0  0  0  0  0  0  0  0  0
  1  2  2  0  0  0  0
  1  3  1  0  0  0  0
  1  7  1  0  0  0  0
  3  4  1  0  0  0  0
  3  5  1  0  0  0  0
  3  6  1  0  0  0  0
  7  8  1  0  0  0  0
  7 12  1  0  0  0  0
  8  9  1  0  0  0  0
  8 11  1  0  0  0  0
  8 13  1  0  0  0  0
  9 10  2  0  0  0  0
  9 17  1  0  0  0  0
 11 14  1  0  0  0  0
 11 15  1  0  0  0  0
 11 16  1  0  0  0  0
 17 18  1  0  0  0  0
 17 25  1  0  0  0  0
 18 19  1  0  0  0  0
 18 21  1  0  0  0  0
 18 26  1  0  0  0  0
 19 20  2  0  0  0  0
 19 36  1  0  0  0  0
 21 22  1  0  0  0  0
 21 27  1  0  0  0  0
 21 28  1  0  0  0  0
 22 23  1  0  0  0  0
 22 24  1  0  0  0  0
 22 29  1  0  0  0  0
 23 30  1  0  0  0  0
 23 31  1  0  0  0  0
 23 32  1  0  0  0  0
 24 33  1  0  0  0  0
 24 34  1  0  0  0  0
 24 35  1  0  0  0  0
 36 37  1  0  0  0  0
 36 41  1  0  0  0  0
 37 38  1  0  0  0  0
 37 40  1  0  0  0  0
 37 42  1  0  0  0  0
 38 39  2  0  0  0  0
 38 46  1  0  0  0  0
 40 43  1  0  0  0  0
 40 44  1  0  0  0  0
 40 45  1  0  0  0  0
 46 47  1  0  0  0  0
 46 48  1  0  0  0  0
 47 49  1  0  0  0  0
 47 50  1  0  0  0  0
 47 51  1  0  0  0  0
M  END
$$$$

  -OEChem-05262216553D

 51 50  0     1  0  0  0  0  0999 V2000
    3.2452   -3.5743   -2.7245 C   0  0  0  0  0  0  0  0  0  0  0  0
    2.3154   -4.3301   -2.9548 O   0  0  0  0  0  0  0  0  0  0  0  0
    4.6567   -4.1307   -2.7236 C   0  0  0  0  0  0  0  0  0  0  0  0
    4.6755   -5.0970   -2.2127 H   0  0  0  0  0  0  0  0  0  0  0  0
    5.0014   -4.2628   -3.7520 H   0  0  0  0  0  0  0  0  0  0  0  0
    5.3360   -3.4469   -2.2090 H   0  0  0  0  0  0  0  0  0  0  0  0
    3.0565   -2.2209   -2.5175 N   0  0  0  0  0  0  0  0  0  0  0  0
    1.7626   -1.5465   -2.3016 C   0  0  2  0  0  0  0  0  0  0  0  0
    1.1769   -1.7453   -0.8812 C   0  0  0  0  0  0  0  0  0  0  0  0
    1.7273   -2.4354   -0.0370 O   0  0  0  0  0  0  0  0  0  0  0  0
    0.7285   -1.8696   -3.3926 C   0  0  0  0  0  0  0  0  0  0  0  0
    3.8808   -1.7404   -2.1451 H   0  0  0  0  0  0  0  0  0  0  0  0
    1.9734   -0.4771   -2.3911 H   0  0  0  0  0  0  0  0  0  0  0  0
    0.2867   -2.8585   -3.2354 H   0  0  0  0  0  0  0  0  0  0  0  0
   -0.0794   -1.1326   -3.3853 H   0  0  0  0  0  0  0  0  0  0  0  0
    1.2008   -1.8510   -4.3795 H   0  0  0  0  0  0  0  0  0  0  0  0
    0.0506   -1.0406   -0.5069 N   0  0  0  0  0  0  0  0  0  0  0  0
   -0.1892   -0.2586    0.7316 C   0  0  2  0  0  0  0  0  0  0  0  0
    0.8870   -0.1030    1.8689 C   0  0  0  0  0  0  0  0  0  0  0  0
    0.5604    0.2332    2.9963 O   0  0  0  0  0  0  0  0  0  0  0  0
   -1.5266   -0.7842    1.3344 C   0  0  0  0  0  0  0  0  0  0  0  0
   -2.8356   -0.5345    0.5328 C   0  0  0  0  0  0  0  0  0  0  0  0
   -3.9776   -1.2675    1.2515 C   0  0  0  0  0  0  0  0  0  0  0  0
   -2.8410   -0.9996   -0.9320 C   0  0  0  0  0  0  0  0  0  0  0  0
   -0.4776   -0.7101   -1.3076 H   0  0  0  0  0  0  0  0  0  0  0  0
   -0.3583    0.7738    0.4135 H   0  0  0  0  0  0  0  0  0  0  0  0
   -1.6883   -0.3294    2.3165 H   0  0  0  0  0  0  0  0  0  0  0  0
   -1.4101   -1.8613    1.4993 H   0  0  0  0  0  0  0  0  0  0  0  0
   -3.0456    0.5403    0.5462 H   0  0  0  0  0  0  0  0  0  0  0  0
   -3.8150   -2.3503    1.2341 H   0  0  0  0  0  0  0  0  0  0  0  0
   -4.9368   -1.0527    0.7699 H   0  0  0  0  0  0  0  0  0  0  0  0
   -4.0432   -0.9435    2.2950 H   0  0  0  0  0  0  0  0  0  0  0  0
   -2.4761   -2.0290   -1.0117 H   0  0  0  0  0  0  0  0  0  0  0  0
   -3.8558   -0.9636   -1.3412 H   0  0  0  0  0  0  0  0  0  0  0  0
   -2.2201   -0.3453   -1.5490 H   0  0  0  0  0  0  0  0  0  0  0  0
    2.2419   -0.3515    1.8763 N   0  0  0  0  0  0  0  0  0  0  0  0
    3.1498    0.1296    0.8200 C   0  0  2  0  0  0  0  0  0  0  0  0
    4.2156   -0.9078    0.3980 C   0  0  0  0  0  0  0  0  0  0  0  0
    4.8029   -0.7768   -0.6725 O   0  0  0  0  0  0  0  0  0  0  0  0
    3.8352    1.3933    1.3471 C   0  0  0  0  0  0  0  0  0  0  0  0
    2.5920   -0.2618    2.8267 H   0  0  0  0  0  0  0  0  0  0  0  0
    2.5807    0.3998   -0.0729 H   0  0  0  0  0  0  0  0  0  0  0  0
    4.4424    1.1633    2.2285 H   0  0  0  0  0  0  0  0  0  0  0  0
    4.4883    1.8204    0.5790 H   0  0  0  0  0  0  0  0  0  0  0  0
    3.0902    2.1460    1.6239 H   0  0  0  0  0  0  0  0  0  0  0  0
    4.4896   -1.9863    1.2167 N   0  0  0  0  0  0  0  0  0  0  0  0
    5.3455   -3.0965    0.8211 C   0  0  0  0  0  0  0  0  0  0  0  0
    3.7499   -2.1851    1.8879 H   0  0  0  0  0  0  0  0  0  0  0  0
    4.7915   -3.7894    0.1807 H   0  0  0  0  0  0  0  0  0  0  0  0
    6.2292   -2.7413    0.2807 H   0  0  0  0  0  0  0  0  0  0  0  0
    5.6873   -3.6394    1.7076 H   0  0  0  0  0  0  0  0  0  0  0  0
  1  2  2  0  0  0  0
  1  3  1  0  0  0  0
  1  7  1  0  0  0  0
  3  4  1  0  0  0  0
  3  5  1  0  0  0  0
  3  6  1  0  0  0  0
  7  8  1  0  0  0  0
  7 12  1  0  0  0  0
  8  9  1  0  0  0  0
  8 11  1  0  0  0  0
  8 13  1  0  0  0  0
  9 10  2  0  0  0  0
  9 17  1  0  0  0  0
 11 14  1  0  0  0  0
 11 15  1  0  0  0  0
 11 16  1  0  0  0  0
 17 18  1  0  0  0  0
 17 25  1  0  0  0  0
 18 19  1  0  0  0  0
 18 21  1  0  0  0  0
 18 26  1  0  0  0  0
 19 20  2  0  0  0  0
 19 36  1  0  0  0  0
 21 22  1  0  0  0  0
 21 27  1  0  0  0  0
 21 28  1  0  0  0  0
 22 23  1  0  0  0  0
 22 24  1  0  0  0  0
 22 29  1  0  0  0  0
 23 30  1  0  0  0  0
 23 31  1  0  0  0  0
 23 32  1  0  0  0  0
 24 33  1  0  0  0  0
 24 34  1  0  0  0  0
 24 35  1  0  0  0  0
 36 37  1  0  0  0  0
 36 41  1  0  0  0  0
 37 38  1  0  0  0  0
 37 40  1  0  0  0  0
 37 42  1  0  0  0  0
 38 39  2  0  0  0  0
 38 46  1  0  0  0  0
 40 43  1  0  0  0  0
 40 44  1  0  0  0  0
 40 45  1  0  0  0  0
 46 47  1  0  0  0  0
 46 48  1  0  0  0  0
 47 49  1  0  0  0  0
 47 50  1  0  0  0  0
 47 51  1  0  0  0  0
M  END
$$$$

  -OEChem-05262216553D

 51 50  0     1  0  0  0  0  0999 V2000
    2.2715   -2.7752   -2.2877 C   0  0  0  0  0  0  0  0  0  0  0  0
    1.4794   -2.8826   -1.3643 O   0  0  0  0  0  0  0  0  0  0  0  0
    3.4814   -3.6865   -2.3617 C   0  0  0  0  0  0  0  0  0  0  0  0
    4.3816   -3.1341   -2.0809 H   0  0  0  0  0  0  0  0  0  0  0  0
    3.3578   -4.5326   -1.6809 H   0  0  0  0  0  0  0  0  0  0  0  0
    3.6028   -4.0714   -3.3770 H   0  0  0  0  0  0  0  0  0  0  0  0
    2.0625   -1.8360   -3.2806 N   0  0  0  0  0  0  0  0  0  0  0  0
    0.9861   -0.8296   -3.2768 C   0  0  2  0  0  0  0  0  0  0  0  0
    1.0642    0.0860   -2.0337 C   0  0  0  0  0  0  0  0  0  0  0  0
    1.9253    0.9534   -2.0158 O   0  0  0  0  0  0  0  0  0  0  0  0
   -0.3827   -1.5032   -3.4678 C   0  0  0  0  0  0  0  0  0  0  0  0
    2.8329   -1.7047   -3.9308 H   0  0  0  0  0  0  0  0  0  0  0  0
    1.1397   -0.1754   -4.1412 H   0  0  0  0  0  0  0  0  0  0  0  0
   -0.6263   -2.1614   -2.6289 H   0  0  0  0  0  0  0  0  0  0  0  0
   -1.1685   -0.7466   -3.5568 H   0  0  0  0  0  0  0  0  0  0  0  0
   -0.3798   -2.1037   -4.3826 H   0  0  0  0  0  0  0  0  0  0  0  0
    0.1061    0.0740   -1.0348 N   0  0  0  0  0  0  0  0  0  0  0  0
    0.3279   -0.0154    0.4320 C   0  0  2  0  0  0  0  0  0  0  0  0
    1.7728   -0.1191    1.0352 C   0  0  0  0  0  0  0  0  0  0  0  0
    1.9427   -0.6894    2.1077 O   0  0  0  0  0  0  0  0  0  0  0  0
   -0.6015   -1.1424    0.9761 C   0  0  0  0  0  0  0  0  0  0  0  0
   -2.1374   -0.9114    0.9040 C   0  0  0  0  0  0  0  0  0  0  0  0
   -2.8329   -2.2037    1.3539 C   0  0  0  0  0  0  0  0  0  0  0  0
   -2.7202   -0.5241   -0.4636 C   0  0  0  0  0  0  0  0  0  0  0  0
   -0.6659   -0.5246   -1.3119 H   0  0  0  0  0  0  0  0  0  0  0  0
   -0.0417    0.9277    0.8452 H   0  0  0  0  0  0  0  0  0  0  0  0
   -0.3797   -1.3165    2.0333 H   0  0  0  0  0  0  0  0  0  0  0  0
   -0.3522   -2.0669    0.4445 H   0  0  0  0  0  0  0  0  0  0  0  0
   -2.3900   -0.1132    1.6103 H   0  0  0  0  0  0  0  0  0  0  0  0
   -2.6241   -3.0203    0.6550 H   0  0  0  0  0  0  0  0  0  0  0  0
   -3.9166   -2.0590    1.4056 H   0  0  0  0  0  0  0  0  0  0  0  0
   -2.4827   -2.4998    2.3478 H   0  0  0  0  0  0  0  0  0  0  0  0
   -2.4146   -1.2394   -1.2322 H   0  0  0  0  0  0  0  0  0  0  0  0
   -3.8140   -0.5175   -0.4203 H   0  0  0  0  0  0  0  0  0  0  0  0
   -2.4022    0.4815   -0.7528 H   0  0  0  0  0  0  0  0  0  0  0  0
    2.8960    0.4332    0.4454 N   0  0  0  0  0  0  0  0  0  0  0  0
    4.3093    0.2093    0.8046 C   0  0  2  0  0  0  0  0  0  0  0  0
    4.7550   -1.2689    0.7070 C   0  0  0  0  0  0  0  0  0  0  0  0
    5.5481   -1.6101   -0.1633 O   0  0  0  0  0  0  0  0  0  0  0  0
    4.6385    0.8132    2.1775 C   0  0  0  0  0  0  0  0  0  0  0  0
    2.7211    0.8778   -0.4581 H   0  0  0  0  0  0  0  0  0  0  0  0
    4.9103    0.7539    0.0691 H   0  0  0  0  0  0  0  0  0  0  0  0
    4.1389    0.2708    2.9850 H   0  0  0  0  0  0  0  0  0  0  0  0
    5.7174    0.7710    2.3559 H   0  0  0  0  0  0  0  0  0  0  0  0
    4.3215    1.8597    2.2149 H   0  0  0  0  0  0  0  0  0  0  0  0
    4.2501   -2.2193    1.5721 N   0  0  0  0  0  0  0  0  0  0  0  0
    4.5069   -3.6470    1.4514 C   0  0  0  0  0  0  0  0  0  0  0  0
    3.4411   -1.9105    2.1193 H   0  0  0  0  0  0  0  0  0  0  0  0
    4.0018   -4.0523    0.5703 H   0  0  0  0  0  0  0  0  0  0  0  0
    5.5812   -3.8412    1.3646 H   0  0  0  0  0  0  0  0  0  0  0  0
    4.1351   -4.1707    2.3372 H   0  0  0  0  0  0  0  0  0  0  0  0
  1  2  2  0  0  0  0
  1  3  1  0  0  0  0
  1  7  1  0  0  0  0
  3  4  1  0  0  0  0
  3  5  1  0  0  0  0
  3  6  1  0  0  0  0
  7  8  1  0  0  0  0
  7 12  1  0  0  0  0
  8  9  1  0  0  0  0
  8 11  1  0  0  0  0
  8 13  1  0  0  0  0
  9 10  2  0  0  0  0
  9 17  1  0  0  0  0
 11 14  1  0  0  0  0
 11 15  1  0  0  0  0
 11 16  1  0  0  0  0
 17 18  1  0  0  0  0
 17 25  1  0  0  0  0
 18 19  1  0  0  0  0
 18 21  1  0  0  0  0
 18 26  1  0  0  0  0
 19 20  2  0  0  0  0
 19 36  1  0  0  0  0
 21 22  1  0  0  0  0
 21 27  1  0  0  0  0
 21 28  1  0  0  0  0
 22 23  1  0  0  0  0
 22 24  1  0  0  0  0
 22 29  1  0  0  0  0
 23 30  1  0  0  0  0
 23 31  1  0  0  0  0
 23 32  1  0  0  0  0
 24 33  1  0  0  0  0
 24 34  1  0  0  0  0
 24 35  1  0  0  0  0
 36 37  1  0  0  0  0
 36 41  1  0  0  0  0
 37 38  1  0  0  0  0
 37 40  1  0  0  0  0
 37 42  1  0  0  0  0
 38 39  2  0  0  0  0
 38 46  1  0  0  0  0
 40 43  1  0  0  0  0
 40 44  1  0  0  0  0
 40 45  1  0  0  0  0
 46 47  1  0  0  0  0
 46 48  1  0  0  0  0
 47 49  1  0  0  0  0
 47 50  1  0  0  0  0
 47 51  1  0  0  0  0
M  END
$$$$

  -OEChem-05262216553D

 51 50  0     1  0  0  0  0  0999 V2000
    2.5169   -2.7196   -2.3902 C   0  0  0  0  0  0  0  0  0  0  0  0
    1.7941   -2.9467   -1.4312 O   0  0  0  0  0  0  0  0  0  0  0  0
    3.8344   -3.4552   -2.5450 C   0  0  0  0  0  0  0  0  0  0  0  0
    4.6600   -2.8043   -2.2456 H   0  0  0  0  0  0  0  0  0  0  0  0
    3.8427   -4.3513   -1.9195 H   0  0  0  0  0  0  0  0  0  0  0  0
    3.9785   -3.7566   -3.5851 H   0  0  0  0  0  0  0  0  0  0  0  0
    2.1391   -1.8007   -3.3515 N   0  0  0  0  0  0  0  0  0  0  0  0
    0.9723   -0.9092   -3.2377 C   0  0  2  0  0  0  0  0  0  0  0  0
    1.0701   -0.0098   -1.9839 C   0  0  0  0  0  0  0  0  0  0  0  0
    1.9588    0.8286   -1.9529 O   0  0  0  0  0  0  0  0  0  0  0  0
   -0.3343   -1.7145   -3.3337 C   0  0  0  0  0  0  0  0  0  0  0  0
    2.8700   -1.5360   -4.0065 H   0  0  0  0  0  0  0  0  0  0  0  0
    0.9881   -0.2299   -4.0959 H   0  0  0  0  0  0  0  0  0  0  0  0
   -0.4680   -2.3673   -2.4659 H   0  0  0  0  0  0  0  0  0  0  0  0
   -1.1924   -1.0385   -3.3967 H   0  0  0  0  0  0  0  0  0  0  0  0
   -0.3241   -2.3387   -4.2325 H   0  0  0  0  0  0  0  0  0  0  0  0
    0.0845    0.0283   -1.0124 N   0  0  0  0  0  0  0  0  0  0  0  0
    0.2741    0.0117    0.4603 C   0  0  2  0  0  0  0  0  0  0  0  0
    1.7163   -0.0628    1.0697 C   0  0  0  0  0  0  0  0  0  0  0  0
    1.9308   -0.7596    2.0562 O   0  0  0  0  0  0  0  0  0  0  0  0
   -0.6510   -1.0987    1.0412 C   0  0  0  0  0  0  0  0  0  0  0  0
   -2.1880   -0.8944    0.9277 C   0  0  0  0  0  0  0  0  0  0  0  0
   -2.8755   -2.1724    1.4282 C   0  0  0  0  0  0  0  0  0  0  0  0
   -2.7440   -0.5893   -0.4712 C   0  0  0  0  0  0  0  0  0  0  0  0
   -0.6970   -0.5592   -1.2857 H   0  0  0  0  0  0  0  0  0  0  0  0
   -0.1060    0.9697    0.8272 H   0  0  0  0  0  0  0  0  0  0  0  0
   -0.4468   -1.2116    2.1107 H   0  0  0  0  0  0  0  0  0  0  0  0
   -0.3750   -2.0448    0.5616 H   0  0  0  0  0  0  0  0  0  0  0  0
   -2.4684   -0.0646    1.5857 H   0  0  0  0  0  0  0  0  0  0  0  0
   -2.6333   -3.0217    0.7811 H   0  0  0  0  0  0  0  0  0  0  0  0
   -3.9625   -2.0448    1.4420 H   0  0  0  0  0  0  0  0  0  0  0  0
   -2.5496   -2.4082    2.4462 H   0  0  0  0  0  0  0  0  0  0  0  0
   -2.4096   -1.3404   -1.1924 H   0  0  0  0  0  0  0  0  0  0  0  0
   -3.8385   -0.5970   -0.4539 H   0  0  0  0  0  0  0  0  0  0  0  0
   -2.4335    0.4043   -0.8062 H   0  0  0  0  0  0  0  0  0  0  0  0
    2.7654    0.7114    0.6057 N   0  0  0  0  0  0  0  0  0  0  0  0
    4.1939    0.5409    0.9360 C   0  0  2  0  0  0  0  0  0  0  0  0
    4.7462   -0.8740    0.6322 C   0  0  0  0  0  0  0  0  0  0  0  0
    5.4905   -1.0460   -0.3268 O   0  0  0  0  0  0  0  0  0  0  0  0
    4.4821    0.9693    2.3823 C   0  0  0  0  0  0  0  0  0  0  0  0
    2.5697    1.1484   -0.2990 H   0  0  0  0  0  0  0  0  0  0  0  0
    4.7511    1.2251    0.2881 H   0  0  0  0  0  0  0  0  0  0  0  0
    4.0077    0.2973    3.1027 H   0  0  0  0  0  0  0  0  0  0  0  0
    5.5606    0.9613    2.5671 H   0  0  0  0  0  0  0  0  0  0  0  0
    4.1080    1.9824    2.5561 H   0  0  0  0  0  0  0  0  0  0  0  0
    4.3915   -1.9513    1.4208 N   0  0  0  0  0  0  0  0  0  0  0  0
    4.7094   -3.3351    1.0998 C   0  0  0  0  0  0  0  0  0  0  0  0
    3.5810   -1.7742    2.0210 H   0  0  0  0  0  0  0  0  0  0  0  0
    3.9978   -3.7245    0.3666 H   0  0  0  0  0  0  0  0  0  0  0  0
    5.7226   -3.4242    0.6941 H   0  0  0  0  0  0  0  0  0  0  0  0
    4.6503   -3.9508    2.0022 H   0  0  0  0  0  0  0  0  0  0  0  0
  1  2  2  0  0  0  0
  1  3  1  0  0  0  0
  1  7  1  0  0  0  0
  3  4  1  0  0  0  0
  3  5  1  0  0  0  0
  3  6  1  0  0  0  0
  7  8  1  0  0  0  0
  7 12  1  0  0  0  0
  8  9  1  0  0  0  0
  8 11  1  0  0  0  0
  8 13  1  0  0  0  0
  9 10  2  0  0  0  0
  9 17  1  0  0  0  0
 11 14  1  0  0  0  0
 11 15  1  0  0  0  0
 11 16  1  0  0  0  0
 17 18  1  0  0  0  0
 17 25  1  0  0  0  0
 18 19  1  0  0  0  0
 18 21  1  0  0  0  0
 18 26  1  0  0  0  0
 19 20  2  0  0  0  0
 19 36  1  0  0  0  0
 21 22  1  0  0  0  0
 21 27  1  0  0  0  0
 21 28  1  0  0  0  0
 22 23  1  0  0  0  0
 22 24  1  0  0  0  0
 22 29  1  0  0  0  0
 23 30  1  0  0  0  0
 23 31  1  0  0  0  0
 23 32  1  0  0  0  0
 24 33  1  0  0  0  0
 24 34  1  0  0  0  0
 24 35  1  0  0  0  0
 36 37  1  0  0  0  0
 36 41  1  0  0  0  0
 37 38  1  0  0  0  0
 37 40  1  0  0  0  0
 37 42  1  0  0  0  0
 38 39  2  0  0  0  0
 38 46  1  0  0  0  0
 40 43  1  0  0  0  0
 40 44  1  0  0  0  0
 40 45  1  0  0  0  0
 46 47  1  0  0  0  0
 46 48  1  0  0  0  0
 47 49  1  0  0  0  0
 47 50  1  0  0  0  0
 47 51  1  0  0  0  0
M  END
$$$$

  -OEChem-05262216553D

 51 50  0     1  0  0  0  0  0999 V2000
    3.3427   -2.4892   -3.6443 C   0  0  0  0  0  0  0  0  0  0  0  0
    2.6175   -3.1269   -4.3931 O   0  0  0  0  0  0  0  0  0  0  0  0
    4.8476   -2.5088   -3.8306 C   0  0  0  0  0  0  0  0  0  0  0  0
    5.2108   -1.4962   -4.0229 H   0  0  0  0  0  0  0  0  0  0  0  0
    5.3291   -2.8907   -2.9272 H   0  0  0  0  0  0  0  0  0  0  0  0
    5.1170   -3.1488   -4.6750 H   0  0  0  0  0  0  0  0  0  0  0  0
    2.7955   -1.7584   -2.6141 N   0  0  0  0  0  0  0  0  0  0  0  0
    1.3547   -1.5527   -2.4070 C   0  0  2  0  0  0  0  0  0  0  0  0
    1.0782   -0.1995   -1.7161 C   0  0  0  0  0  0  0  0  0  0  0  0
    1.8731    0.7270   -1.8052 O   0  0  0  0  0  0  0  0  0  0  0  0
    0.8201   -2.7313   -1.5827 C   0  0  0  0  0  0  0  0  0  0  0  0
    3.4499   -1.1837   -2.0708 H   0  0  0  0  0  0  0  0  0  0  0  0
    0.8433   -1.5313   -3.3755 H   0  0  0  0  0  0  0  0  0  0  0  0
    1.2671   -2.7344   -0.5833 H   0  0  0  0  0  0  0  0  0  0  0  0
   -0.2673   -2.6726   -1.4820 H   0  0  0  0  0  0  0  0  0  0  0  0
    1.0633   -3.6787   -2.0743 H   0  0  0  0  0  0  0  0  0  0  0  0
   -0.0531    0.0483   -0.9598 N   0  0  0  0  0  0  0  0  0  0  0  0
   -0.0036    0.2048    0.5136 C   0  0  2  0  0  0  0  0  0  0  0  0
    1.4004    0.0668    1.1826 C   0  0  0  0  0  0  0  0  0  0  0  0
    1.6180   -0.8510    1.9667 O   0  0  0  0  0  0  0  0  0  0  0  0
   -1.0430   -0.7390    1.1775 C   0  0  0  0  0  0  0  0  0  0  0  0
   -2.5442   -0.4483    0.9126 C   0  0  0  0  0  0  0  0  0  0  0  0
   -3.3676   -1.5824    1.5382 C   0  0  0  0  0  0  0  0  0  0  0  0
   -2.9577   -0.3305   -0.5621 C   0  0  0  0  0  0  0  0  0  0  0  0
   -0.8159   -0.5605   -1.2413 H   0  0  0  0  0  0  0  0  0  0  0  0
   -0.3150    1.2304    0.7345 H   0  0  0  0  0  0  0  0  0  0  0  0
   -0.9028   -0.6955    2.2636 H   0  0  0  0  0  0  0  0  0  0  0  0
   -0.8169   -1.7645    0.8668 H   0  0  0  0  0  0  0  0  0  0  0  0
   -2.8047    0.4916    1.4115 H   0  0  0  0  0  0  0  0  0  0  0  0
   -3.1567   -2.5352    1.0419 H   0  0  0  0  0  0  0  0  0  0  0  0
   -4.4384   -1.3738    1.4485 H   0  0  0  0  0  0  0  0  0  0  0  0
   -3.1305   -1.6852    2.6019 H   0  0  0  0  0  0  0  0  0  0  0  0
   -2.6056   -1.1938   -1.1352 H   0  0  0  0  0  0  0  0  0  0  0  0
   -4.0480   -0.2844   -0.6483 H   0  0  0  0  0  0  0  0  0  0  0  0
   -2.5593    0.5867   -1.0052 H   0  0  0  0  0  0  0  0  0  0  0  0
    2.4394    0.9163    0.8437 N   0  0  0  0  0  0  0  0  0  0  0  0
    3.8684    0.6147    1.0541 C   0  0  2  0  0  0  0  0  0  0  0  0
    4.3140   -0.7209    0.4053 C   0  0  0  0  0  0  0  0  0  0  0  0
    4.8132   -0.7271   -0.7151 O   0  0  0  0  0  0  0  0  0  0  0  0
    4.2409    0.6978    2.5424 C   0  0  0  0  0  0  0  0  0  0  0  0
    2.2397    1.4348   -0.0177 H   0  0  0  0  0  0  0  0  0  0  0  0
    4.4377    1.3990    0.5449 H   0  0  0  0  0  0  0  0  0  0  0  0
    3.7557   -0.0895    3.1256 H   0  0  0  0  0  0  0  0  0  0  0  0
    5.3236    0.5947    2.6637 H   0  0  0  0  0  0  0  0  0  0  0  0
    3.9377    1.6661    2.9517 H   0  0  0  0  0  0  0  0  0  0  0  0
    4.0648   -1.9301    1.0245 N   0  0  0  0  0  0  0  0  0  0  0  0
    4.3303   -3.2240    0.4089 C   0  0  0  0  0  0  0  0  0  0  0  0
    3.3794   -1.8829    1.7825 H   0  0  0  0  0  0  0  0  0  0  0  0
    3.6963   -3.3718   -0.4704 H   0  0  0  0  0  0  0  0  0  0  0  0
    5.3794   -3.2953    0.1033 H   0  0  0  0  0  0  0  0  0  0  0  0
    4.1265   -4.0279    1.1228 H   0  0  0  0  0  0  0  0  0  0  0  0
  1  2  2  0  0  0  0
  1  3  1  0  0  0  0
  1  7  1  0  0  0  0
  3  4  1  0  0  0  0
  3  5  1  0  0  0  0
  3  6  1  0  0  0  0
  7  8  1  0  0  0  0
  7 12  1  0  0  0  0
  8  9  1  0  0  0  0
  8 11  1  0  0  0  0
  8 13  1  0  0  0  0
  9 10  2  0  0  0  0
  9 17  1  0  0  0  0
 11 14  1  0  0  0  0
 11 15  1  0  0  0  0
 11 16  1  0  0  0  0
 17 18  1  0  0  0  0
 17 25  1  0  0  0  0
 18 19  1  0  0  0  0
 18 21  1  0  0  0  0
 18 26  1  0  0  0  0
 19 20  2  0  0  0  0
 19 36  1  0  0  0  0
 21 22  1  0  0  0  0
 21 27  1  0  0  0  0
 21 28  1  0  0  0  0
 22 23  1  0  0  0  0
 22 24  1  0  0  0  0
 22 29  1  0  0  0  0
 23 30  1  0  0  0  0
 23 31  1  0  0  0  0
 23 32  1  0  0  0  0
 24 33  1  0  0  0  0
 24 34  1  0  0  0  0
 24 35  1  0  0  0  0
 36 37  1  0  0  0  0
 36 41  1  0  0  0  0
 37 38  1  0  0  0  0
 37 40  1  0  0  0  0
 37 42  1  0  0  0  0
 38 39  2  0  0  0  0
 38 46  1  0  0  0  0
 40 43  1  0  0  0  0
 40 44  1  0  0  0  0
 40 45  1  0  0  0  0
 46 47  1  0  0  0  0
 46 48  1  0  0  0  0
 47 49  1  0  0  0  0
 47 50  1  0  0  0  0
 47 51  1  0  0  0  0
M  END
$$$$

  -OEChem-05262216553D

 51 50  0     1  0  0  0  0  0999 V2000
    3.4432   -2.4149   -3.5386 C   0  0  0  0  0  0  0  0  0  0  0  0
    2.7770   -3.1112   -4.2900 O   0  0  0  0  0  0  0  0  0  0  0  0
    4.9487   -2.3283   -3.7021 C   0  0  0  0  0  0  0  0  0  0  0  0
    5.4425   -2.6798   -2.7933 H   0  0  0  0  0  0  0  0  0  0  0  0
    5.2754   -2.9438   -4.5444 H   0  0  0  0  0  0  0  0  0  0  0  0
    5.2434   -1.2917   -3.8849 H   0  0  0  0  0  0  0  0  0  0  0  0
    2.8299   -1.7065   -2.5307 N   0  0  0  0  0  0  0  0  0  0  0  0
    1.3748   -1.5608   -2.3763 C   0  0  2  0  0  0  0  0  0  0  0  0
    1.0401   -0.2071   -1.7150 C   0  0  0  0  0  0  0  0  0  0  0  0
    1.8350    0.7237   -1.7584 O   0  0  0  0  0  0  0  0  0  0  0  0
    0.8574   -2.7455   -1.5509 C   0  0  0  0  0  0  0  0  0  0  0  0
    3.4306   -1.0554   -2.0104 H   0  0  0  0  0  0  0  0  0  0  0  0
    0.8944   -1.5708   -3.3605 H   0  0  0  0  0  0  0  0  0  0  0  0
    1.2978   -2.7363   -0.5486 H   0  0  0  0  0  0  0  0  0  0  0  0
   -0.2316   -2.7078   -1.4578 H   0  0  0  0  0  0  0  0  0  0  0  0
    1.1235   -3.6896   -2.0371 H   0  0  0  0  0  0  0  0  0  0  0  0
   -0.1128    0.0541   -0.9960 N   0  0  0  0  0  0  0  0  0  0  0  0
   -0.0569    0.2103    0.4760 C   0  0  2  0  0  0  0  0  0  0  0  0
    1.3625    0.0430    1.0983 C   0  0  0  0  0  0  0  0  0  0  0  0
    1.6236   -0.9648    1.7474 O   0  0  0  0  0  0  0  0  0  0  0  0
   -1.0893   -0.7216    1.1634 C   0  0  0  0  0  0  0  0  0  0  0  0
   -2.5927   -0.4262    0.9169 C   0  0  0  0  0  0  0  0  0  0  0  0
   -3.4130   -1.5498    1.5652 C   0  0  0  0  0  0  0  0  0  0  0  0
   -3.0234   -0.3251   -0.5545 C   0  0  0  0  0  0  0  0  0  0  0  0
   -0.8681   -0.5636   -1.2784 H   0  0  0  0  0  0  0  0  0  0  0  0
   -0.3524    1.2390    0.7044 H   0  0  0  0  0  0  0  0  0  0  0  0
   -0.9259   -0.6721    2.2460 H   0  0  0  0  0  0  0  0  0  0  0  0
   -0.8755   -1.7505    0.8547 H   0  0  0  0  0  0  0  0  0  0  0  0
   -2.8424    0.5205    1.4085 H   0  0  0  0  0  0  0  0  0  0  0  0
   -3.2135   -2.5088    1.0763 H   0  0  0  0  0  0  0  0  0  0  0  0
   -4.4842   -1.3376    1.4884 H   0  0  0  0  0  0  0  0  0  0  0  0
   -3.1616   -1.6424    2.6266 H   0  0  0  0  0  0  0  0  0  0  0  0
   -2.6846   -1.1989   -1.1196 H   0  0  0  0  0  0  0  0  0  0  0  0
   -4.1144   -0.2723   -0.6278 H   0  0  0  0  0  0  0  0  0  0  0  0
   -2.6236    0.5824   -1.0155 H   0  0  0  0  0  0  0  0  0  0  0  0
    2.3205    1.0345    0.9732 N   0  0  0  0  0  0  0  0  0  0  0  0
    3.7614    0.7953    1.1967 C   0  0  2  0  0  0  0  0  0  0  0  0
    4.3201   -0.4540    0.4592 C   0  0  0  0  0  0  0  0  0  0  0  0
    4.7635   -0.3566   -0.6803 O   0  0  0  0  0  0  0  0  0  0  0  0
    4.0670    0.7736    2.7021 C   0  0  0  0  0  0  0  0  0  0  0  0
    2.1125    1.6554    0.1878 H   0  0  0  0  0  0  0  0  0  0  0  0
    4.3002    1.6505    0.7758 H   0  0  0  0  0  0  0  0  0  0  0  0
    3.5705   -0.0640    3.2000 H   0  0  0  0  0  0  0  0  0  0  0  0
    5.1451    0.6820    2.8661 H   0  0  0  0  0  0  0  0  0  0  0  0
    3.7246    1.7025    3.1682 H   0  0  0  0  0  0  0  0  0  0  0  0
    4.2616   -1.7074    1.0393 N   0  0  0  0  0  0  0  0  0  0  0  0
    4.6287   -2.9349    0.3441 C   0  0  0  0  0  0  0  0  0  0  0  0
    3.5782   -1.7765    1.7959 H   0  0  0  0  0  0  0  0  0  0  0  0
    3.8906   -3.1759   -0.4266 H   0  0  0  0  0  0  0  0  0  0  0  0
    5.6123   -2.8347   -0.1265 H   0  0  0  0  0  0  0  0  0  0  0  0
    4.6740   -3.7671    1.0531 H   0  0  0  0  0  0  0  0  0  0  0  0
  1  2  2  0  0  0  0
  1  3  1  0  0  0  0
  1  7  1  0  0  0  0
  3  4  1  0  0  0  0
  3  5  1  0  0  0  0
  3  6  1  0  0  0  0
  7  8  1  0  0  0  0
  7 12  1  0  0  0  0
  8  9  1  0  0  0  0
  8 11  1  0  0  0  0
  8 13  1  0  0  0  0
  9 10  2  0  0  0  0
  9 17  1  0  0  0  0
 11 14  1  0  0  0  0
 11 15  1  0  0  0  0
 11 16  1  0  0  0  0
 17 18  1  0  0  0  0
 17 25  1  0  0  0  0
 18 19  1  0  0  0  0
 18 21  1  0  0  0  0
 18 26  1  0  0  0  0
 19 20  2  0  0  0  0
 19 36  1  0  0  0  0
 21 22  1  0  0  0  0
 21 27  1  0  0  0  0
 21 28  1  0  0  0  0
 22 23  1  0  0  0  0
 22 24  1  0  0  0  0
 22 29  1  0  0  0  0
 23 30  1  0  0  0  0
 23 31  1  0  0  0  0
 23 32  1  0  0  0  0
 24 33  1  0  0  0  0
 24 34  1  0  0  0  0
 24 35  1  0  0  0  0
 36 37  1  0  0  0  0
 36 41  1  0  0  0  0
 37 38  1  0  0  0  0
 37 40  1  0  0  0  0
 37 42  1  0  0  0  0
 38 39  2  0  0  0  0
 38 46  1  0  0  0  0
 40 43  1  0  0  0  0
 40 44  1  0  0  0  0
 40 45  1  0  0  0  0
 46 47  1  0  0  0  0
 46 48  1  0  0  0  0
 47 49  1  0  0  0  0
 47 50  1  0  0  0  0
 47 51  1  0  0  0  0
M  END
$$$$

  -OEChem-05262216553D

 51 50  0     1  0  0  0  0  0999 V2000
    3.5367   -2.2664   -3.4501 C   0  0  0  0  0  0  0  0  0  0  0  0
    2.9286   -2.9572   -4.2540 O   0  0  0  0  0  0  0  0  0  0  0  0
    5.0449   -2.1342   -3.5424 C   0  0  0  0  0  0  0  0  0  0  0  0
    5.5199   -2.7691   -2.7914 H   0  0  0  0  0  0  0  0  0  0  0  0
    5.3901   -2.4365   -4.5346 H   0  0  0  0  0  0  0  0  0  0  0  0
    5.3412   -1.0964   -3.3672 H   0  0  0  0  0  0  0  0  0  0  0  0
    2.8566   -1.6133   -2.4476 N   0  0  0  0  0  0  0  0  0  0  0  0
    1.3920   -1.4931   -2.3816 C   0  0  2  0  0  0  0  0  0  0  0  0
    1.0124   -0.1568   -1.7110 C   0  0  0  0  0  0  0  0  0  0  0  0
    1.8055    0.7770   -1.6982 O   0  0  0  0  0  0  0  0  0  0  0  0
    0.8385   -2.7040   -1.6216 C   0  0  0  0  0  0  0  0  0  0  0  0
    3.4053   -0.9384   -1.9008 H   0  0  0  0  0  0  0  0  0  0  0  0
    0.9713   -1.4815   -3.3927 H   0  0  0  0  0  0  0  0  0  0  0  0
    1.2360   -2.7325   -0.6023 H   0  0  0  0  0  0  0  0  0  0  0  0
   -0.2534   -2.6668   -1.5738 H   0  0  0  0  0  0  0  0  0  0  0  0
    1.1260   -3.6301   -2.1294 H   0  0  0  0  0  0  0  0  0  0  0  0
   -0.1588    0.0931   -1.0168 N   0  0  0  0  0  0  0  0  0  0  0  0
   -0.1076    0.2223    0.4574 C   0  0  2  0  0  0  0  0  0  0  0  0
    1.3187    0.0340    1.0527 C   0  0  0  0  0  0  0  0  0  0  0  0
    1.6193   -1.0561    1.5294 O   0  0  0  0  0  0  0  0  0  0  0  0
   -1.1271   -0.7317    1.1317 C   0  0  0  0  0  0  0  0  0  0  0  0
   -2.6330   -0.4492    0.8914 C   0  0  0  0  0  0  0  0  0  0  0  0
   -3.4415   -1.5911    1.5224 C   0  0  0  0  0  0  0  0  0  0  0  0
   -3.0629   -0.3284   -0.5783 C   0  0  0  0  0  0  0  0  0  0  0  0
   -0.9038   -0.5293   -1.3148 H   0  0  0  0  0  0  0  0  0  0  0  0
   -0.4046    1.2448    0.7089 H   0  0  0  0  0  0  0  0  0  0  0  0
   -0.9577   -0.6995    2.2137 H   0  0  0  0  0  0  0  0  0  0  0  0
   -0.9043   -1.7528    0.8037 H   0  0  0  0  0  0  0  0  0  0  0  0
   -2.8923    0.4871    1.3973 H   0  0  0  0  0  0  0  0  0  0  0  0
   -3.2366   -2.5388    1.0141 H   0  0  0  0  0  0  0  0  0  0  0  0
   -4.5145   -1.3854    1.4536 H   0  0  0  0  0  0  0  0  0  0  0  0
   -3.1849   -1.7025    2.5807 H   0  0  0  0  0  0  0  0  0  0  0  0
   -2.7059   -1.1845   -1.1593 H   0  0  0  0  0  0  0  0  0  0  0  0
   -4.1545   -0.2949   -0.6534 H   0  0  0  0  0  0  0  0  0  0  0  0
   -2.6787    0.5954   -1.0203 H   0  0  0  0  0  0  0  0  0  0  0  0
    2.1880    1.0983    1.2138 N   0  0  0  0  0  0  0  0  0  0  0  0
    3.6322    0.9002    1.4649 C   0  0  2  0  0  0  0  0  0  0  0  0
    4.2977   -0.2355    0.6307 C   0  0  0  0  0  0  0  0  0  0  0  0
    4.6946   -0.0259   -0.5107 O   0  0  0  0  0  0  0  0  0  0  0  0
    3.8556    0.7245    2.9739 C   0  0  0  0  0  0  0  0  0  0  0  0
    1.9618    1.8736    0.5918 H   0  0  0  0  0  0  0  0  0  0  0  0
    4.1459    1.8195    1.1665 H   0  0  0  0  0  0  0  0  0  0  0  0
    3.3460   -0.1682    3.3485 H   0  0  0  0  0  0  0  0  0  0  0  0
    4.9243    0.6308    3.1903 H   0  0  0  0  0  0  0  0  0  0  0  0
    3.4685    1.5934    3.5147 H   0  0  0  0  0  0  0  0  0  0  0  0
    4.4103   -1.5163    1.1411 N   0  0  0  0  0  0  0  0  0  0  0  0
    4.8826   -2.6511    0.3580 C   0  0  0  0  0  0  0  0  0  0  0  0
    3.7496   -1.7105    1.8935 H   0  0  0  0  0  0  0  0  0  0  0  0
    4.1321   -2.9444   -0.3822 H   0  0  0  0  0  0  0  0  0  0  0  0
    5.8152   -2.4048   -0.1605 H   0  0  0  0  0  0  0  0  0  0  0  0
    5.0743   -3.5050    1.0148 H   0  0  0  0  0  0  0  0  0  0  0  0
  1  2  2  0  0  0  0
  1  3  1  0  0  0  0
  1  7  1  0  0  0  0
  3  4  1  0  0  0  0
  3  5  1  0  0  0  0
  3  6  1  0  0  0  0
  7  8  1  0  0  0  0
  7 12  1  0  0  0  0
  8  9  1  0  0  0  0
  8 11  1  0  0  0  0
  8 13  1  0  0  0  0
  9 10  2  0  0  0  0
  9 17  1  0  0  0  0
 11 14  1  0  0  0  0
 11 15  1  0  0  0  0
 11 16  1  0  0  0  0
 17 18  1  0  0  0  0
 17 25  1  0  0  0  0
 18 19  1  0  0  0  0
 18 21  1  0  0  0  0
 18 26  1  0  0  0  0
 19 20  2  0  0  0  0
 19 36  1  0  0  0  0
 21 22  1  0  0  0  0
 21 27  1  0  0  0  0
 21 28  1  0  0  0  0
 22 23  1  0  0  0  0
 22 24  1  0  0  0  0
 22 29  1  0  0  0  0
 23 30  1  0  0  0  0
 23 31  1  0  0  0  0
 23 32  1  0  0  0  0
 24 33  1  0  0  0  0
 24 34  1  0  0  0  0
 24 35  1  0  0  0  0
 36 37  1  0  0  0  0
 36 41  1  0  0  0  0
 37 38  1  0  0  0  0
 37 40  1  0  0  0  0
 37 42  1  0  0  0  0
 38 39  2  0  0  0  0
 38 46  1  0  0  0  0
 40 43  1  0  0  0  0
 40 44  1  0  0  0  0
 40 45  1  0  0  0  0
 46 47  1  0  0  0  0
 46 48  1  0  0  0  0
 47 49  1  0  0  0  0
 47 50  1  0  0  0  0
 47 51  1  0  0  0  0
M  END
$$$$

  -OEChem-05262216553D

 51 50  0     1  0  0  0  0  0999 V2000
    2.7675   -2.4793   -4.5380 C   0  0  0  0  0  0  0  0  0  0  0  0
    1.7901   -2.6442   -5.2510 O   0  0  0  0  0  0  0  0  0  0  0  0
    4.1650   -2.5990   -5.1167 C   0  0  0  0  0  0  0  0  0  0  0  0
    4.7017   -3.4168   -4.6295 H   0  0  0  0  0  0  0  0  0  0  0  0
    4.1132   -2.8015   -6.1901 H   0  0  0  0  0  0  0  0  0  0  0  0
    4.7147   -1.6676   -4.9605 H   0  0  0  0  0  0  0  0  0  0  0  0
    2.6016   -2.1746   -3.2039 N   0  0  0  0  0  0  0  0  0  0  0  0
    1.3061   -1.8944   -2.5718 C   0  0  2  0  0  0  0  0  0  0  0  0
    1.4516   -0.9275   -1.3778 C   0  0  0  0  0  0  0  0  0  0  0  0
    2.5686   -0.5951   -1.0012 O   0  0  0  0  0  0  0  0  0  0  0  0
    0.6918   -3.2214   -2.1127 C   0  0  0  0  0  0  0  0  0  0  0  0
    3.4342   -1.9134   -2.6759 H   0  0  0  0  0  0  0  0  0  0  0  0
    0.6387   -1.4191   -3.2987 H   0  0  0  0  0  0  0  0  0  0  0  0
    1.3413   -3.7088   -1.3783 H   0  0  0  0  0  0  0  0  0  0  0  0
   -0.2882   -3.0574   -1.6552 H   0  0  0  0  0  0  0  0  0  0  0  0
    0.5632   -3.8951   -2.9660 H   0  0  0  0  0  0  0  0  0  0  0  0
    0.3191   -0.3685   -0.8060 N   0  0  0  0  0  0  0  0  0  0  0  0
    0.1875    0.1360    0.5780 C   0  0  2  0  0  0  0  0  0  0  0  0
    1.4415    0.0260    1.4866 C   0  0  0  0  0  0  0  0  0  0  0  0
    1.7160   -1.0446    2.0164 O   0  0  0  0  0  0  0  0  0  0  0  0
   -1.0112   -0.5464    1.2833 C   0  0  0  0  0  0  0  0  0  0  0  0
   -2.4330   -0.2379    0.7430 C   0  0  0  0  0  0  0  0  0  0  0  0
   -3.4311   -1.1311    1.4919 C   0  0  0  0  0  0  0  0  0  0  0  0
   -2.6452   -0.4604   -0.7618 C   0  0  0  0  0  0  0  0  0  0  0  0
   -0.5459   -0.6912   -1.2285 H   0  0  0  0  0  0  0  0  0  0  0  0
   -0.0393    1.2039    0.5103 H   0  0  0  0  0  0  0  0  0  0  0  0
   -0.9929   -0.2600    2.3410 H   0  0  0  0  0  0  0  0  0  0  0  0
   -0.8487   -1.6297    1.2437 H   0  0  0  0  0  0  0  0  0  0  0  0
   -2.6646    0.8094    0.9646 H   0  0  0  0  0  0  0  0  0  0  0  0
   -3.2465   -2.1880    1.2731 H   0  0  0  0  0  0  0  0  0  0  0  0
   -4.4579   -0.8902    1.1990 H   0  0  0  0  0  0  0  0  0  0  0  0
   -3.3428   -0.9803    2.5724 H   0  0  0  0  0  0  0  0  0  0  0  0
   -2.2955   -1.4537   -1.0602 H   0  0  0  0  0  0  0  0  0  0  0  0
   -3.7082   -0.3830   -1.0116 H   0  0  0  0  0  0  0  0  0  0  0  0
   -2.1200    0.3016   -1.3446 H   0  0  0  0  0  0  0  0  0  0  0  0
    2.1895    1.1572    1.7747 N   0  0  0  0  0  0  0  0  0  0  0  0
    3.3873    1.2329    2.6395 C   0  0  2  0  0  0  0  0  0  0  0  0
    4.6346    0.4918    2.1033 C   0  0  0  0  0  0  0  0  0  0  0  0
    5.7310    1.0310    2.1900 O   0  0  0  0  0  0  0  0  0  0  0  0
    3.0732    0.7917    4.0760 C   0  0  0  0  0  0  0  0  0  0  0  0
    2.0128    1.9542    1.1704 H   0  0  0  0  0  0  0  0  0  0  0  0
    3.6683    2.2898    2.6900 H   0  0  0  0  0  0  0  0  0  0  0  0
    2.9102   -0.2884    4.1332 H   0  0  0  0  0  0  0  0  0  0  0  0
    3.9107    1.0421    4.7346 H   0  0  0  0  0  0  0  0  0  0  0  0
    2.1783    1.3013    4.4443 H   0  0  0  0  0  0  0  0  0  0  0  0
    4.5422   -0.7630    1.5372 N   0  0  0  0  0  0  0  0  0  0  0  0
    5.6560   -1.4587    0.9116 C   0  0  0  0  0  0  0  0  0  0  0  0
    3.5966   -1.1407    1.4360 H   0  0  0  0  0  0  0  0  0  0  0  0
    6.0498   -0.8735    0.0742 H   0  0  0  0  0  0  0  0  0  0  0  0
    6.4590   -1.6259    1.6368 H   0  0  0  0  0  0  0  0  0  0  0  0
    5.3250   -2.4296    0.5312 H   0  0  0  0  0  0  0  0  0  0  0  0
  1  2  2  0  0  0  0
  1  3  1  0  0  0  0
  1  7  1  0  0  0  0
  3  4  1  0  0  0  0
  3  5  1  0  0  0  0
  3  6  1  0  0  0  0
  7  8  1  0  0  0  0
  7 12  1  0  0  0  0
  8  9  1  0  0  0  0
  8 11  1  0  0  0  0
  8 13  1  0  0  0  0
  9 10  2  0  0  0  0
  9 17  1  0  0  0  0
 11 14  1  0  0  0  0
 11 15  1  0  0  0  0
 11 16  1  0  0  0  0
 17 18  1  0  0  0  0
 17 25  1  0  0  0  0
 18 19  1  0  0  0  0
 18 21  1  0  0  0  0
 18 26  1  0  0  0  0
 19 20  2  0  0  0  0
 19 36  1  0  0  0  0
 21 22  1  0  0  0  0
 21 27  1  0  0  0  0
 21 28  1  0  0  0  0
 22 23  1  0  0  0  0
 22 24  1  0  0  0  0
 22 29  1  0  0  0  0
 23 30  1  0  0  0  0
 23 31  1  0  0  0  0
 23 32  1  0  0  0  0
 24 33  1  0  0  0  0
 24 34  1  0  0  0  0
 24 35  1  0  0  0  0
 36 37  1  0  0  0  0
 36 41  1  0  0  0  0
 37 38  1  0  0  0  0
 37 40  1  0  0  0  0
 37 42  1  0  0  0  0
 38 39  2  0  0  0  0
 38 46  1  0  0  0  0
 40 43  1  0  0  0  0
 40 44  1  0  0  0  0
 40 45  1  0  0  0  0
 46 47  1  0  0  0  0
 46 48  1  0  0  0  0
 47 49  1  0  0  0  0
 47 50  1  0  0  0  0
 47 51  1  0  0  0  0
M  END
$$$$

  -OEChem-05262216553D

 51 50  0     1  0  0  0  0  0999 V2000
    2.8106   -2.4598   -4.4562 C   0  0  0  0  0  0  0  0  0  0  0  0
    1.8381   -2.6106   -5.1790 O   0  0  0  0  0  0  0  0  0  0  0  0
    4.2109   -2.6142   -5.0190 C   0  0  0  0  0  0  0  0  0  0  0  0
    4.7455   -3.4001   -4.4798 H   0  0  0  0  0  0  0  0  0  0  0  0
    4.1643   -2.8834   -6.0780 H   0  0  0  0  0  0  0  0  0  0  0  0
    4.7591   -1.6744   -4.9183 H   0  0  0  0  0  0  0  0  0  0  0  0
    2.6368   -2.1383   -3.1270 N   0  0  0  0  0  0  0  0  0  0  0  0
    1.3389   -1.8361   -2.5101 C   0  0  2  0  0  0  0  0  0  0  0  0
    1.4761   -0.8487   -1.3320 C   0  0  0  0  0  0  0  0  0  0  0  0
    2.5886   -0.4832   -0.9661 O   0  0  0  0  0  0  0  0  0  0  0  0
    0.7126   -3.1502   -2.0315 C   0  0  0  0  0  0  0  0  0  0  0  0
    3.4685   -1.8951   -2.5902 H   0  0  0  0  0  0  0  0  0  0  0  0
    0.6803   -1.3702   -3.2512 H   0  0  0  0  0  0  0  0  0  0  0  0
    1.3493   -3.6239   -1.2773 H   0  0  0  0  0  0  0  0  0  0  0  0
   -0.2731   -2.9721   -1.5919 H   0  0  0  0  0  0  0  0  0  0  0  0
    0.5939   -3.8422   -2.8715 H   0  0  0  0  0  0  0  0  0  0  0  0
    0.3399   -0.2822   -0.7748 N   0  0  0  0  0  0  0  0  0  0  0  0
    0.1877    0.1365    0.6353 C   0  0  2  0  0  0  0  0  0  0  0  0
    1.4085   -0.0874    1.5641 C   0  0  0  0  0  0  0  0  0  0  0  0
    1.7603   -1.2289    1.8321 O   0  0  0  0  0  0  0  0  0  0  0  0
   -1.0470   -0.5444    1.2737 C   0  0  0  0  0  0  0  0  0  0  0  0
   -2.4446   -0.1533    0.7241 C   0  0  0  0  0  0  0  0  0  0  0  0
   -3.4904   -1.0531    1.3960 C   0  0  0  0  0  0  0  0  0  0  0  0
   -2.6274   -0.2798   -0.7955 C   0  0  0  0  0  0  0  0  0  0  0  0
   -0.5173   -0.6082   -1.2102 H   0  0  0  0  0  0  0  0  0  0  0  0
    0.0054    1.2149    0.6287 H   0  0  0  0  0  0  0  0  0  0  0  0
   -1.0426   -0.3238    2.3470 H   0  0  0  0  0  0  0  0  0  0  0  0
   -0.9195   -1.6282    1.1710 H   0  0  0  0  0  0  0  0  0  0  0  0
   -2.6450    0.8870    1.0023 H   0  0  0  0  0  0  0  0  0  0  0  0
   -3.3391   -2.1003    1.1147 H   0  0  0  0  0  0  0  0  0  0  0  0
   -4.5011   -0.7561    1.0982 H   0  0  0  0  0  0  0  0  0  0  0  0
   -3.4205   -0.9734    2.4855 H   0  0  0  0  0  0  0  0  0  0  0  0
   -2.3064   -1.2666   -1.1436 H   0  0  0  0  0  0  0  0  0  0  0  0
   -3.6807   -0.1488   -1.0638 H   0  0  0  0  0  0  0  0  0  0  0  0
   -2.0604    0.4943   -1.3204 H   0  0  0  0  0  0  0  0  0  0  0  0
    2.0112    0.9869    2.1979 N   0  0  0  0  0  0  0  0  0  0  0  0
    3.1522    0.9236    3.1365 C   0  0  2  0  0  0  0  0  0  0  0  0
    4.4951    0.4527    2.5252 C   0  0  0  0  0  0  0  0  0  0  0  0
    5.5347    0.7188    3.1161 O   0  0  0  0  0  0  0  0  0  0  0  0
    2.7996    0.0995    4.3844 C   0  0  0  0  0  0  0  0  0  0  0  0
    1.7336    1.9061    1.8683 H   0  0  0  0  0  0  0  0  0  0  0  0
    3.3320    1.9482    3.4766 H   0  0  0  0  0  0  0  0  0  0  0  0
    2.7587   -0.9690    4.1541 H   0  0  0  0  0  0  0  0  0  0  0  0
    3.5592    0.2487    5.1583 H   0  0  0  0  0  0  0  0  0  0  0  0
    1.8303    0.4087    4.7860 H   0  0  0  0  0  0  0  0  0  0  0  0
    4.5672   -0.2158    1.3177 N   0  0  0  0  0  0  0  0  0  0  0  0
    5.8098   -0.6851    0.7245 C   0  0  0  0  0  0  0  0  0  0  0  0
    3.6825   -0.4870    0.8803 H   0  0  0  0  0  0  0  0  0  0  0  0
    6.4951    0.1522    0.5575 H   0  0  0  0  0  0  0  0  0  0  0  0
    6.2950   -1.4155    1.3800 H   0  0  0  0  0  0  0  0  0  0  0  0
    5.6066   -1.1630   -0.2386 H   0  0  0  0  0  0  0  0  0  0  0  0
  1  2  2  0  0  0  0
  1  3  1  0  0  0  0
  1  7  1  0  0  0  0
  3  4  1  0  0  0  0
  3  5  1  0  0  0  0
  3  6  1  0  0  0  0
  7  8  1  0  0  0  0
  7 12  1  0  0  0  0
  8  9  1  0  0  0  0
  8 11  1  0  0  0  0
  8 13  1  0  0  0  0
  9 10  2  0  0  0  0
  9 17  1  0  0  0  0
 11 14  1  0  0  0  0
 11 15  1  0  0  0  0
 11 16  1  0  0  0  0
 17 18  1  0  0  0  0
 17 25  1  0  0  0  0
 18 19  1  0  0  0  0
 18 21  1  0  0  0  0
 18 26  1  0  0  0  0
 19 20  2  0  0  0  0
 19 36  1  0  0  0  0
 21 22  1  0  0  0  0
 21 27  1  0  0  0  0
 21 28  1  0  0  0  0
 22 23  1  0  0  0  0
 22 24  1  0  0  0  0
 22 29  1  0  0  0  0
 23 30  1  0  0  0  0
 23 31  1  0  0  0  0
 23 32  1  0  0  0  0
 24 33  1  0  0  0  0
 24 34  1  0  0  0  0
 24 35  1  0  0  0  0
 36 37  1  0  0  0  0
 36 41  1  0  0  0  0
 37 38  1  0  0  0  0
 37 40  1  0  0  0  0
 37 42  1  0  0  0  0
 38 39  2  0  0  0  0
 38 46  1  0  0  0  0
 40 43  1  0  0  0  0
 40 44  1  0  0  0  0
 40 45  1  0  0  0  0
 46 47  1  0  0  0  0
 46 48  1  0  0  0  0
 47 49  1  0  0  0  0
 47 50  1  0  0  0  0
 47 51  1  0  0  0  0
M  END
$$$$

  -OEChem-05262216553D

 51 50  0     1  0  0  0  0  0999 V2000
    1.2067   -3.0508   -2.1033 C   0  0  0  0  0  0  0  0  0  0  0  0
    0.0207   -2.7738   -2.0249 O   0  0  0  0  0  0  0  0  0  0  0  0
    1.7102   -4.3684   -1.5465 C   0  0  0  0  0  0  0  0  0  0  0  0
    2.3677   -4.1818   -0.6930 H   0  0  0  0  0  0  0  0  0  0  0  0
    0.8701   -4.9854   -1.2155 H   0  0  0  0  0  0  0  0  0  0  0  0
    2.2653   -4.9130   -2.3139 H   0  0  0  0  0  0  0  0  0  0  0  0
    2.1076   -2.1517   -2.6384 N   0  0  0  0  0  0  0  0  0  0  0  0
    1.8276   -0.7360   -2.9417 C   0  0  2  0  0  0  0  0  0  0  0  0
    1.5842    0.0858   -1.6594 C   0  0  0  0  0  0  0  0  0  0  0  0
    2.4492    0.8728   -1.2910 O   0  0  0  0  0  0  0  0  0  0  0  0
    0.7036   -0.5536   -3.9746 C   0  0  0  0  0  0  0  0  0  0  0  0
    3.0845   -2.4046   -2.5118 H   0  0  0  0  0  0  0  0  0  0  0  0
    2.7335   -0.3259   -3.4004 H   0  0  0  0  0  0  0  0  0  0  0  0
   -0.2751   -0.8129   -3.5622 H   0  0  0  0  0  0  0  0  0  0  0  0
    0.6652    0.4898   -4.3024 H   0  0  0  0  0  0  0  0  0  0  0  0
    0.8894   -1.1842   -4.8491 H   0  0  0  0  0  0  0  0  0  0  0  0
    0.4085    0.0047   -0.9277 N   0  0  0  0  0  0  0  0  0  0  0  0
    0.4039   -0.1546    0.5453 C   0  0  2  0  0  0  0  0  0  0  0  0
    1.7812   -0.2432    1.2505 C   0  0  0  0  0  0  0  0  0  0  0  0
    2.5807   -1.1063    0.9030 O   0  0  0  0  0  0  0  0  0  0  0  0
   -0.5008   -1.3169    1.0105 C   0  0  0  0  0  0  0  0  0  0  0  0
   -2.0266   -1.1537    0.7745 C   0  0  0  0  0  0  0  0  0  0  0  0
   -2.7156   -2.4670    1.1654 C   0  0  0  0  0  0  0  0  0  0  0  0
   -2.4727   -0.7770   -0.6460 C   0  0  0  0  0  0  0  0  0  0  0  0
   -0.2320   -0.6495   -1.3819 H   0  0  0  0  0  0  0  0  0  0  0  0
   -0.0491    0.7633    0.9301 H   0  0  0  0  0  0  0  0  0  0  0  0
   -0.3480   -1.4619    2.0856 H   0  0  0  0  0  0  0  0  0  0  0  0
   -0.1579   -2.2320    0.5186 H   0  0  0  0  0  0  0  0  0  0  0  0
   -2.3836   -0.3649    1.4449 H   0  0  0  0  0  0  0  0  0  0  0  0
   -2.4044   -3.2776    0.4982 H   0  0  0  0  0  0  0  0  0  0  0  0
   -3.8034   -2.3636    1.1023 H   0  0  0  0  0  0  0  0  0  0  0  0
   -2.4591   -2.7440    2.1928 H   0  0  0  0  0  0  0  0  0  0  0  0
   -2.0798   -1.4824   -1.3813 H   0  0  0  0  0  0  0  0  0  0  0  0
   -3.5649   -0.7914   -0.7139 H   0  0  0  0  0  0  0  0  0  0  0  0
   -2.1447    0.2335   -0.9036 H   0  0  0  0  0  0  0  0  0  0  0  0
    2.0261    0.4827    2.4050 N   0  0  0  0  0  0  0  0  0  0  0  0
    3.2857    0.4902    3.1802 C   0  0  2  0  0  0  0  0  0  0  0  0
    4.5224    1.0444    2.4291 C   0  0  0  0  0  0  0  0  0  0  0  0
    5.4504    1.5038    3.0835 O   0  0  0  0  0  0  0  0  0  0  0  0
    3.5826   -0.8925    3.7789 C   0  0  0  0  0  0  0  0  0  0  0  0
    1.3479    1.2072    2.6199 H   0  0  0  0  0  0  0  0  0  0  0  0
    3.1282    1.1703    4.0232 H   0  0  0  0  0  0  0  0  0  0  0  0
    3.8973   -1.6005    3.0070 H   0  0  0  0  0  0  0  0  0  0  0  0
    4.3894   -0.8156    4.5148 H   0  0  0  0  0  0  0  0  0  0  0  0
    2.6945   -1.2905    4.2785 H   0  0  0  0  0  0  0  0  0  0  0  0
    4.5997    1.0734    1.0489 N   0  0  0  0  0  0  0  0  0  0  0  0
    5.7400    1.5906    0.3078 C   0  0  0  0  0  0  0  0  0  0  0  0
    3.8485    0.6116    0.5300 H   0  0  0  0  0  0  0  0  0  0  0  0
    5.5488    1.5196   -0.7673 H   0  0  0  0  0  0  0  0  0  0  0  0
    5.9152    2.6417    0.5589 H   0  0  0  0  0  0  0  0  0  0  0  0
    6.6416    1.0149    0.5403 H   0  0  0  0  0  0  0  0  0  0  0  0
  1  2  2  0  0  0  0
  1  3  1  0  0  0  0
  1  7  1  0  0  0  0
  3  4  1  0  0  0  0
  3  5  1  0  0  0  0
  3  6  1  0  0  0  0
  7  8  1  0  0  0  0
  7 12  1  0  0  0  0
  8  9  1  0  0  0  0
  8 11  1  0  0  0  0
  8 13  1  0  0  0  0
  9 10  2  0  0  0  0
  9 17  1  0  0  0  0
 11 14  1  0  0  0  0
 11 15  1  0  0  0  0
 11 16  1  0  0  0  0
 17 18  1  0  0  0  0
 17 25  1  0  0  0  0
 18 19  1  0  0  0  0
 18 21  1  0  0  0  0
 18 26  1  0  0  0  0
 19 20  2  0  0  0  0
 19 36  1  0  0  0  0
 21 22  1  0  0  0  0
 21 27  1  0  0  0  0
 21 28  1  0  0  0  0
 22 23  1  0  0  0  0
 22 24  1  0  0  0  0
 22 29  1  0  0  0  0
 23 30  1  0  0  0  0
 23 31  1  0  0  0  0
 23 32  1  0  0  0  0
 24 33  1  0  0  0  0
 24 34  1  0  0  0  0
 24 35  1  0  0  0  0
 36 37  1  0  0  0  0
 36 41  1  0  0  0  0
 37 38  1  0  0  0  0
 37 40  1  0  0  0  0
 37 42  1  0  0  0  0
 38 39  2  0  0  0  0
 38 46  1  0  0  0  0
 40 43  1  0  0  0  0
 40 44  1  0  0  0  0
 40 45  1  0  0  0  0
 46 47  1  0  0  0  0
 46 48  1  0  0  0  0
 47 49  1  0  0  0  0
 47 50  1  0  0  0  0
 47 51  1  0  0  0  0
M  END
$$$$

  -OEChem-05262216553D

 51 50  0     1  0  0  0  0  0999 V2000
    1.2068   -2.9225   -2.1596 C   0  0  0  0  0  0  0  0  0  0  0  0
    0.0110   -2.6866   -2.0994 O   0  0  0  0  0  0  0  0  0  0  0  0
    1.7432   -4.2309   -1.6120 C   0  0  0  0  0  0  0  0  0  0  0  0
    2.3749   -4.0362   -0.7412 H   0  0  0  0  0  0  0  0  0  0  0  0
    0.9173   -4.8811   -1.3103 H   0  0  0  0  0  0  0  0  0  0  0  0
    2.3335   -4.7439   -2.3750 H   0  0  0  0  0  0  0  0  0  0  0  0
    2.0870   -1.9849   -2.6608 N   0  0  0  0  0  0  0  0  0  0  0  0
    1.7642   -0.5790   -2.9670 C   0  0  2  0  0  0  0  0  0  0  0  0
    1.4707    0.2384   -1.6918 C   0  0  0  0  0  0  0  0  0  0  0  0
    2.2600    1.1134   -1.3560 O   0  0  0  0  0  0  0  0  0  0  0  0
    0.6547   -0.4341   -4.0206 C   0  0  0  0  0  0  0  0  0  0  0  0
    3.0694   -2.2033   -2.5142 H   0  0  0  0  0  0  0  0  0  0  0  0
    2.6645   -0.1400   -3.4098 H   0  0  0  0  0  0  0  0  0  0  0  0
   -0.3233   -0.7170   -3.6224 H   0  0  0  0  0  0  0  0  0  0  0  0
    0.5941    0.6060   -4.3559 H   0  0  0  0  0  0  0  0  0  0  0  0
    0.8725   -1.0653   -4.8875 H   0  0  0  0  0  0  0  0  0  0  0  0
    0.3198    0.0799   -0.9351 N   0  0  0  0  0  0  0  0  0  0  0  0
    0.3654   -0.1182    0.5330 C   0  0  2  0  0  0  0  0  0  0  0  0
    1.7566   -0.1614    1.2198 C   0  0  0  0  0  0  0  0  0  0  0  0
    2.6397   -0.8805    0.7607 O   0  0  0  0  0  0  0  0  0  0  0  0
   -0.4780   -1.3330    0.9841 C   0  0  0  0  0  0  0  0  0  0  0  0
   -2.0155   -1.2298    0.7924 C   0  0  0  0  0  0  0  0  0  0  0  0
   -2.6379   -2.5829    1.1586 C   0  0  0  0  0  0  0  0  0  0  0  0
   -2.5169   -0.8270   -0.6022 C   0  0  0  0  0  0  0  0  0  0  0  0
   -0.2918   -0.6024   -1.3873 H   0  0  0  0  0  0  0  0  0  0  0  0
   -0.1167    0.7698    0.9514 H   0  0  0  0  0  0  0  0  0  0  0  0
   -0.2934   -1.5067    2.0497 H   0  0  0  0  0  0  0  0  0  0  0  0
   -0.1092   -2.2166    0.4552 H   0  0  0  0  0  0  0  0  0  0  0  0
   -2.3874   -0.4792    1.4979 H   0  0  0  0  0  0  0  0  0  0  0  0
   -2.3060   -3.3603    0.4624 H   0  0  0  0  0  0  0  0  0  0  0  0
   -3.7302   -2.5257    1.1200 H   0  0  0  0  0  0  0  0  0  0  0  0
   -2.3486   -2.8769    2.1724 H   0  0  0  0  0  0  0  0  0  0  0  0
   -2.1170   -1.4914   -1.3712 H   0  0  0  0  0  0  0  0  0  0  0  0
   -3.6092   -0.8848   -0.6403 H   0  0  0  0  0  0  0  0  0  0  0  0
   -2.2384    0.2042   -0.8351 H   0  0  0  0  0  0  0  0  0  0  0  0
    1.8858    0.2802    2.5283 N   0  0  0  0  0  0  0  0  0  0  0  0
    3.0891    0.1833    3.3839 C   0  0  2  0  0  0  0  0  0  0  0  0
    4.3219    0.9672    2.8725 C   0  0  0  0  0  0  0  0  0  0  0  0
    5.0139    1.5768    3.6780 O   0  0  0  0  0  0  0  0  0  0  0  0
    3.4562   -1.2783    3.6764 C   0  0  0  0  0  0  0  0  0  0  0  0
    1.1209    0.8515    2.8747 H   0  0  0  0  0  0  0  0  0  0  0  0
    2.8262    0.6391    4.3439 H   0  0  0  0  0  0  0  0  0  0  0  0
    3.8594   -1.7731    2.7884 H   0  0  0  0  0  0  0  0  0  0  0  0
    4.2175   -1.3217    4.4615 H   0  0  0  0  0  0  0  0  0  0  0  0
    2.5755   -1.8311    4.0160 H   0  0  0  0  0  0  0  0  0  0  0  0
    4.6535    1.0083    1.5325 N   0  0  0  0  0  0  0  0  0  0  0  0
    5.7658    1.7713    0.9856 C   0  0  0  0  0  0  0  0  0  0  0  0
    4.0611    0.4651    0.8984 H   0  0  0  0  0  0  0  0  0  0  0  0
    6.7116    1.4426    1.4283 H   0  0  0  0  0  0  0  0  0  0  0  0
    5.8215    1.6279   -0.0978 H   0  0  0  0  0  0  0  0  0  0  0  0
    5.6334    2.8393    1.1869 H   0  0  0  0  0  0  0  0  0  0  0  0
  1  2  2  0  0  0  0
  1  3  1  0  0  0  0
  1  7  1  0  0  0  0
  3  4  1  0  0  0  0
  3  5  1  0  0  0  0
  3  6  1  0  0  0  0
  7  8  1  0  0  0  0
  7 12  1  0  0  0  0
  8  9  1  0  0  0  0
  8 11  1  0  0  0  0
  8 13  1  0  0  0  0
  9 10  2  0  0  0  0
  9 17  1  0  0  0  0
 11 14  1  0  0  0  0
 11 15  1  0  0  0  0
 11 16  1  0  0  0  0
 17 18  1  0  0  0  0
 17 25  1  0  0  0  0
 18 19  1  0  0  0  0
 18 21  1  0  0  0  0
 18 26  1  0  0  0  0
 19 20  2  0  0  0  0
 19 36  1  0  0  0  0
 21 22  1  0  0  0  0
 21 27  1  0  0  0  0
 21 28  1  0  0  0  0
 22 23  1  0  0  0  0
 22 24  1  0  0  0  0
 22 29  1  0  0  0  0
 23 30  1  0  0  0  0
 23 31  1  0  0  0  0
 23 32  1  0  0  0  0
 24 33  1  0  0  0  0
 24 34  1  0  0  0  0
 24 35  1  0  0  0  0
 36 37  1  0  0  0  0
 36 41  1  0  0  0  0
 37 38  1  0  0  0  0
 37 40  1  0  0  0  0
 37 42  1  0  0  0  0
 38 39  2  0  0  0  0
 38 46  1  0  0  0  0
 40 43  1  0  0  0  0
 40 44  1  0  0  0  0
 40 45  1  0  0  0  0
 46 47  1  0  0  0  0
 46 48  1  0  0  0  0
 47 49  1  0  0  0  0
 47 50  1  0  0  0  0
 47 51  1  0  0  0  0
M  END
$$$$

  -OEChem-05262216553D

 51 50  0     1  0  0  0  0  0999 V2000
    1.1746   -2.9218   -2.1278 C   0  0  0  0  0  0  0  0  0  0  0  0
   -0.0213   -2.7003   -2.0294 O   0  0  0  0  0  0  0  0  0  0  0  0
    1.7451   -4.2216   -1.5946 C   0  0  0  0  0  0  0  0  0  0  0  0
    2.4162   -4.0150   -0.7569 H   0  0  0  0  0  0  0  0  0  0  0  0
    0.9392   -4.8745   -1.2479 H   0  0  0  0  0  0  0  0  0  0  0  0
    2.3020   -4.7371   -2.3808 H   0  0  0  0  0  0  0  0  0  0  0  0
    2.0259   -1.9778   -2.6641 N   0  0  0  0  0  0  0  0  0  0  0  0
    1.6725   -0.5848   -2.9923 C   0  0  2  0  0  0  0  0  0  0  0  0
    1.3910    0.2631   -1.7348 C   0  0  0  0  0  0  0  0  0  0  0  0
    2.1312    1.2045   -1.4774 O   0  0  0  0  0  0  0  0  0  0  0  0
    0.5393   -0.4817   -4.0247 C   0  0  0  0  0  0  0  0  0  0  0  0
    3.0159   -2.1811   -2.5514 H   0  0  0  0  0  0  0  0  0  0  0  0
    2.5557   -0.1424   -3.4645 H   0  0  0  0  0  0  0  0  0  0  0  0
   -0.4246   -0.7771   -3.6013 H   0  0  0  0  0  0  0  0  0  0  0  0
    0.4512    0.5508   -4.3768 H   0  0  0  0  0  0  0  0  0  0  0  0
    0.7532   -1.1232   -4.8849 H   0  0  0  0  0  0  0  0  0  0  0  0
    0.2658    0.1053   -0.9421 N   0  0  0  0  0  0  0  0  0  0  0  0
    0.3463   -0.0532    0.5298 C   0  0  2  0  0  0  0  0  0  0  0  0
    1.7446   -0.0602    1.2122 C   0  0  0  0  0  0  0  0  0  0  0  0
    2.6904   -0.6349    0.6822 O   0  0  0  0  0  0  0  0  0  0  0  0
   -0.4821   -1.2697    1.0107 C   0  0  0  0  0  0  0  0  0  0  0  0
   -2.0230   -1.1824    0.8387 C   0  0  0  0  0  0  0  0  0  0  0  0
   -2.6271   -2.5357    1.2337 C   0  0  0  0  0  0  0  0  0  0  0  0
   -2.5485   -0.8092   -0.5552 C   0  0  0  0  0  0  0  0  0  0  0  0
   -0.3400   -0.6038   -1.3594 H   0  0  0  0  0  0  0  0  0  0  0  0
   -0.1397    0.8395    0.9338 H   0  0  0  0  0  0  0  0  0  0  0  0
   -0.2876   -1.4315    2.0758 H   0  0  0  0  0  0  0  0  0  0  0  0
   -0.1121   -2.1571    0.4898 H   0  0  0  0  0  0  0  0  0  0  0  0
   -2.3925   -0.4240    1.5368 H   0  0  0  0  0  0  0  0  0  0  0  0
   -2.2982   -3.3198    0.5435 H   0  0  0  0  0  0  0  0  0  0  0  0
   -3.7204   -2.4895    1.2102 H   0  0  0  0  0  0  0  0  0  0  0  0
   -2.3197   -2.8124    2.2469 H   0  0  0  0  0  0  0  0  0  0  0  0
   -2.1505   -1.4819   -1.3182 H   0  0  0  0  0  0  0  0  0  0  0  0
   -3.6405   -0.8807   -0.5777 H   0  0  0  0  0  0  0  0  0  0  0  0
   -2.2855    0.2212   -0.8091 H   0  0  0  0  0  0  0  0  0  0  0  0
    1.8157    0.1175    2.5873 N   0  0  0  0  0  0  0  0  0  0  0  0
    2.9818   -0.1213    3.4670 C   0  0  2  0  0  0  0  0  0  0  0  0
    4.2212    0.7603    3.1788 C   0  0  0  0  0  0  0  0  0  0  0  0
    4.8552    1.2171    4.1213 O   0  0  0  0  0  0  0  0  0  0  0  0
    3.3630   -1.6082    3.4994 C   0  0  0  0  0  0  0  0  0  0  0  0
    0.9934    0.5299    3.0175 H   0  0  0  0  0  0  0  0  0  0  0  0
    2.6640    0.1429    4.4807 H   0  0  0  0  0  0  0  0  0  0  0  0
    3.8131   -1.9248    2.5543 H   0  0  0  0  0  0  0  0  0  0  0  0
    4.0897   -1.7893    4.2975 H   0  0  0  0  0  0  0  0  0  0  0  0
    2.4788   -2.2237    3.6893 H   0  0  0  0  0  0  0  0  0  0  0  0
    4.6277    1.0496    1.8912 N   0  0  0  0  0  0  0  0  0  0  0  0
    5.7806    1.8746    1.5614 C   0  0  0  0  0  0  0  0  0  0  0  0
    4.1059    0.5935    1.1372 H   0  0  0  0  0  0  0  0  0  0  0  0
    6.7037    1.3973    1.9055 H   0  0  0  0  0  0  0  0  0  0  0  0
    5.8440    2.0154    0.4780 H   0  0  0  0  0  0  0  0  0  0  0  0
    5.6945    2.8593    2.0324 H   0  0  0  0  0  0  0  0  0  0  0  0
  1  2  2  0  0  0  0
  1  3  1  0  0  0  0
  1  7  1  0  0  0  0
  3  4  1  0  0  0  0
  3  5  1  0  0  0  0
  3  6  1  0  0  0  0
  7  8  1  0  0  0  0
  7 12  1  0  0  0  0
  8  9  1  0  0  0  0
  8 11  1  0  0  0  0
  8 13  1  0  0  0  0
  9 10  2  0  0  0  0
  9 17  1  0  0  0  0
 11 14  1  0  0  0  0
 11 15  1  0  0  0  0
 11 16  1  0  0  0  0
 17 18  1  0  0  0  0
 17 25  1  0  0  0  0
 18 19  1  0  0  0  0
 18 21  1  0  0  0  0
 18 26  1  0  0  0  0
 19 20  2  0  0  0  0
 19 36  1  0  0  0  0
 21 22  1  0  0  0  0
 21 27  1  0  0  0  0
 21 28  1  0  0  0  0
 22 23  1  0  0  0  0
 22 24  1  0  0  0  0
 22 29  1  0  0  0  0
 23 30  1  0  0  0  0
 23 31  1  0  0  0  0
 23 32  1  0  0  0  0
 24 33  1  0  0  0  0
 24 34  1  0  0  0  0
 24 35  1  0  0  0  0
 36 37  1  0  0  0  0
 36 41  1  0  0  0  0
 37 38  1  0  0  0  0
 37 40  1  0  0  0  0
 37 42  1  0  0  0  0
 38 39  2  0  0  0  0
 38 46  1  0  0  0  0
 40 43  1  0  0  0  0
 40 44  1  0  0  0  0
 40 45  1  0  0  0  0
 46 47  1  0  0  0  0
 46 48  1  0  0  0  0
 47 49  1  0  0  0  0
 47 50  1  0  0  0  0
 47 51  1  0  0  0  0
M  END
$$$$

  -OEChem-05262216553D

 51 50  0     1  0  0  0  0  0999 V2000
    3.5984   -2.0273   -3.9324 C   0  0  0  0  0  0  0  0  0  0  0  0
    3.3875   -1.0891   -4.6850 O   0  0  0  0  0  0  0  0  0  0  0  0
    4.8858   -2.8193   -4.0610 C   0  0  0  0  0  0  0  0  0  0  0  0
    4.9471   -3.5809   -3.2797 H   0  0  0  0  0  0  0  0  0  0  0  0
    4.9214   -3.3111   -5.0364 H   0  0  0  0  0  0  0  0  0  0  0  0
    5.7437   -2.1486   -3.9664 H   0  0  0  0  0  0  0  0  0  0  0  0
    2.6694   -2.3623   -2.9705 N   0  0  0  0  0  0  0  0  0  0  0  0
    1.4796   -1.5637   -2.6552 C   0  0  2  0  0  0  0  0  0  0  0  0
    1.0949   -1.6995   -1.1679 C   0  0  0  0  0  0  0  0  0  0  0  0
    1.5057   -2.6512   -0.5119 O   0  0  0  0  0  0  0  0  0  0  0  0
    0.3316   -2.0254   -3.5585 C   0  0  0  0  0  0  0  0  0  0  0  0
    2.9386   -3.0650   -2.2820 H   0  0  0  0  0  0  0  0  0  0  0  0
    1.6877   -0.5046   -2.8417 H   0  0  0  0  0  0  0  0  0  0  0  0
    0.1094   -3.0828   -3.3823 H   0  0  0  0  0  0  0  0  0  0  0  0
   -0.5726   -1.4414   -3.3635 H   0  0  0  0  0  0  0  0  0  0  0  0
    0.6037   -1.8970   -4.6111 H   0  0  0  0  0  0  0  0  0  0  0  0
    0.1323   -0.8750   -0.6100 N   0  0  0  0  0  0  0  0  0  0  0  0
    0.1586   -0.3580    0.7781 C   0  0  2  0  0  0  0  0  0  0  0  0
    1.4957   -0.4394    1.5797 C   0  0  0  0  0  0  0  0  0  0  0  0
    2.5719   -0.4448    0.9947 O   0  0  0  0  0  0  0  0  0  0  0  0
   -0.9710   -1.0619    1.5804 C   0  0  0  0  0  0  0  0  0  0  0  0
   -2.4391   -0.7604    1.1727 C   0  0  0  0  0  0  0  0  0  0  0  0
   -3.3576   -1.6728    1.9975 C   0  0  0  0  0  0  0  0  0  0  0  0
   -2.7823   -0.9715   -0.3103 C   0  0  0  0  0  0  0  0  0  0  0  0
   -0.2679   -0.2343   -1.2877 H   0  0  0  0  0  0  0  0  0  0  0  0
   -0.0744    0.7097    0.7325 H   0  0  0  0  0  0  0  0  0  0  0  0
   -0.8828   -0.8036    2.6391 H   0  0  0  0  0  0  0  0  0  0  0  0
   -0.8009   -2.1421    1.5012 H   0  0  0  0  0  0  0  0  0  0  0  0
   -2.6611    0.2820    1.4251 H   0  0  0  0  0  0  0  0  0  0  0  0
   -3.1857   -2.7247    1.7476 H   0  0  0  0  0  0  0  0  0  0  0  0
   -4.4084   -1.4371    1.8028 H   0  0  0  0  0  0  0  0  0  0  0  0
   -3.1727   -1.5359    3.0675 H   0  0  0  0  0  0  0  0  0  0  0  0
   -2.4312   -1.9506   -0.6526 H   0  0  0  0  0  0  0  0  0  0  0  0
   -3.8649   -0.9213   -0.4644 H   0  0  0  0  0  0  0  0  0  0  0  0
   -2.3297   -0.1909   -0.9276 H   0  0  0  0  0  0  0  0  0  0  0  0
    1.5175    0.0408    2.8834 N   0  0  0  0  0  0  0  0  0  0  0  0
    2.6954    0.2383    3.7568 C   0  0  2  0  0  0  0  0  0  0  0  0
    3.5747    1.4597    3.4021 C   0  0  0  0  0  0  0  0  0  0  0  0
    3.8578    2.2683    4.2765 O   0  0  0  0  0  0  0  0  0  0  0  0
    3.5404   -1.0406    3.8549 C   0  0  0  0  0  0  0  0  0  0  0  0
    0.6081    0.2012    3.3046 H   0  0  0  0  0  0  0  0  0  0  0  0
    2.3089    0.4337    4.7625 H   0  0  0  0  0  0  0  0  0  0  0  0
    4.0572   -1.2501    2.9138 H   0  0  0  0  0  0  0  0  0  0  0  0
    4.2957   -0.9310    4.6393 H   0  0  0  0  0  0  0  0  0  0  0  0
    2.9068   -1.8979    4.1016 H   0  0  0  0  0  0  0  0  0  0  0  0
    4.0412    1.6639    2.1199 N   0  0  0  0  0  0  0  0  0  0  0  0
    4.8910    2.7771    1.7220 C   0  0  0  0  0  0  0  0  0  0  0  0
    3.7781    0.9544    1.4295 H   0  0  0  0  0  0  0  0  0  0  0  0
    5.8387    2.7493    2.2698 H   0  0  0  0  0  0  0  0  0  0  0  0
    5.1080    2.7207    0.6509 H   0  0  0  0  0  0  0  0  0  0  0  0
    4.3931    3.7308    1.9248 H   0  0  0  0  0  0  0  0  0  0  0  0
  1  2  2  0  0  0  0
  1  3  1  0  0  0  0
  1  7  1  0  0  0  0
  3  4  1  0  0  0  0
  3  5  1  0  0  0  0
  3  6  1  0  0  0  0
  7  8  1  0  0  0  0
  7 12  1  0  0  0  0
  8  9  1  0  0  0  0
  8 11  1  0  0  0  0
  8 13  1  0  0  0  0
  9 10  2  0  0  0  0
  9 17  1  0  0  0  0
 11 14  1  0  0  0  0
 11 15  1  0  0  0  0
 11 16  1  0  0  0  0
 17 18  1  0  0  0  0
 17 25  1  0  0  0  0
 18 19  1  0  0  0  0
 18 21  1  0  0  0  0
 18 26  1  0  0  0  0
 19 20  2  0  0  0  0
 19 36  1  0  0  0  0
 21 22  1  0  0  0  0
 21 27  1  0  0  0  0
 21 28  1  0  0  0  0
 22 23  1  0  0  0  0
 22 24  1  0  0  0  0
 22 29  1  0  0  0  0
 23 30  1  0  0  0  0
 23 31  1  0  0  0  0
 23 32  1  0  0  0  0
 24 33  1  0  0  0  0
 24 34  1  0  0  0  0
 24 35  1  0  0  0  0
 36 37  1  0  0  0  0
 36 41  1  0  0  0  0
 37 38  1  0  0  0  0
 37 40  1  0  0  0  0
 37 42  1  0  0  0  0
 38 39  2  0  0  0  0
 38 46  1  0  0  0  0
 40 43  1  0  0  0  0
 40 44  1  0  0  0  0
 40 45  1  0  0  0  0
 46 47  1  0  0  0  0
 46 48  1  0  0  0  0
 47 49  1  0  0  0  0
 47 50  1  0  0  0  0
 47 51  1  0  0  0  0
M  END
$$$$

  -OEChem-05262216553D

 51 50  0     1  0  0  0  0  0999 V2000
    0.9225   -1.9442   -3.7878 C   0  0  0  0  0  0  0  0  0  0  0  0
    0.3971   -0.9780   -3.2568 O   0  0  0  0  0  0  0  0  0  0  0  0
    0.2124   -2.6490   -4.9279 C   0  0  0  0  0  0  0  0  0  0  0  0
   -0.0476   -3.6684   -4.6319 H   0  0  0  0  0  0  0  0  0  0  0  0
   -0.7047   -2.1138   -5.1908 H   0  0  0  0  0  0  0  0  0  0  0  0
    0.8607   -2.6855   -5.8068 H   0  0  0  0  0  0  0  0  0  0  0  0
    2.1295   -2.4403   -3.3319 N   0  0  0  0  0  0  0  0  0  0  0  0
    2.9629   -1.8949   -2.2388 C   0  0  2  0  0  0  0  0  0  0  0  0
    2.3412   -2.0027   -0.8289 C   0  0  0  0  0  0  0  0  0  0  0  0
    2.9235   -2.6399    0.0399 O   0  0  0  0  0  0  0  0  0  0  0  0
    3.3854   -0.4476   -2.5274 C   0  0  0  0  0  0  0  0  0  0  0  0
    2.4679   -3.2773   -3.7984 H   0  0  0  0  0  0  0  0  0  0  0  0
    3.8806   -2.4918   -2.2082 H   0  0  0  0  0  0  0  0  0  0  0  0
    2.5317    0.2344   -2.4821 H   0  0  0  0  0  0  0  0  0  0  0  0
    4.1192   -0.1183   -1.7845 H   0  0  0  0  0  0  0  0  0  0  0  0
    3.8393   -0.3732   -3.5198 H   0  0  0  0  0  0  0  0  0  0  0  0
    1.0645   -1.5415   -0.5656 N   0  0  0  0  0  0  0  0  0  0  0  0
    0.6508   -0.8888    0.6942 C   0  0  2  0  0  0  0  0  0  0  0  0
    1.7951   -0.3828    1.6280 C   0  0  0  0  0  0  0  0  0  0  0  0
    2.7987    0.1173    1.1297 O   0  0  0  0  0  0  0  0  0  0  0  0
   -0.3004   -1.8580    1.4512 C   0  0  0  0  0  0  0  0  0  0  0  0
   -1.6770   -2.1685    0.8016 C   0  0  0  0  0  0  0  0  0  0  0  0
   -2.3683   -3.2492    1.6443 C   0  0  0  0  0  0  0  0  0  0  0  0
   -1.6392   -2.6661   -0.6512 C   0  0  0  0  0  0  0  0  0  0  0  0
    0.6288   -1.1571   -1.4079 H   0  0  0  0  0  0  0  0  0  0  0  0
    0.0808    0.0075    0.4319 H   0  0  0  0  0  0  0  0  0  0  0  0
   -0.5172   -1.4559    2.4437 H   0  0  0  0  0  0  0  0  0  0  0  0
    0.2412   -2.8000    1.5950 H   0  0  0  0  0  0  0  0  0  0  0  0
   -2.2851   -1.2580    0.8295 H   0  0  0  0  0  0  0  0  0  0  0  0
   -1.8051   -4.1873    1.6078 H   0  0  0  0  0  0  0  0  0  0  0  0
   -3.3801   -3.4376    1.2719 H   0  0  0  0  0  0  0  0  0  0  0  0
   -2.4456   -2.9306    2.6883 H   0  0  0  0  0  0  0  0  0  0  0  0
   -0.9088   -3.4736   -0.7650 H   0  0  0  0  0  0  0  0  0  0  0  0
   -2.6208   -3.0439   -0.9540 H   0  0  0  0  0  0  0  0  0  0  0  0
   -1.3815   -1.8496   -1.3306 H   0  0  0  0  0  0  0  0  0  0  0  0
    1.5268   -0.0502    2.9502 N   0  0  0  0  0  0  0  0  0  0  0  0
    2.4503    0.5562    3.9347 C   0  0  2  0  0  0  0  0  0  0  0  0
    2.7516    2.0582    3.7214 C   0  0  0  0  0  0  0  0  0  0  0  0
    2.6866    2.8241    4.6747 O   0  0  0  0  0  0  0  0  0  0  0  0
    3.7503   -0.2531    4.0493 C   0  0  0  0  0  0  0  0  0  0  0  0
    0.6302   -0.3671    3.3037 H   0  0  0  0  0  0  0  0  0  0  0  0
    1.9542    0.4907    4.9084 H   0  0  0  0  0  0  0  0  0  0  0  0
    4.3606   -0.1552    3.1465 H   0  0  0  0  0  0  0  0  0  0  0  0
    4.3405    0.1047    4.8989 H   0  0  0  0  0  0  0  0  0  0  0  0
    3.5265   -1.3129    4.2047 H   0  0  0  0  0  0  0  0  0  0  0  0
    3.0962    2.5565    2.4817 N   0  0  0  0  0  0  0  0  0  0  0  0
    3.4471    3.9455    2.2233 C   0  0  0  0  0  0  0  0  0  0  0  0
    3.1796    1.8648    1.7310 H   0  0  0  0  0  0  0  0  0  0  0  0
    4.3511    4.2204    2.7760 H   0  0  0  0  0  0  0  0  0  0  0  0
    3.6340    4.0938    1.1555 H   0  0  0  0  0  0  0  0  0  0  0  0
    2.6315    4.6099    2.5269 H   0  0  0  0  0  0  0  0  0  0  0  0
  1  2  2  0  0  0  0
  1  3  1  0  0  0  0
  1  7  1  0  0  0  0
  3  4  1  0  0  0  0
  3  5  1  0  0  0  0
  3  6  1  0  0  0  0
  7  8  1  0  0  0  0
  7 12  1  0  0  0  0
  8  9  1  0  0  0  0
  8 11  1  0  0  0  0
  8 13  1  0  0  0  0
  9 10  2  0  0  0  0
  9 17  1  0  0  0  0
 11 14  1  0  0  0  0
 11 15  1  0  0  0  0
 11 16  1  0  0  0  0
 17 18  1  0  0  0  0
 17 25  1  0  0  0  0
 18 19  1  0  0  0  0
 18 21  1  0  0  0  0
 18 26  1  0  0  0  0
 19 20  2  0  0  0  0
 19 36  1  0  0  0  0
 21 22  1  0  0  0  0
 21 27  1  0  0  0  0
 21 28  1  0  0  0  0
 22 23  1  0  0  0  0
 22 24  1  0  0  0  0
 22 29  1  0  0  0  0
 23 30  1  0  0  0  0
 23 31  1  0  0  0  0
 23 32  1  0  0  0  0
 24 33  1  0  0  0  0
 24 34  1  0  0  0  0
 24 35  1  0  0  0  0
 36 37  1  0  0  0  0
 36 41  1  0  0  0  0
 37 38  1  0  0  0  0
 37 40  1  0  0  0  0
 37 42  1  0  0  0  0
 38 39  2  0  0  0  0
 38 46  1  0  0  0  0
 40 43  1  0  0  0  0
 40 44  1  0  0  0  0
 40 45  1  0  0  0  0
 46 47  1  0  0  0  0
 46 48  1  0  0  0  0
 47 49  1  0  0  0  0
 47 50  1  0  0  0  0
 47 51  1  0  0  0  0
M  END
$$$$

  -OEChem-05262216553D

 51 50  0     1  0  0  0  0  0999 V2000
    0.8136   -1.9592   -3.8050 C   0  0  0  0  0  0  0  0  0  0  0  0
    0.2953   -0.9916   -3.2701 O   0  0  0  0  0  0  0  0  0  0  0  0
    0.0820   -2.6790   -4.9218 C   0  0  0  0  0  0  0  0  0  0  0  0
   -0.1158   -3.7142   -4.6333 H   0  0  0  0  0  0  0  0  0  0  0  0
   -0.8709   -2.1841   -5.1300 H   0  0  0  0  0  0  0  0  0  0  0  0
    0.6878   -2.6702   -5.8311 H   0  0  0  0  0  0  0  0  0  0  0  0
    2.0356   -2.4412   -3.3747 N   0  0  0  0  0  0  0  0  0  0  0  0
    2.9002   -1.8680   -2.3206 C   0  0  2  0  0  0  0  0  0  0  0  0
    2.3308   -1.9592   -0.8873 C   0  0  0  0  0  0  0  0  0  0  0  0
    2.9757   -2.5378   -0.0213 O   0  0  0  0  0  0  0  0  0  0  0  0
    3.2942   -0.4206   -2.6469 C   0  0  0  0  0  0  0  0  0  0  0  0
    2.3683   -3.2801   -3.8419 H   0  0  0  0  0  0  0  0  0  0  0  0
    3.8255   -2.4534   -2.3141 H   0  0  0  0  0  0  0  0  0  0  0  0
    2.4370    0.2540   -2.5652 H   0  0  0  0  0  0  0  0  0  0  0  0
    4.0618   -0.0764   -1.9461 H   0  0  0  0  0  0  0  0  0  0  0  0
    3.6967   -0.3532   -3.6619 H   0  0  0  0  0  0  0  0  0  0  0  0
    1.0471   -1.5347   -0.5941 N   0  0  0  0  0  0  0  0  0  0  0  0
    0.6382   -0.9142    0.6833 C   0  0  2  0  0  0  0  0  0  0  0  0
    1.8088   -0.4081    1.5810 C   0  0  0  0  0  0  0  0  0  0  0  0
    2.6733    0.2920    1.0620 O   0  0  0  0  0  0  0  0  0  0  0  0
   -0.2977   -1.8932    1.4450 C   0  0  0  0  0  0  0  0  0  0  0  0
   -1.6816   -2.2001    0.8106 C   0  0  0  0  0  0  0  0  0  0  0  0
   -2.3617   -3.2908    1.6497 C   0  0  0  0  0  0  0  0  0  0  0  0
   -1.6564   -2.6846   -0.6465 C   0  0  0  0  0  0  0  0  0  0  0  0
    0.5776   -1.1621   -1.4237 H   0  0  0  0  0  0  0  0  0  0  0  0
    0.0571   -0.0182    0.4458 H   0  0  0  0  0  0  0  0  0  0  0  0
   -0.5069   -1.4905    2.4394 H   0  0  0  0  0  0  0  0  0  0  0  0
    0.2478   -2.8345    1.5778 H   0  0  0  0  0  0  0  0  0  0  0  0
   -2.2914   -1.2912    0.8529 H   0  0  0  0  0  0  0  0  0  0  0  0
   -1.7919   -4.2247    1.6058 H   0  0  0  0  0  0  0  0  0  0  0  0
   -3.3738   -3.4842    1.2804 H   0  0  0  0  0  0  0  0  0  0  0  0
   -2.4373   -2.9782    2.6957 H   0  0  0  0  0  0  0  0  0  0  0  0
   -0.9224   -3.4864   -0.7757 H   0  0  0  0  0  0  0  0  0  0  0  0
   -2.6389   -3.0654   -0.9422 H   0  0  0  0  0  0  0  0  0  0  0  0
   -1.4112   -1.8605   -1.3210 H   0  0  0  0  0  0  0  0  0  0  0  0
    1.7092   -0.3842    2.9661 N   0  0  0  0  0  0  0  0  0  0  0  0
    2.7105    0.1247    3.9284 C   0  0  2  0  0  0  0  0  0  0  0  0
    2.8282    1.6645    4.0010 C   0  0  0  0  0  0  0  0  0  0  0  0
    2.7673    2.2212    5.0901 O   0  0  0  0  0  0  0  0  0  0  0  0
    4.0848   -0.5197    3.6934 C   0  0  0  0  0  0  0  0  0  0  0  0
    0.9425   -0.9252    3.3518 H   0  0  0  0  0  0  0  0  0  0  0  0
    2.3796   -0.1944    4.9220 H   0  0  0  0  0  0  0  0  0  0  0  0
    4.5374   -0.1642    2.7631 H   0  0  0  0  0  0  0  0  0  0  0  0
    4.7615   -0.2705    4.5166 H   0  0  0  0  0  0  0  0  0  0  0  0
    3.9908   -1.6085    3.6389 H   0  0  0  0  0  0  0  0  0  0  0  0
    3.0032    2.4274    2.8648 N   0  0  0  0  0  0  0  0  0  0  0  0
    3.1252    3.8778    2.8611 C   0  0  0  0  0  0  0  0  0  0  0  0
    3.0361    1.9123    1.9802 H   0  0  0  0  0  0  0  0  0  0  0  0
    3.3058    4.2377    1.8438 H   0  0  0  0  0  0  0  0  0  0  0  0
    2.2058    4.3394    3.2354 H   0  0  0  0  0  0  0  0  0  0  0  0
    3.9620    4.1932    3.4929 H   0  0  0  0  0  0  0  0  0  0  0  0
  1  2  2  0  0  0  0
  1  3  1  0  0  0  0
  1  7  1  0  0  0  0
  3  4  1  0  0  0  0
  3  5  1  0  0  0  0
  3  6  1  0  0  0  0
  7  8  1  0  0  0  0
  7 12  1  0  0  0  0
  8  9  1  0  0  0  0
  8 11  1  0  0  0  0
  8 13  1  0  0  0  0
  9 10  2  0  0  0  0
  9 17  1  0  0  0  0
 11 14  1  0  0  0  0
 11 15  1  0  0  0  0
 11 16  1  0  0  0  0
 17 18  1  0  0  0  0
 17 25  1  0  0  0  0
 18 19  1  0  0  0  0
 18 21  1  0  0  0  0
 18 26  1  0  0  0  0
 19 20  2  0  0  0  0
 19 36  1  0  0  0  0
 21 22  1  0  0  0  0
 21 27  1  0  0  0  0
 21 28  1  0  0  0  0
 22 23  1  0  0  0  0
 22 24  1  0  0  0  0
 22 29  1  0  0  0  0
 23 30  1  0  0  0  0
 23 31  1  0  0  0  0
 23 32  1  0  0  0  0
 24 33  1  0  0  0  0
 24 34  1  0  0  0  0
 24 35  1  0  0  0  0
 36 37  1  0  0  0  0
 36 41  1  0  0  0  0
 37 38  1  0  0  0  0
 37 40  1  0  0  0  0
 37 42  1  0  0  0  0
 38 39  2  0  0  0  0
 38 46  1  0  0  0  0
 40 43  1  0  0  0  0
 40 44  1  0  0  0  0
 40 45  1  0  0  0  0
 46 47  1  0  0  0  0
 46 48  1  0  0  0  0
 47 49  1  0  0  0  0
 47 50  1  0  0  0  0
 47 51  1  0  0  0  0
M  END
$$$$

  -OEChem-05262216553D

 51 50  0     1  0  0  0  0  0999 V2000
    0.6363   -1.8495   -3.8496 C   0  0  0  0  0  0  0  0  0  0  0  0
    0.1104   -0.9201   -3.2577 O   0  0  0  0  0  0  0  0  0  0  0  0
   -0.1197   -2.5508   -4.9619 C   0  0  0  0  0  0  0  0  0  0  0  0
   -0.3077   -3.5918   -4.6880 H   0  0  0  0  0  0  0  0  0  0  0  0
   -1.0786   -2.0546   -5.1372 H   0  0  0  0  0  0  0  0  0  0  0  0
    0.4633   -2.5228   -5.8857 H   0  0  0  0  0  0  0  0  0  0  0  0
    1.8902   -2.3051   -3.4870 N   0  0  0  0  0  0  0  0  0  0  0  0
    2.7863   -1.7282   -2.4615 C   0  0  2  0  0  0  0  0  0  0  0  0
    2.2952   -1.8713   -1.0034 C   0  0  0  0  0  0  0  0  0  0  0  0
    3.0220   -2.4106   -0.1778 O   0  0  0  0  0  0  0  0  0  0  0  0
    3.1148   -0.2611   -2.7721 C   0  0  0  0  0  0  0  0  0  0  0  0
    2.2336   -3.1112   -4.0021 H   0  0  0  0  0  0  0  0  0  0  0  0
    3.7296   -2.2817   -2.5160 H   0  0  0  0  0  0  0  0  0  0  0  0
    2.2393    0.3810   -2.6382 H   0  0  0  0  0  0  0  0  0  0  0  0
    3.9003    0.0961   -2.0983 H   0  0  0  0  0  0  0  0  0  0  0  0
    3.4684   -0.1588   -3.8022 H   0  0  0  0  0  0  0  0  0  0  0  0
    1.0081   -1.5167   -0.6396 N   0  0  0  0  0  0  0  0  0  0  0  0
    0.6289   -0.9662    0.6779 C   0  0  2  0  0  0  0  0  0  0  0  0
    1.8228   -0.4503    1.5337 C   0  0  0  0  0  0  0  0  0  0  0  0
    2.5213    0.4396    1.0582 O   0  0  0  0  0  0  0  0  0  0  0  0
   -0.2375   -1.9993    1.4473 C   0  0  0  0  0  0  0  0  0  0  0  0
   -1.6373   -2.3319    0.8641 C   0  0  0  0  0  0  0  0  0  0  0  0
   -2.2425   -3.4712    1.6954 C   0  0  0  0  0  0  0  0  0  0  0  0
   -1.6618   -2.7643   -0.6096 C   0  0  0  0  0  0  0  0  0  0  0  0
    0.4786   -1.1457   -1.4334 H   0  0  0  0  0  0  0  0  0  0  0  0
    0.0069   -0.0833    0.5011 H   0  0  0  0  0  0  0  0  0  0  0  0
   -0.4117   -1.6280    2.4618 H   0  0  0  0  0  0  0  0  0  0  0  0
    0.3427   -2.9256    1.5265 H   0  0  0  0  0  0  0  0  0  0  0  0
   -2.2731   -1.4455    0.9654 H   0  0  0  0  0  0  0  0  0  0  0  0
   -1.6493   -4.3852    1.5889 H   0  0  0  0  0  0  0  0  0  0  0  0
   -3.2661   -3.6816    1.3700 H   0  0  0  0  0  0  0  0  0  0  0  0
   -2.2730   -3.1977    2.7547 H   0  0  0  0  0  0  0  0  0  0  0  0
   -0.9067   -3.5334   -0.8008 H   0  0  0  0  0  0  0  0  0  0  0  0
   -2.6429   -3.1705   -0.8749 H   0  0  0  0  0  0  0  0  0  0  0  0
   -1.4769   -1.9081   -1.2632 H   0  0  0  0  0  0  0  0  0  0  0  0
    1.9493   -0.7470    2.8839 N   0  0  0  0  0  0  0  0  0  0  0  0
    3.0309   -0.3137    3.7941 C   0  0  2  0  0  0  0  0  0  0  0  0
    2.9934    1.1797    4.1940 C   0  0  0  0  0  0  0  0  0  0  0  0
    3.0652    1.4881    5.3770 O   0  0  0  0  0  0  0  0  0  0  0  0
    4.4091   -0.6980    3.2363 C   0  0  0  0  0  0  0  0  0  0  0  0
    1.3509   -1.4980    3.2127 H   0  0  0  0  0  0  0  0  0  0  0  0
    2.9002   -0.8741    4.7254 H   0  0  0  0  0  0  0  0  0  0  0  0
    4.6690   -0.0884    2.3659 H   0  0  0  0  0  0  0  0  0  0  0  0
    5.1782   -0.5460    3.9999 H   0  0  0  0  0  0  0  0  0  0  0  0
    4.4196   -1.7509    2.9379 H   0  0  0  0  0  0  0  0  0  0  0  0
    2.8830    2.1758    3.2453 N   0  0  0  0  0  0  0  0  0  0  0  0
    2.8650    3.5997    3.5473 C   0  0  0  0  0  0  0  0  0  0  0  0
    2.8373    1.8632    2.2711 H   0  0  0  0  0  0  0  0  0  0  0  0
    2.7584    4.1780    2.6246 H   0  0  0  0  0  0  0  0  0  0  0  0
    2.0249    3.8415    4.2067 H   0  0  0  0  0  0  0  0  0  0  0  0
    3.7970    3.8983    4.0382 H   0  0  0  0  0  0  0  0  0  0  0  0
  1  2  2  0  0  0  0
  1  3  1  0  0  0  0
  1  7  1  0  0  0  0
  3  4  1  0  0  0  0
  3  5  1  0  0  0  0
  3  6  1  0  0  0  0
  7  8  1  0  0  0  0
  7 12  1  0  0  0  0
  8  9  1  0  0  0  0
  8 11  1  0  0  0  0
  8 13  1  0  0  0  0
  9 10  2  0  0  0  0
  9 17  1  0  0  0  0
 11 14  1  0  0  0  0
 11 15  1  0  0  0  0
 11 16  1  0  0  0  0
 17 18  1  0  0  0  0
 17 25  1  0  0  0  0
 18 19  1  0  0  0  0
 18 21  1  0  0  0  0
 18 26  1  0  0  0  0
 19 20  2  0  0  0  0
 19 36  1  0  0  0  0
 21 22  1  0  0  0  0
 21 27  1  0  0  0  0
 21 28  1  0  0  0  0
 22 23  1  0  0  0  0
 22 24  1  0  0  0  0
 22 29  1  0  0  0  0
 23 30  1  0  0  0  0
 23 31  1  0  0  0  0
 23 32  1  0  0  0  0
 24 33  1  0  0  0  0
 24 34  1  0  0  0  0
 24 35  1  0  0  0  0
 36 37  1  0  0  0  0
 36 41  1  0  0  0  0
 37 38  1  0  0  0  0
 37 40  1  0  0  0  0
 37 42  1  0  0  0  0
 38 39  2  0  0  0  0
 38 46  1  0  0  0  0
 40 43  1  0  0  0  0
 40 44  1  0  0  0  0
 40 45  1  0  0  0  0
 46 47  1  0  0  0  0
 46 48  1  0  0  0  0
 47 49  1  0  0  0  0
 47 50  1  0  0  0  0
 47 51  1  0  0  0  0
M  END
$$$$

  -OEChem-05262216553D

 51 50  0     1  0  0  0  0  0999 V2000
    0.5652   -1.8643   -3.8919 C   0  0  0  0  0  0  0  0  0  0  0  0
    0.0201   -0.9454   -3.3011 O   0  0  0  0  0  0  0  0  0  0  0  0
   -0.1876   -2.6063   -4.9800 C   0  0  0  0  0  0  0  0  0  0  0  0
   -0.3487   -3.6447   -4.6810 H   0  0  0  0  0  0  0  0  0  0  0  0
   -1.1595   -2.1363   -5.1550 H   0  0  0  0  0  0  0  0  0  0  0  0
    0.3838   -2.5866   -5.9112 H   0  0  0  0  0  0  0  0  0  0  0  0
    1.8400   -2.2731   -3.5475 N   0  0  0  0  0  0  0  0  0  0  0  0
    2.7355   -1.6540   -2.5465 C   0  0  2  0  0  0  0  0  0  0  0  0
    2.2783   -1.7931   -1.0766 C   0  0  0  0  0  0  0  0  0  0  0  0
    3.0472   -2.2847   -0.2599 O   0  0  0  0  0  0  0  0  0  0  0  0
    3.0107   -0.1816   -2.8822 C   0  0  0  0  0  0  0  0  0  0  0  0
    2.2023   -3.0696   -4.0643 H   0  0  0  0  0  0  0  0  0  0  0  0
    3.6947   -2.1780   -2.6132 H   0  0  0  0  0  0  0  0  0  0  0  0
    2.1172    0.4336   -2.7414 H   0  0  0  0  0  0  0  0  0  0  0  0
    3.7959    0.2098   -2.2275 H   0  0  0  0  0  0  0  0  0  0  0  0
    3.3434   -0.0823   -3.9197 H   0  0  0  0  0  0  0  0  0  0  0  0
    0.9875   -1.4755   -0.6912 N   0  0  0  0  0  0  0  0  0  0  0  0
    0.6028   -0.9641    0.6403 C   0  0  2  0  0  0  0  0  0  0  0  0
    1.7875   -0.4412    1.5001 C   0  0  0  0  0  0  0  0  0  0  0  0
    2.3438    0.5897    1.1368 O   0  0  0  0  0  0  0  0  0  0  0  0
   -0.2331   -2.0242    1.4046 C   0  0  0  0  0  0  0  0  0  0  0  0
   -1.6309   -2.3787    0.8329 C   0  0  0  0  0  0  0  0  0  0  0  0
   -2.2038   -3.5412    1.6550 C   0  0  0  0  0  0  0  0  0  0  0  0
   -1.6562   -2.7909   -0.6455 C   0  0  0  0  0  0  0  0  0  0  0  0
    0.4288   -1.1250   -1.4745 H   0  0  0  0  0  0  0  0  0  0  0  0
   -0.0399   -0.0921    0.4837 H   0  0  0  0  0  0  0  0  0  0  0  0
   -0.3955   -1.6683    2.4275 H   0  0  0  0  0  0  0  0  0  0  0  0
    0.3648   -2.9408    1.4618 H   0  0  0  0  0  0  0  0  0  0  0  0
   -2.2847   -1.5078    0.9515 H   0  0  0  0  0  0  0  0  0  0  0  0
   -1.5936   -4.4415    1.5303 H   0  0  0  0  0  0  0  0  0  0  0  0
   -3.2264   -3.7687    1.3379 H   0  0  0  0  0  0  0  0  0  0  0  0
   -2.2284   -3.2826    2.7181 H   0  0  0  0  0  0  0  0  0  0  0  0
   -0.8823   -3.5365   -0.8538 H   0  0  0  0  0  0  0  0  0  0  0  0
   -2.6282   -3.2190   -0.9094 H   0  0  0  0  0  0  0  0  0  0  0  0
   -1.4992   -1.9203   -1.2868 H   0  0  0  0  0  0  0  0  0  0  0  0
    2.1041   -0.9913    2.7344 N   0  0  0  0  0  0  0  0  0  0  0  0
    3.2539   -0.6387    3.5936 C   0  0  2  0  0  0  0  0  0  0  0  0
    3.1577    0.7374    4.2924 C   0  0  0  0  0  0  0  0  0  0  0  0
    3.3803    0.8188    5.4940 O   0  0  0  0  0  0  0  0  0  0  0  0
    4.5746   -0.7745    2.8228 C   0  0  0  0  0  0  0  0  0  0  0  0
    1.6531   -1.8808    2.9240 H   0  0  0  0  0  0  0  0  0  0  0  0
    3.2819   -1.3789    4.3997 H   0  0  0  0  0  0  0  0  0  0  0  0
    4.6734    0.0060    2.0631 H   0  0  0  0  0  0  0  0  0  0  0  0
    5.4213   -0.6894    3.5109 H   0  0  0  0  0  0  0  0  0  0  0  0
    4.6267   -1.7488    2.3269 H   0  0  0  0  0  0  0  0  0  0  0  0
    2.8280    1.8803    3.5928 N   0  0  0  0  0  0  0  0  0  0  0  0
    2.7428    3.2087    4.1823 C   0  0  0  0  0  0  0  0  0  0  0  0
    2.6759    1.7615    2.5872 H   0  0  0  0  0  0  0  0  0  0  0  0
    2.4304    3.9362    3.4271 H   0  0  0  0  0  0  0  0  0  0  0  0
    2.0112    3.2212    4.9969 H   0  0  0  0  0  0  0  0  0  0  0  0
    3.7168    3.5144    4.5777 H   0  0  0  0  0  0  0  0  0  0  0  0
  1  2  2  0  0  0  0
  1  3  1  0  0  0  0
  1  7  1  0  0  0  0
  3  4  1  0  0  0  0
  3  5  1  0  0  0  0
  3  6  1  0  0  0  0
  7  8  1  0  0  0  0
  7 12  1  0  0  0  0
  8  9  1  0  0  0  0
  8 11  1  0  0  0  0
  8 13  1  0  0  0  0
  9 10  2  0  0  0  0
  9 17  1  0  0  0  0
 11 14  1  0  0  0  0
 11 15  1  0  0  0  0
 11 16  1  0  0  0  0
 17 18  1  0  0  0  0
 17 25  1  0  0  0  0
 18 19  1  0  0  0  0
 18 21  1  0  0  0  0
 18 26  1  0  0  0  0
 19 20  2  0  0  0  0
 19 36  1  0  0  0  0
 21 22  1  0  0  0  0
 21 27  1  0  0  0  0
 21 28  1  0  0  0  0
 22 23  1  0  0  0  0
 22 24  1  0  0  0  0
 22 29  1  0  0  0  0
 23 30  1  0  0  0  0
 23 31  1  0  0  0  0
 23 32  1  0  0  0  0
 24 33  1  0  0  0  0
 24 34  1  0  0  0  0
 24 35  1  0  0  0  0
 36 37  1  0  0  0  0
 36 41  1  0  0  0  0
 37 38  1  0  0  0  0
 37 40  1  0  0  0  0
 37 42  1  0  0  0  0
 38 39  2  0  0  0  0
 38 46  1  0  0  0  0
 40 43  1  0  0  0  0
 40 44  1  0  0  0  0
 40 45  1  0  0  0  0
 46 47  1  0  0  0  0
 46 48  1  0  0  0  0
 47 49  1  0  0  0  0
 47 50  1  0  0  0  0
 47 51  1  0  0  0  0
M  END
$$$$

  -OEChem-05262216553D

 51 50  0     1  0  0  0  0  0999 V2000
    0.4021   -1.7649   -3.9301 C   0  0  0  0  0  0  0  0  0  0  0  0
   -0.1051   -0.8531   -3.2966 O   0  0  0  0  0  0  0  0  0  0  0  0
   -0.4055   -2.4765   -4.9989 C   0  0  0  0  0  0  0  0  0  0  0  0
   -0.5537   -3.5229   -4.7208 H   0  0  0  0  0  0  0  0  0  0  0  0
   -1.3839   -2.0009   -5.1127 H   0  0  0  0  0  0  0  0  0  0  0  0
    0.1194   -2.4307   -5.9563 H   0  0  0  0  0  0  0  0  0  0  0  0
    1.6856   -2.1946   -3.6497 N   0  0  0  0  0  0  0  0  0  0  0  0
    2.6387   -1.5935   -2.6913 C   0  0  2  0  0  0  0  0  0  0  0  0
    2.2598   -1.7368   -1.1990 C   0  0  0  0  0  0  0  0  0  0  0  0
    3.0902   -2.1844   -0.4187 O   0  0  0  0  0  0  0  0  0  0  0  0
    2.9134   -0.1218   -3.0304 C   0  0  0  0  0  0  0  0  0  0  0  0
    2.0168   -2.9809   -4.2018 H   0  0  0  0  0  0  0  0  0  0  0  0
    3.5864   -2.1287   -2.8125 H   0  0  0  0  0  0  0  0  0  0  0  0
    2.0387    0.5035   -2.8272 H   0  0  0  0  0  0  0  0  0  0  0  0
    3.7442    0.2518   -2.4231 H   0  0  0  0  0  0  0  0  0  0  0  0
    3.1817   -0.0160   -4.0857 H   0  0  0  0  0  0  0  0  0  0  0  0
    0.9785   -1.4661   -0.7521 N   0  0  0  0  0  0  0  0  0  0  0  0
    0.6226   -1.0060    0.6055 C   0  0  2  0  0  0  0  0  0  0  0  0
    1.8072   -0.4717    1.4559 C   0  0  0  0  0  0  0  0  0  0  0  0
    2.1699    0.6841    1.2694 O   0  0  0  0  0  0  0  0  0  0  0  0
   -0.1490   -2.1129    1.3687 C   0  0  0  0  0  0  0  0  0  0  0  0
   -1.5537   -2.5014    0.8375 C   0  0  0  0  0  0  0  0  0  0  0  0
   -2.0570   -3.7038    1.6478 C   0  0  0  0  0  0  0  0  0  0  0  0
   -1.6196   -2.8754   -0.6504 C   0  0  0  0  0  0  0  0  0  0  0  0
    0.3732   -1.1238   -1.5039 H   0  0  0  0  0  0  0  0  0  0  0  0
   -0.0557   -0.1539    0.4937 H   0  0  0  0  0  0  0  0  0  0  0  0
   -0.2761   -1.7902    2.4080 H   0  0  0  0  0  0  0  0  0  0  0  0
    0.4781   -3.0110    1.3756 H   0  0  0  0  0  0  0  0  0  0  0  0
   -2.2314   -1.6570    1.0036 H   0  0  0  0  0  0  0  0  0  0  0  0
   -1.4227   -4.5796    1.4768 H   0  0  0  0  0  0  0  0  0  0  0  0
   -3.0827   -3.9568    1.3615 H   0  0  0  0  0  0  0  0  0  0  0  0
   -2.0507   -3.4737    2.7180 H   0  0  0  0  0  0  0  0  0  0  0  0
   -0.8320   -3.5911   -0.9062 H   0  0  0  0  0  0  0  0  0  0  0  0
   -2.5873   -3.3265   -0.8909 H   0  0  0  0  0  0  0  0  0  0  0  0
   -1.5125   -1.9844   -1.2738 H   0  0  0  0  0  0  0  0  0  0  0  0
    2.3594   -1.2137    2.4900 N   0  0  0  0  0  0  0  0  0  0  0  0
    3.5385   -0.8565    3.3061 C   0  0  2  0  0  0  0  0  0  0  0  0
    3.3294    0.3169    4.2914 C   0  0  0  0  0  0  0  0  0  0  0  0
    3.6264    0.1736    5.4708 O   0  0  0  0  0  0  0  0  0  0  0  0
    4.7669   -0.6155    2.4175 C   0  0  0  0  0  0  0  0  0  0  0  0
    2.1080   -2.1975    2.4674 H   0  0  0  0  0  0  0  0  0  0  0  0
    3.7639   -1.7289    3.9281 H   0  0  0  0  0  0  0  0  0  0  0  0
    4.6599    0.3017    1.8314 H   0  0  0  0  0  0  0  0  0  0  0  0
    5.6645   -0.5216    3.0364 H   0  0  0  0  0  0  0  0  0  0  0  0
    4.9065   -1.4538    1.7278 H   0  0  0  0  0  0  0  0  0  0  0  0
    2.8258    1.5309    3.8702 N   0  0  0  0  0  0  0  0  0  0  0  0
    2.5935    2.6716    4.7442 C   0  0  0  0  0  0  0  0  0  0  0  0
    2.5738    1.5917    2.8795 H   0  0  0  0  0  0  0  0  0  0  0  0
    2.2253    3.5221    4.1628 H   0  0  0  0  0  0  0  0  0  0  0  0
    1.8482    2.4234    5.5067 H   0  0  0  0  0  0  0  0  0  0  0  0
    3.5225    2.9695    5.2411 H   0  0  0  0  0  0  0  0  0  0  0  0
  1  2  2  0  0  0  0
  1  3  1  0  0  0  0
  1  7  1  0  0  0  0
  3  4  1  0  0  0  0
  3  5  1  0  0  0  0
  3  6  1  0  0  0  0
  7  8  1  0  0  0  0
  7 12  1  0  0  0  0
  8  9  1  0  0  0  0
  8 11  1  0  0  0  0
  8 13  1  0  0  0  0
  9 10  2  0  0  0  0
  9 17  1  0  0  0  0
 11 14  1  0  0  0  0
 11 15  1  0  0  0  0
 11 16  1  0  0  0  0
 17 18  1  0  0  0  0
 17 25  1  0  0  0  0
 18 19  1  0  0  0  0
 18 21  1  0  0  0  0
 18 26  1  0  0  0  0
 19 20  2  0  0  0  0
 19 36  1  0  0  0  0
 21 22  1  0  0  0  0
 21 27  1  0  0  0  0
 21 28  1  0  0  0  0
 22 23  1  0  0  0  0
 22 24  1  0  0  0  0
 22 29  1  0  0  0  0
 23 30  1  0  0  0  0
 23 31  1  0  0  0  0
 23 32  1  0  0  0  0
 24 33  1  0  0  0  0
 24 34  1  0  0  0  0
 24 35  1  0  0  0  0
 36 37  1  0  0  0  0
 36 41  1  0  0  0  0
 37 38  1  0  0  0  0
 37 40  1  0  0  0  0
 37 42  1  0  0  0  0
 38 39  2  0  0  0  0
 38 46  1  0  0  0  0
 40 43  1  0  0  0  0
 40 44  1  0  0  0  0
 40 45  1  0  0  0  0
 46 47  1  0  0  0  0
 46 48  1  0  0  0  0
 47 49  1  0  0  0  0
 47 50  1  0  0  0  0
 47 51  1  0  0  0  0
M  END
$$$$

  -OEChem-05262216553D

 51 50  0     1  0  0  0  0  0999 V2000
    0.2937   -1.8058   -3.9929 C   0  0  0  0  0  0  0  0  0  0  0  0
   -0.2193   -0.9115   -3.3399 O   0  0  0  0  0  0  0  0  0  0  0  0
   -0.5291   -2.5393   -5.0352 C   0  0  0  0  0  0  0  0  0  0  0  0
   -0.5736   -3.6045   -4.7962 H   0  0  0  0  0  0  0  0  0  0  0  0
   -1.5482   -2.1425   -5.0592 H   0  0  0  0  0  0  0  0  0  0  0  0
   -0.0806   -2.4124   -6.0235 H   0  0  0  0  0  0  0  0  0  0  0  0
    1.6015   -2.1890   -3.7608 N   0  0  0  0  0  0  0  0  0  0  0  0
    2.5645   -1.5543   -2.8348 C   0  0  2  0  0  0  0  0  0  0  0  0
    2.2417   -1.7082   -1.3308 C   0  0  0  0  0  0  0  0  0  0  0  0
    3.1081   -2.1423   -0.5836 O   0  0  0  0  0  0  0  0  0  0  0  0
    2.7767   -0.0746   -3.1834 C   0  0  0  0  0  0  0  0  0  0  0  0
    1.9437   -2.9568   -4.3320 H   0  0  0  0  0  0  0  0  0  0  0  0
    3.5259   -2.0563   -2.9868 H   0  0  0  0  0  0  0  0  0  0  0  0
    1.8864    0.5197   -2.9579 H   0  0  0  0  0  0  0  0  0  0  0  0
    3.6099    0.3314   -2.6007 H   0  0  0  0  0  0  0  0  0  0  0  0
    3.0111    0.0370   -4.2461 H   0  0  0  0  0  0  0  0  0  0  0  0
    0.9766   -1.4531   -0.8326 N   0  0  0  0  0  0  0  0  0  0  0  0
    0.6547   -1.0077    0.5393 C   0  0  2  0  0  0  0  0  0  0  0  0
    1.8420   -0.4628    1.3769 C   0  0  0  0  0  0  0  0  0  0  0  0
    2.0016    0.7509    1.4281 O   0  0  0  0  0  0  0  0  0  0  0  0
   -0.0739   -2.1262    1.3262 C   0  0  0  0  0  0  0  0  0  0  0  0
   -1.4894   -2.5355    0.8421 C   0  0  0  0  0  0  0  0  0  0  0  0
   -1.9478   -3.7455    1.6668 C   0  0  0  0  0  0  0  0  0  0  0  0
   -1.5970   -2.9091   -0.6428 C   0  0  0  0  0  0  0  0  0  0  0  0
    0.3303   -1.1350   -1.5609 H   0  0  0  0  0  0  0  0  0  0  0  0
   -0.0423   -0.1681    0.4490 H   0  0  0  0  0  0  0  0  0  0  0  0
   -0.1654   -1.8069    2.3704 H   0  0  0  0  0  0  0  0  0  0  0  0
    0.5653   -3.0156    1.3110 H   0  0  0  0  0  0  0  0  0  0  0  0
   -2.1748   -1.7024    1.0315 H   0  0  0  0  0  0  0  0  0  0  0  0
   -1.3039   -4.6104    1.4780 H   0  0  0  0  0  0  0  0  0  0  0  0
   -2.9767   -4.0164    1.4105 H   0  0  0  0  0  0  0  0  0  0  0  0
   -1.9147   -3.5141    2.7360 H   0  0  0  0  0  0  0  0  0  0  0  0
   -0.8050   -3.6099   -0.9252 H   0  0  0  0  0  0  0  0  0  0  0  0
   -2.5637   -3.3777   -0.8522 H   0  0  0  0  0  0  0  0  0  0  0  0
   -1.5269   -2.0154   -1.2674 H   0  0  0  0  0  0  0  0  0  0  0  0
    2.6115   -1.3001    2.1697 N   0  0  0  0  0  0  0  0  0  0  0  0
    3.8104   -0.9246    2.9485 C   0  0  2  0  0  0  0  0  0  0  0  0
    3.5497   -0.0415    4.1911 C   0  0  0  0  0  0  0  0  0  0  0  0
    4.0976   -0.3170    5.2513 O   0  0  0  0  0  0  0  0  0  0  0  0
    4.8763   -0.2903    2.0440 C   0  0  0  0  0  0  0  0  0  0  0  0
    2.5628   -2.2717    1.8705 H   0  0  0  0  0  0  0  0  0  0  0  0
    4.2341   -1.8575    3.3339 H   0  0  0  0  0  0  0  0  0  0  0  0
    4.5644    0.6988    1.6970 H   0  0  0  0  0  0  0  0  0  0  0  0
    5.8157   -0.1775    2.5939 H   0  0  0  0  0  0  0  0  0  0  0  0
    5.0597   -0.9239    1.1709 H   0  0  0  0  0  0  0  0  0  0  0  0
    2.7381    1.0731    4.1271 N   0  0  0  0  0  0  0  0  0  0  0  0
    2.5183    1.9926    5.2338 C   0  0  0  0  0  0  0  0  0  0  0  0
    2.3570    1.2948    3.2033 H   0  0  0  0  0  0  0  0  0  0  0  0
    3.4625    2.4537    5.5414 H   0  0  0  0  0  0  0  0  0  0  0  0
    1.8272    2.7853    4.9318 H   0  0  0  0  0  0  0  0  0  0  0  0
    2.0869    1.4649    6.0905 H   0  0  0  0  0  0  0  0  0  0  0  0
  1  2  2  0  0  0  0
  1  3  1  0  0  0  0
  1  7  1  0  0  0  0
  3  4  1  0  0  0  0
  3  5  1  0  0  0  0
  3  6  1  0  0  0  0
  7  8  1  0  0  0  0
  7 12  1  0  0  0  0
  8  9  1  0  0  0  0
  8 11  1  0  0  0  0
  8 13  1  0  0  0  0
  9 10  2  0  0  0  0
  9 17  1  0  0  0  0
 11 14  1  0  0  0  0
 11 15  1  0  0  0  0
 11 16  1  0  0  0  0
 17 18  1  0  0  0  0
 17 25  1  0  0  0  0
 18 19  1  0  0  0  0
 18 21  1  0  0  0  0
 18 26  1  0  0  0  0
 19 20  2  0  0  0  0
 19 36  1  0  0  0  0
 21 22  1  0  0  0  0
 21 27  1  0  0  0  0
 21 28  1  0  0  0  0
 22 23  1  0  0  0  0
 22 24  1  0  0  0  0
 22 29  1  0  0  0  0
 23 30  1  0  0  0  0
 23 31  1  0  0  0  0
 23 32  1  0  0  0  0
 24 33  1  0  0  0  0
 24 34  1  0  0  0  0
 24 35  1  0  0  0  0
 36 37  1  0  0  0  0
 36 41  1  0  0  0  0
 37 38  1  0  0  0  0
 37 40  1  0  0  0  0
 37 42  1  0  0  0  0
 38 39  2  0  0  0  0
 38 46  1  0  0  0  0
 40 43  1  0  0  0  0
 40 44  1  0  0  0  0
 40 45  1  0  0  0  0
 46 47  1  0  0  0  0
 46 48  1  0  0  0  0
 47 49  1  0  0  0  0
 47 50  1  0  0  0  0
 47 51  1  0  0  0  0
M  END
$$$$

  -OEChem-05262216553D

 51 50  0     1  0  0  0  0  0999 V2000
    1.3813   -3.0670   -3.6218 C   0  0  0  0  0  0  0  0  0  0  0  0
    0.3962   -3.1404   -2.9046 O   0  0  0  0  0  0  0  0  0  0  0  0
    2.0080   -4.3328   -4.1746 C   0  0  0  0  0  0  0  0  0  0  0  0
    3.0106   -4.4627   -3.7595 H   0  0  0  0  0  0  0  0  0  0  0  0
    1.4009   -5.2025   -3.9075 H   0  0  0  0  0  0  0  0  0  0  0  0
    2.0760   -4.2720   -5.2637 H   0  0  0  0  0  0  0  0  0  0  0  0
    1.9520   -1.8426   -3.9134 N   0  0  0  0  0  0  0  0  0  0  0  0
    1.5665   -0.5717   -3.2748 C   0  0  2  0  0  0  0  0  0  0  0  0
    1.7294   -0.6122   -1.7352 C   0  0  0  0  0  0  0  0  0  0  0  0
    2.8375   -0.8670   -1.2865 O   0  0  0  0  0  0  0  0  0  0  0  0
    0.1660   -0.1405   -3.7441 C   0  0  0  0  0  0  0  0  0  0  0  0
    2.8550   -1.8785   -4.3778 H   0  0  0  0  0  0  0  0  0  0  0  0
    2.2642    0.1971   -3.6213 H   0  0  0  0  0  0  0  0  0  0  0  0
   -0.6050   -0.8363   -3.4002 H   0  0  0  0  0  0  0  0  0  0  0  0
   -0.0716    0.8569   -3.3615 H   0  0  0  0  0  0  0  0  0  0  0  0
    0.1315   -0.1059   -4.8374 H   0  0  0  0  0  0  0  0  0  0  0  0
    0.6467   -0.4096   -0.8927 N   0  0  0  0  0  0  0  0  0  0  0  0
    0.6060   -0.3467    0.5860 C   0  0  2  0  0  0  0  0  0  0  0  0
    1.9373   -0.1673    1.3613 C   0  0  0  0  0  0  0  0  0  0  0  0
    2.0805    0.8447    2.0376 O   0  0  0  0  0  0  0  0  0  0  0  0
   -0.1564   -1.5619    1.1664 C   0  0  0  0  0  0  0  0  0  0  0  0
   -1.6751   -1.6631    0.8630 C   0  0  0  0  0  0  0  0  0  0  0  0
   -2.1813   -3.0067    1.4044 C   0  0  0  0  0  0  0  0  0  0  0  0
   -2.0762   -1.5659   -0.6152 C   0  0  0  0  0  0  0  0  0  0  0  0
   -0.2491   -0.3863   -1.3701 H   0  0  0  0  0  0  0  0  0  0  0  0
    0.0228    0.5458    0.8357 H   0  0  0  0  0  0  0  0  0  0  0  0
   -0.0393   -1.5532    2.2563 H   0  0  0  0  0  0  0  0  0  0  0  0
    0.3326   -2.4694    0.7951 H   0  0  0  0  0  0  0  0  0  0  0  0
   -2.1851   -0.8567    1.4012 H   0  0  0  0  0  0  0  0  0  0  0  0
   -1.7111   -3.8400    0.8719 H   0  0  0  0  0  0  0  0  0  0  0  0
   -3.2662   -3.0859    1.2834 H   0  0  0  0  0  0  0  0  0  0  0  0
   -1.9511   -3.1011    2.4703 H   0  0  0  0  0  0  0  0  0  0  0  0
   -1.4739   -2.2469   -1.2234 H   0  0  0  0  0  0  0  0  0  0  0  0
   -3.1298   -1.8335   -0.7437 H   0  0  0  0  0  0  0  0  0  0  0  0
   -1.9545   -0.5439   -0.9829 H   0  0  0  0  0  0  0  0  0  0  0  0
    2.8238   -1.2230    1.4983 N   0  0  0  0  0  0  0  0  0  0  0  0
    4.1257   -1.2005    2.1965 C   0  0  2  0  0  0  0  0  0  0  0  0
    4.0511   -1.1318    3.7395 C   0  0  0  0  0  0  0  0  0  0  0  0
    4.7908   -1.8412    4.4102 O   0  0  0  0  0  0  0  0  0  0  0  0
    5.0285   -0.0901    1.6417 C   0  0  0  0  0  0  0  0  0  0  0  0
    2.7477   -1.8838    0.7258 H   0  0  0  0  0  0  0  0  0  0  0  0
    4.6159   -2.1522    1.9675 H   0  0  0  0  0  0  0  0  0  0  0  0
    4.6586    0.8996    1.9241 H   0  0  0  0  0  0  0  0  0  0  0  0
    6.0432   -0.2002    2.0364 H   0  0  0  0  0  0  0  0  0  0  0  0
    5.0729   -0.1475    0.5497 H   0  0  0  0  0  0  0  0  0  0  0  0
    3.1857   -0.2703    4.3832 N   0  0  0  0  0  0  0  0  0  0  0  0
    3.1235   -0.1028    5.8280 C   0  0  0  0  0  0  0  0  0  0  0  0
    2.6549    0.3613    3.7773 H   0  0  0  0  0  0  0  0  0  0  0  0
    4.0780    0.2731    6.2108 H   0  0  0  0  0  0  0  0  0  0  0  0
    2.3376    0.6118    6.0906 H   0  0  0  0  0  0  0  0  0  0  0  0
    2.8990   -1.0577    6.3146 H   0  0  0  0  0  0  0  0  0  0  0  0
  1  2  2  0  0  0  0
  1  3  1  0  0  0  0
  1  7  1  0  0  0  0
  3  4  1  0  0  0  0
  3  5  1  0  0  0  0
  3  6  1  0  0  0  0
  7  8  1  0  0  0  0
  7 12  1  0  0  0  0
  8  9  1  0  0  0  0
  8 11  1  0  0  0  0
  8 13  1  0  0  0  0
  9 10  2  0  0  0  0
  9 17  1  0  0  0  0
 11 14  1  0  0  0  0
 11 15  1  0  0  0  0
 11 16  1  0  0  0  0
 17 18  1  0  0  0  0
 17 25  1  0  0  0  0
 18 19  1  0  0  0  0
 18 21  1  0  0  0  0
 18 26  1  0  0  0  0
 19 20  2  0  0  0  0
 19 36  1  0  0  0  0
 21 22  1  0  0  0  0
 21 27  1  0  0  0  0
 21 28  1  0  0  0  0
 22 23  1  0  0  0  0
 22 24  1  0  0  0  0
 22 29  1  0  0  0  0
 23 30  1  0  0  0  0
 23 31  1  0  0  0  0
 23 32  1  0  0  0  0
 24 33  1  0  0  0  0
 24 34  1  0  0  0  0
 24 35  1  0  0  0  0
 36 37  1  0  0  0  0
 36 41  1  0  0  0  0
 37 38  1  0  0  0  0
 37 40  1  0  0  0  0
 37 42  1  0  0  0  0
 38 39  2  0  0  0  0
 38 46  1  0  0  0  0
 40 43  1  0  0  0  0
 40 44  1  0  0  0  0
 40 45  1  0  0  0  0
 46 47  1  0  0  0  0
 46 48  1  0  0  0  0
 47 49  1  0  0  0  0
 47 50  1  0  0  0  0
 47 51  1  0  0  0  0
M  END
$$$$

  -OEChem-05262216553D

 51 50  0     1  0  0  0  0  0999 V2000
    1.3190   -3.0904   -3.6478 C   0  0  0  0  0  0  0  0  0  0  0  0
    0.4060   -3.2094   -2.8467 O   0  0  0  0  0  0  0  0  0  0  0  0
    1.9838   -4.3280   -4.2213 C   0  0  0  0  0  0  0  0  0  0  0  0
    3.0492   -4.3273   -3.9780 H   0  0  0  0  0  0  0  0  0  0  0  0
    1.5288   -5.2296   -3.8011 H   0  0  0  0  0  0  0  0  0  0  0  0
    1.8645   -4.3480   -5.3073 H   0  0  0  0  0  0  0  0  0  0  0  0
    1.7703   -1.8374   -4.0183 N   0  0  0  0  0  0  0  0  0  0  0  0
    1.3360   -0.5758   -3.3916 C   0  0  2  0  0  0  0  0  0  0  0  0
    1.6199   -0.5449   -1.8686 C   0  0  0  0  0  0  0  0  0  0  0  0
    2.7822   -0.6568   -1.5102 O   0  0  0  0  0  0  0  0  0  0  0  0
   -0.1251   -0.2672   -3.7634 C   0  0  0  0  0  0  0  0  0  0  0  0
    2.6297   -1.8213   -4.5605 H   0  0  0  0  0  0  0  0  0  0  0  0
    1.9430    0.2296   -3.8172 H   0  0  0  0  0  0  0  0  0  0  0  0
   -0.8115   -1.0083   -3.3446 H   0  0  0  0  0  0  0  0  0  0  0  0
   -0.4119    0.7209   -3.3903 H   0  0  0  0  0  0  0  0  0  0  0  0
   -0.2429   -0.2699   -4.8513 H   0  0  0  0  0  0  0  0  0  0  0  0
    0.5911   -0.4043   -0.9490 N   0  0  0  0  0  0  0  0  0  0  0  0
    0.6235   -0.3416    0.5329 C   0  0  2  0  0  0  0  0  0  0  0  0
    1.9538   -0.0891    1.2936 C   0  0  0  0  0  0  0  0  0  0  0  0
    1.9521    0.7603    2.1773 O   0  0  0  0  0  0  0  0  0  0  0  0
   -0.0366   -1.6015    1.1434 C   0  0  0  0  0  0  0  0  0  0  0  0
   -1.5600   -1.7963    0.9180 C   0  0  0  0  0  0  0  0  0  0  0  0
   -1.9519   -3.1700    1.4784 C   0  0  0  0  0  0  0  0  0  0  0  0
   -2.0474   -1.7214   -0.5351 C   0  0  0  0  0  0  0  0  0  0  0  0
   -0.3307   -0.5000   -1.3641 H   0  0  0  0  0  0  0  0  0  0  0  0
   -0.0046    0.5136    0.8038 H   0  0  0  0  0  0  0  0  0  0  0  0
    0.1335   -1.5911    2.2260 H   0  0  0  0  0  0  0  0  0  0  0  0
    0.4896   -2.4757    0.7441 H   0  0  0  0  0  0  0  0  0  0  0  0
   -2.0887   -1.0243    1.4875 H   0  0  0  0  0  0  0  0  0  0  0  0
   -1.4641   -3.9716    0.9141 H   0  0  0  0  0  0  0  0  0  0  0  0
   -3.0353   -3.3143    1.4198 H   0  0  0  0  0  0  0  0  0  0  0  0
   -1.6546   -3.2535    2.5287 H   0  0  0  0  0  0  0  0  0  0  0  0
   -1.4454   -2.3704   -1.1768 H   0  0  0  0  0  0  0  0  0  0  0  0
   -3.0905   -2.0458   -0.6045 H   0  0  0  0  0  0  0  0  0  0  0  0
   -2.0021   -0.6949   -0.9075 H   0  0  0  0  0  0  0  0  0  0  0  0
    3.0330   -0.9476    1.1757 N   0  0  0  0  0  0  0  0  0  0  0  0
    4.3404   -0.8408    1.8553 C   0  0  2  0  0  0  0  0  0  0  0  0
    4.3270   -1.1366    3.3732 C   0  0  0  0  0  0  0  0  0  0  0  0
    5.2011   -1.8451    3.8574 O   0  0  0  0  0  0  0  0  0  0  0  0
    5.0021    0.5130    1.5649 C   0  0  0  0  0  0  0  0  0  0  0  0
    3.0375   -1.4291    0.2738 H   0  0  0  0  0  0  0  0  0  0  0  0
    4.9814   -1.6090    1.4113 H   0  0  0  0  0  0  0  0  0  0  0  0
    4.4796    1.3271    2.0753 H   0  0  0  0  0  0  0  0  0  0  0  0
    6.0404    0.5041    1.9107 H   0  0  0  0  0  0  0  0  0  0  0  0
    4.9969    0.7147    0.4893 H   0  0  0  0  0  0  0  0  0  0  0  0
    3.3658   -0.5986    4.2054 N   0  0  0  0  0  0  0  0  0  0  0  0
    3.3308   -0.7888    5.6484 C   0  0  0  0  0  0  0  0  0  0  0  0
    2.6989    0.0392    3.7625 H   0  0  0  0  0  0  0  0  0  0  0  0
    4.2492   -0.4084    6.1075 H   0  0  0  0  0  0  0  0  0  0  0  0
    2.4802   -0.2512    6.0780 H   0  0  0  0  0  0  0  0  0  0  0  0
    3.2276   -1.8514    5.8918 H   0  0  0  0  0  0  0  0  0  0  0  0
  1  2  2  0  0  0  0
  1  3  1  0  0  0  0
  1  7  1  0  0  0  0
  3  4  1  0  0  0  0
  3  5  1  0  0  0  0
  3  6  1  0  0  0  0
  7  8  1  0  0  0  0
  7 12  1  0  0  0  0
  8  9  1  0  0  0  0
  8 11  1  0  0  0  0
  8 13  1  0  0  0  0
  9 10  2  0  0  0  0
  9 17  1  0  0  0  0
 11 14  1  0  0  0  0
 11 15  1  0  0  0  0
 11 16  1  0  0  0  0
 17 18  1  0  0  0  0
 17 25  1  0  0  0  0
 18 19  1  0  0  0  0
 18 21  1  0  0  0  0
 18 26  1  0  0  0  0
 19 20  2  0  0  0  0
 19 36  1  0  0  0  0
 21 22  1  0  0  0  0
 21 27  1  0  0  0  0
 21 28  1  0  0  0  0
 22 23  1  0  0  0  0
 22 24  1  0  0  0  0
 22 29  1  0  0  0  0
 23 30  1  0  0  0  0
 23 31  1  0  0  0  0
 23 32  1  0  0  0  0
 24 33  1  0  0  0  0
 24 34  1  0  0  0  0
 24 35  1  0  0  0  0
 36 37  1  0  0  0  0
 36 41  1  0  0  0  0
 37 38  1  0  0  0  0
 37 40  1  0  0  0  0
 37 42  1  0  0  0  0
 38 39  2  0  0  0  0
 38 46  1  0  0  0  0
 40 43  1  0  0  0  0
 40 44  1  0  0  0  0
 40 45  1  0  0  0  0
 46 47  1  0  0  0  0
 46 48  1  0  0  0  0
 47 49  1  0  0  0  0
 47 50  1  0  0  0  0
 47 51  1  0  0  0  0
M  END
$$$$

  -OEChem-05262216553D

 51 50  0     1  0  0  0  0  0999 V2000
    1.2084   -3.1582   -3.6411 C   0  0  0  0  0  0  0  0  0  0  0  0
    0.3655   -3.2903   -2.7683 O   0  0  0  0  0  0  0  0  0  0  0  0
    1.8951   -4.3807   -4.2198 C   0  0  0  0  0  0  0  0  0  0  0  0
    2.9704   -4.3291   -4.0318 H   0  0  0  0  0  0  0  0  0  0  0  0
    1.5013   -5.2896   -3.7562 H   0  0  0  0  0  0  0  0  0  0  0  0
    1.7214   -4.4320   -5.2973 H   0  0  0  0  0  0  0  0  0  0  0  0
    1.5644   -1.9003   -4.0897 N   0  0  0  0  0  0  0  0  0  0  0  0
    1.1182   -0.6387   -3.4726 C   0  0  2  0  0  0  0  0  0  0  0  0
    1.5112   -0.5445   -1.9768 C   0  0  0  0  0  0  0  0  0  0  0  0
    2.7031   -0.5664   -1.7155 O   0  0  0  0  0  0  0  0  0  0  0  0
   -0.3774   -0.4062   -3.7486 C   0  0  0  0  0  0  0  0  0  0  0  0
    2.3771   -1.8639   -4.6985 H   0  0  0  0  0  0  0  0  0  0  0  0
    1.6559    0.1772   -3.9660 H   0  0  0  0  0  0  0  0  0  0  0  0
   -0.9976   -1.1678   -3.2686 H   0  0  0  0  0  0  0  0  0  0  0  0
   -0.6843    0.5766   -3.3776 H   0  0  0  0  0  0  0  0  0  0  0  0
   -0.5684   -0.4401   -4.8256 H   0  0  0  0  0  0  0  0  0  0  0  0
    0.5469   -0.4205   -0.9869 N   0  0  0  0  0  0  0  0  0  0  0  0
    0.6516   -0.3528    0.4944 C   0  0  2  0  0  0  0  0  0  0  0  0
    1.9909   -0.0779    1.2373 C   0  0  0  0  0  0  0  0  0  0  0  0
    1.9326    0.5976    2.2585 O   0  0  0  0  0  0  0  0  0  0  0  0
    0.0284   -1.6217    1.1271 C   0  0  0  0  0  0  0  0  0  0  0  0
   -1.5025   -1.8293    0.9706 C   0  0  0  0  0  0  0  0  0  0  0  0
   -1.8563   -3.2094    1.5407 C   0  0  0  0  0  0  0  0  0  0  0  0
   -2.0611   -1.7502   -0.4561 C   0  0  0  0  0  0  0  0  0  0  0  0
   -0.3914   -0.5809   -1.3401 H   0  0  0  0  0  0  0  0  0  0  0  0
    0.0214    0.4941    0.7850 H   0  0  0  0  0  0  0  0  0  0  0  0
    0.2432   -1.6167    2.2019 H   0  0  0  0  0  0  0  0  0  0  0  0
    0.5454   -2.4887    0.7011 H   0  0  0  0  0  0  0  0  0  0  0  0
   -2.0101   -1.0654    1.5696 H   0  0  0  0  0  0  0  0  0  0  0  0
   -1.3910   -4.0033    0.9471 H   0  0  0  0  0  0  0  0  0  0  0  0
   -2.9403   -3.3613    1.5348 H   0  0  0  0  0  0  0  0  0  0  0  0
   -1.5069   -3.2978    2.5742 H   0  0  0  0  0  0  0  0  0  0  0  0
   -1.4854   -2.3904   -1.1297 H   0  0  0  0  0  0  0  0  0  0  0  0
   -3.1034   -2.0837   -0.4766 H   0  0  0  0  0  0  0  0  0  0  0  0
   -2.0430   -0.7208   -0.8234 H   0  0  0  0  0  0  0  0  0  0  0  0
    3.1867   -0.6940    0.9160 N   0  0  0  0  0  0  0  0  0  0  0  0
    4.5122   -0.4719    1.5303 C   0  0  2  0  0  0  0  0  0  0  0  0
    4.6791   -1.0184    2.9671 C   0  0  0  0  0  0  0  0  0  0  0  0
    5.7135   -1.5974    3.2757 O   0  0  0  0  0  0  0  0  0  0  0  0
    4.9124    1.0079    1.4577 C   0  0  0  0  0  0  0  0  0  0  0  0
    3.1883   -1.0841   -0.0296 H   0  0  0  0  0  0  0  0  0  0  0  0
    5.2318   -1.0259    0.9187 H   0  0  0  0  0  0  0  0  0  0  0  0
    4.2995    1.6183    2.1273 H   0  0  0  0  0  0  0  0  0  0  0  0
    5.9597    1.1270    1.7522 H   0  0  0  0  0  0  0  0  0  0  0  0
    4.7942    1.3821    0.4362 H   0  0  0  0  0  0  0  0  0  0  0  0
    3.7016   -0.8391    3.9248 N   0  0  0  0  0  0  0  0  0  0  0  0
    3.8304   -1.2570    5.3130 C   0  0  0  0  0  0  0  0  0  0  0  0
    2.8995   -0.2709    3.6401 H   0  0  0  0  0  0  0  0  0  0  0  0
    4.6716   -0.7441    5.7906 H   0  0  0  0  0  0  0  0  0  0  0  0
    2.9171   -1.0154    5.8647 H   0  0  0  0  0  0  0  0  0  0  0  0
    3.9951   -2.3378    5.3732 H   0  0  0  0  0  0  0  0  0  0  0  0
  1  2  2  0  0  0  0
  1  3  1  0  0  0  0
  1  7  1  0  0  0  0
  3  4  1  0  0  0  0
  3  5  1  0  0  0  0
  3  6  1  0  0  0  0
  7  8  1  0  0  0  0
  7 12  1  0  0  0  0
  8  9  1  0  0  0  0
  8 11  1  0  0  0  0
  8 13  1  0  0  0  0
  9 10  2  0  0  0  0
  9 17  1  0  0  0  0
 11 14  1  0  0  0  0
 11 15  1  0  0  0  0
 11 16  1  0  0  0  0
 17 18  1  0  0  0  0
 17 25  1  0  0  0  0
 18 19  1  0  0  0  0
 18 21  1  0  0  0  0
 18 26  1  0  0  0  0
 19 20  2  0  0  0  0
 19 36  1  0  0  0  0
 21 22  1  0  0  0  0
 21 27  1  0  0  0  0
 21 28  1  0  0  0  0
 22 23  1  0  0  0  0
 22 24  1  0  0  0  0
 22 29  1  0  0  0  0
 23 30  1  0  0  0  0
 23 31  1  0  0  0  0
 23 32  1  0  0  0  0
 24 33  1  0  0  0  0
 24 34  1  0  0  0  0
 24 35  1  0  0  0  0
 36 37  1  0  0  0  0
 36 41  1  0  0  0  0
 37 38  1  0  0  0  0
 37 40  1  0  0  0  0
 37 42  1  0  0  0  0
 38 39  2  0  0  0  0
 38 46  1  0  0  0  0
 40 43  1  0  0  0  0
 40 44  1  0  0  0  0
 40 45  1  0  0  0  0
 46 47  1  0  0  0  0
 46 48  1  0  0  0  0
 47 49  1  0  0  0  0
 47 50  1  0  0  0  0
 47 51  1  0  0  0  0
M  END
$$$$

  -OEChem-05262216553D

 51 50  0     1  0  0  0  0  0999 V2000
    1.2523   -3.1735   -3.6616 C   0  0  0  0  0  0  0  0  0  0  0  0
    0.4147   -3.2886   -2.7815 O   0  0  0  0  0  0  0  0  0  0  0  0
    1.9511   -4.4059   -4.2041 C   0  0  0  0  0  0  0  0  0  0  0  0
    3.0279   -4.3297   -4.0333 H   0  0  0  0  0  0  0  0  0  0  0  0
    1.5791   -5.3031   -3.7011 H   0  0  0  0  0  0  0  0  0  0  0  0
    1.7641   -4.5010   -5.2765 H   0  0  0  0  0  0  0  0  0  0  0  0
    1.5943   -1.9251   -4.1460 N   0  0  0  0  0  0  0  0  0  0  0  0
    1.1428   -0.6509   -3.5588 C   0  0  2  0  0  0  0  0  0  0  0  0
    1.5456   -0.5127   -2.0689 C   0  0  0  0  0  0  0  0  0  0  0  0
    2.7406   -0.4738   -1.8285 O   0  0  0  0  0  0  0  0  0  0  0  0
   -0.3557   -0.4349   -3.8303 C   0  0  0  0  0  0  0  0  0  0  0  0
    2.4036   -1.8982   -4.7598 H   0  0  0  0  0  0  0  0  0  0  0  0
    1.6708    0.1556   -4.0775 H   0  0  0  0  0  0  0  0  0  0  0  0
   -0.9674   -1.1968   -3.3407 H   0  0  0  0  0  0  0  0  0  0  0  0
   -0.6694    0.5491   -3.4681 H   0  0  0  0  0  0  0  0  0  0  0  0
   -0.5509   -0.4827   -4.9060 H   0  0  0  0  0  0  0  0  0  0  0  0
    0.5859   -0.4033   -1.0718 N   0  0  0  0  0  0  0  0  0  0  0  0
    0.6804   -0.3438    0.4126 C   0  0  2  0  0  0  0  0  0  0  0  0
    1.9927   -0.0652    1.2074 C   0  0  0  0  0  0  0  0  0  0  0  0
    1.8635    0.4161    2.3277 O   0  0  0  0  0  0  0  0  0  0  0  0
    0.0393   -1.6214    1.0158 C   0  0  0  0  0  0  0  0  0  0  0  0
   -1.4912   -1.8191    0.8383 C   0  0  0  0  0  0  0  0  0  0  0  0
   -1.8573   -3.2073    1.3799 C   0  0  0  0  0  0  0  0  0  0  0  0
   -2.0465   -1.7055   -0.5865 C   0  0  0  0  0  0  0  0  0  0  0  0
   -0.3453   -0.6065   -1.4223 H   0  0  0  0  0  0  0  0  0  0  0  0
    0.0424    0.4995    0.6967 H   0  0  0  0  0  0  0  0  0  0  0  0
    0.2382   -1.6417    2.0931 H   0  0  0  0  0  0  0  0  0  0  0  0
    0.5565   -2.4839    0.5800 H   0  0  0  0  0  0  0  0  0  0  0  0
   -1.9980   -1.0652    1.4505 H   0  0  0  0  0  0  0  0  0  0  0  0
   -1.3983   -3.9928    0.7703 H   0  0  0  0  0  0  0  0  0  0  0  0
   -2.9425   -3.3496    1.3696 H   0  0  0  0  0  0  0  0  0  0  0  0
   -1.5099   -3.3204    2.4117 H   0  0  0  0  0  0  0  0  0  0  0  0
   -1.4866   -2.3497   -1.2687 H   0  0  0  0  0  0  0  0  0  0  0  0
   -3.0962   -2.0146   -0.6115 H   0  0  0  0  0  0  0  0  0  0  0  0
   -2.0054   -0.6716   -0.9387 H   0  0  0  0  0  0  0  0  0  0  0  0
    3.2668   -0.4037    0.7928 N   0  0  0  0  0  0  0  0  0  0  0  0
    4.5534   -0.1193    1.4610 C   0  0  2  0  0  0  0  0  0  0  0  0
    4.8118   -0.9056    2.7669 C   0  0  0  0  0  0  0  0  0  0  0  0
    5.9252   -1.3700    2.9806 O   0  0  0  0  0  0  0  0  0  0  0  0
    4.7401    1.3872    1.6857 C   0  0  0  0  0  0  0  0  0  0  0  0
    3.3163   -0.7144   -0.1798 H   0  0  0  0  0  0  0  0  0  0  0  0
    5.3370   -0.4362    0.7655 H   0  0  0  0  0  0  0  0  0  0  0  0
    4.0512    1.7630    2.4475 H   0  0  0  0  0  0  0  0  0  0  0  0
    5.7620    1.5909    2.0205 H   0  0  0  0  0  0  0  0  0  0  0  0
    4.5648    1.9346    0.7547 H   0  0  0  0  0  0  0  0  0  0  0  0
    3.8266   -1.0640    3.7209 N   0  0  0  0  0  0  0  0  0  0  0  0
    4.0385   -1.6997    5.0135 C   0  0  0  0  0  0  0  0  0  0  0  0
    2.9491   -0.5699    3.5383 H   0  0  0  0  0  0  0  0  0  0  0  0
    4.3845   -2.7302    4.8809 H   0  0  0  0  0  0  0  0  0  0  0  0
    4.7863   -1.1481    5.5927 H   0  0  0  0  0  0  0  0  0  0  0  0
    3.1036   -1.7195    5.5817 H   0  0  0  0  0  0  0  0  0  0  0  0
  1  2  2  0  0  0  0
  1  3  1  0  0  0  0
  1  7  1  0  0  0  0
  3  4  1  0  0  0  0
  3  5  1  0  0  0  0
  3  6  1  0  0  0  0
  7  8  1  0  0  0  0
  7 12  1  0  0  0  0
  8  9  1  0  0  0  0
  8 11  1  0  0  0  0
  8 13  1  0  0  0  0
  9 10  2  0  0  0  0
  9 17  1  0  0  0  0
 11 14  1  0  0  0  0
 11 15  1  0  0  0  0
 11 16  1  0  0  0  0
 17 18  1  0  0  0  0
 17 25  1  0  0  0  0
 18 19  1  0  0  0  0
 18 21  1  0  0  0  0
 18 26  1  0  0  0  0
 19 20  2  0  0  0  0
 19 36  1  0  0  0  0
 21 22  1  0  0  0  0
 21 27  1  0  0  0  0
 21 28  1  0  0  0  0
 22 23  1  0  0  0  0
 22 24  1  0  0  0  0
 22 29  1  0  0  0  0
 23 30  1  0  0  0  0
 23 31  1  0  0  0  0
 23 32  1  0  0  0  0
 24 33  1  0  0  0  0
 24 34  1  0  0  0  0
 24 35  1  0  0  0  0
 36 37  1  0  0  0  0
 36 41  1  0  0  0  0
 37 38  1  0  0  0  0
 37 40  1  0  0  0  0
 37 42  1  0  0  0  0
 38 39  2  0  0  0  0
 38 46  1  0  0  0  0
 40 43  1  0  0  0  0
 40 44  1  0  0  0  0
 40 45  1  0  0  0  0
 46 47  1  0  0  0  0
 46 48  1  0  0  0  0
 47 49  1  0  0  0  0
 47 50  1  0  0  0  0
 47 51  1  0  0  0  0
M  END
$$$$

  -OEChem-05262216553D

 51 50  0     1  0  0  0  0  0999 V2000
    1.3057   -3.1741   -3.8435 C   0  0  0  0  0  0  0  0  0  0  0  0
    0.4230   -3.3271   -3.0151 O   0  0  0  0  0  0  0  0  0  0  0  0
    2.0193   -4.3835   -4.4176 C   0  0  0  0  0  0  0  0  0  0  0  0
    3.0790   -4.3521   -4.1522 H   0  0  0  0  0  0  0  0  0  0  0  0
    1.5841   -5.3034   -4.0167 H   0  0  0  0  0  0  0  0  0  0  0  0
    1.9223   -4.3936   -5.5059 H   0  0  0  0  0  0  0  0  0  0  0  0
    1.6821   -1.9062   -4.2444 N   0  0  0  0  0  0  0  0  0  0  0  0
    1.2246   -0.6601   -3.6037 C   0  0  2  0  0  0  0  0  0  0  0  0
    1.5991   -0.5976   -2.1011 C   0  0  0  0  0  0  0  0  0  0  0  0
    2.7875   -0.6488   -1.8324 O   0  0  0  0  0  0  0  0  0  0  0  0
   -0.2660   -0.4149   -3.8964 C   0  0  0  0  0  0  0  0  0  0  0  0
    2.5278   -1.8597   -4.8057 H   0  0  0  0  0  0  0  0  0  0  0  0
    1.7696    0.1659   -4.0713 H   0  0  0  0  0  0  0  0  0  0  0  0
   -0.8973   -1.1838   -3.4436 H   0  0  0  0  0  0  0  0  0  0  0  0
   -0.5741    0.5608   -3.5081 H   0  0  0  0  0  0  0  0  0  0  0  0
   -0.4410   -0.4240   -4.9766 H   0  0  0  0  0  0  0  0  0  0  0  0
    0.6231   -0.4677   -1.1227 N   0  0  0  0  0  0  0  0  0  0  0  0
    0.6765   -0.3354    0.3599 C   0  0  2  0  0  0  0  0  0  0  0  0
    1.9554    0.0196    1.1847 C   0  0  0  0  0  0  0  0  0  0  0  0
    1.7760    0.3705    2.3460 O   0  0  0  0  0  0  0  0  0  0  0  0
    0.0533   -1.6139    0.9868 C   0  0  0  0  0  0  0  0  0  0  0  0
   -1.4639   -1.8679    0.7681 C   0  0  0  0  0  0  0  0  0  0  0  0
   -1.8006   -3.2488    1.3478 C   0  0  0  0  0  0  0  0  0  0  0  0
   -1.9728   -1.8303   -0.6786 C   0  0  0  0  0  0  0  0  0  0  0  0
   -0.3090   -0.6188   -1.4961 H   0  0  0  0  0  0  0  0  0  0  0  0
    0.0063    0.4983    0.5923 H   0  0  0  0  0  0  0  0  0  0  0  0
    0.2140   -1.5997    2.0701 H   0  0  0  0  0  0  0  0  0  0  0  0
    0.6112   -2.4723    0.5957 H   0  0  0  0  0  0  0  0  0  0  0  0
   -2.0169   -1.1096    1.3332 H   0  0  0  0  0  0  0  0  0  0  0  0
   -1.2855   -4.0381    0.7904 H   0  0  0  0  0  0  0  0  0  0  0  0
   -2.8780   -3.4351    1.2979 H   0  0  0  0  0  0  0  0  0  0  0  0
   -1.4952   -3.3083    2.3972 H   0  0  0  0  0  0  0  0  0  0  0  0
   -1.3593   -2.4705   -1.3175 H   0  0  0  0  0  0  0  0  0  0  0  0
   -3.0057   -2.1890   -0.7290 H   0  0  0  0  0  0  0  0  0  0  0  0
   -1.9665   -0.8087   -1.0669 H   0  0  0  0  0  0  0  0  0  0  0  0
    3.2604   -0.0209    0.7319 N   0  0  0  0  0  0  0  0  0  0  0  0
    4.5017    0.3177    1.4589 C   0  0  2  0  0  0  0  0  0  0  0  0
    4.8659   -0.6454    2.6119 C   0  0  0  0  0  0  0  0  0  0  0  0
    6.0189   -1.0410    2.7295 O   0  0  0  0  0  0  0  0  0  0  0  0
    4.4882    1.7737    1.9449 C   0  0  0  0  0  0  0  0  0  0  0  0
    3.3653   -0.3460   -0.2306 H   0  0  0  0  0  0  0  0  0  0  0  0
    5.3164    0.2344    0.7326 H   0  0  0  0  0  0  0  0  0  0  0  0
    3.7736    1.9143    2.7610 H   0  0  0  0  0  0  0  0  0  0  0  0
    5.4806    2.0543    2.3110 H   0  0  0  0  0  0  0  0  0  0  0  0
    4.2186    2.4453    1.1244 H   0  0  0  0  0  0  0  0  0  0  0  0
    3.9201   -1.0541    3.5303 N   0  0  0  0  0  0  0  0  0  0  0  0
    4.2002   -1.9263    4.6612 C   0  0  0  0  0  0  0  0  0  0  0  0
    2.9894   -0.6421    3.4261 H   0  0  0  0  0  0  0  0  0  0  0  0
    4.5669   -2.8972    4.3126 H   0  0  0  0  0  0  0  0  0  0  0  0
    4.9563   -1.4766    5.3130 H   0  0  0  0  0  0  0  0  0  0  0  0
    3.2899   -2.0896    5.2460 H   0  0  0  0  0  0  0  0  0  0  0  0
  1  2  2  0  0  0  0
  1  3  1  0  0  0  0
  1  7  1  0  0  0  0
  3  4  1  0  0  0  0
  3  5  1  0  0  0  0
  3  6  1  0  0  0  0
  7  8  1  0  0  0  0
  7 12  1  0  0  0  0
  8  9  1  0  0  0  0
  8 11  1  0  0  0  0
  8 13  1  0  0  0  0
  9 10  2  0  0  0  0
  9 17  1  0  0  0  0
 11 14  1  0  0  0  0
 11 15  1  0  0  0  0
 11 16  1  0  0  0  0
 17 18  1  0  0  0  0
 17 25  1  0  0  0  0
 18 19  1  0  0  0  0
 18 21  1  0  0  0  0
 18 26  1  0  0  0  0
 19 20  2  0  0  0  0
 19 36  1  0  0  0  0
 21 22  1  0  0  0  0
 21 27  1  0  0  0  0
 21 28  1  0  0  0  0
 22 23  1  0  0  0  0
 22 24  1  0  0  0  0
 22 29  1  0  0  0  0
 23 30  1  0  0  0  0
 23 31  1  0  0  0  0
 23 32  1  0  0  0  0
 24 33  1  0  0  0  0
 24 34  1  0  0  0  0
 24 35  1  0  0  0  0
 36 37  1  0  0  0  0
 36 41  1  0  0  0  0
 37 38  1  0  0  0  0
 37 40  1  0  0  0  0
 37 42  1  0  0  0  0
 38 39  2  0  0  0  0
 38 46  1  0  0  0  0
 40 43  1  0  0  0  0
 40 44  1  0  0  0  0
 40 45  1  0  0  0  0
 46 47  1  0  0  0  0
 46 48  1  0  0  0  0
 47 49  1  0  0  0  0
 47 50  1  0  0  0  0
 47 51  1  0  0  0  0
M  END
$$$$

  -OEChem-05262216553D

 51 50  0     1  0  0  0  0  0999 V2000
    2.6350   -3.0618   -3.8842 C   0  0  0  0  0  0  0  0  0  0  0  0
    1.4495   -3.2700   -3.6801 O   0  0  0  0  0  0  0  0  0  0  0  0
    3.4528   -4.0836   -4.6516 C   0  0  0  0  0  0  0  0  0  0  0  0
    4.2649   -4.4593   -4.0245 H   0  0  0  0  0  0  0  0  0  0  0  0
    2.8208   -4.9251   -4.9492 H   0  0  0  0  0  0  0  0  0  0  0  0
    3.8748   -3.6268   -5.5500 H   0  0  0  0  0  0  0  0  0  0  0  0
    3.2497   -1.9148   -3.4143 N   0  0  0  0  0  0  0  0  0  0  0  0
    2.5970   -0.9007   -2.5654 C   0  0  2  0  0  0  0  0  0  0  0  0
    2.0171   -1.5052   -1.2584 C   0  0  0  0  0  0  0  0  0  0  0  0
    2.7013   -2.2207   -0.5370 O   0  0  0  0  0  0  0  0  0  0  0  0
    1.5595   -0.1231   -3.3924 C   0  0  0  0  0  0  0  0  0  0  0  0
    4.2569   -1.8657   -3.5327 H   0  0  0  0  0  0  0  0  0  0  0  0
    3.3603   -0.1807   -2.2609 H   0  0  0  0  0  0  0  0  0  0  0  0
    0.7208   -0.7647   -3.6793 H   0  0  0  0  0  0  0  0  0  0  0  0
    1.1649    0.7190   -2.8165 H   0  0  0  0  0  0  0  0  0  0  0  0
    2.0205    0.2706   -4.3031 H   0  0  0  0  0  0  0  0  0  0  0  0
    0.6775   -1.4808   -0.9659 N   0  0  0  0  0  0  0  0  0  0  0  0
    0.0133   -0.4625   -0.1275 C   0  0  2  0  0  0  0  0  0  0  0  0
    0.7180    0.8795    0.2353 C   0  0  0  0  0  0  0  0  0  0  0  0
    0.0004    1.8450    0.4334 O   0  0  0  0  0  0  0  0  0  0  0  0
   -0.4591   -1.1135    1.1962 C   0  0  0  0  0  0  0  0  0  0  0  0
   -1.5777   -2.1862    1.1137 C   0  0  0  0  0  0  0  0  0  0  0  0
   -1.7657   -2.7826    2.5156 C   0  0  0  0  0  0  0  0  0  0  0  0
   -1.3296   -3.3502    0.1416 C   0  0  0  0  0  0  0  0  0  0  0  0
    0.4001   -2.4205   -0.6956 H   0  0  0  0  0  0  0  0  0  0  0  0
   -0.8815   -0.1584   -0.6811 H   0  0  0  0  0  0  0  0  0  0  0  0
   -0.8201   -0.3218    1.8631 H   0  0  0  0  0  0  0  0  0  0  0  0
    0.4140   -1.5624    1.6770 H   0  0  0  0  0  0  0  0  0  0  0  0
   -2.5071   -1.6895    0.8144 H   0  0  0  0  0  0  0  0  0  0  0  0
   -0.8630   -3.3129    2.8361 H   0  0  0  0  0  0  0  0  0  0  0  0
   -2.6038   -3.4866    2.5244 H   0  0  0  0  0  0  0  0  0  0  0  0
   -1.9797   -1.9918    3.2416 H   0  0  0  0  0  0  0  0  0  0  0  0
   -0.3463   -3.7992    0.3158 H   0  0  0  0  0  0  0  0  0  0  0  0
   -2.0892   -4.1269    0.2761 H   0  0  0  0  0  0  0  0  0  0  0  0
   -1.3943   -3.0109   -0.8964 H   0  0  0  0  0  0  0  0  0  0  0  0
    1.9736    1.3235   -0.1166 N   0  0  0  0  0  0  0  0  0  0  0  0
    3.1763    0.8311    0.5883 C   0  0  2  0  0  0  0  0  0  0  0  0
    2.9312    0.1707    1.9711 C   0  0  0  0  0  0  0  0  0  0  0  0
    2.6233    0.8452    2.9438 O   0  0  0  0  0  0  0  0  0  0  0  0
    4.1000    2.0439    0.7492 C   0  0  0  0  0  0  0  0  0  0  0  0
    1.9257    2.3406   -0.1361 H   0  0  0  0  0  0  0  0  0  0  0  0
    3.7071    0.1058   -0.0293 H   0  0  0  0  0  0  0  0  0  0  0  0
    3.6170    2.8208    1.3518 H   0  0  0  0  0  0  0  0  0  0  0  0
    5.0290    1.7493    1.2475 H   0  0  0  0  0  0  0  0  0  0  0  0
    4.3516    2.4671   -0.2282 H   0  0  0  0  0  0  0  0  0  0  0  0
    3.0852   -1.1935    2.1253 N   0  0  0  0  0  0  0  0  0  0  0  0
    2.8423   -1.8903    3.3823 C   0  0  0  0  0  0  0  0  0  0  0  0
    3.1800   -1.7486    1.2694 H   0  0  0  0  0  0  0  0  0  0  0  0
    3.5053   -1.5081    4.1654 H   0  0  0  0  0  0  0  0  0  0  0  0
    1.8041   -1.7569    3.7038 H   0  0  0  0  0  0  0  0  0  0  0  0
    3.0332   -2.9609    3.2606 H   0  0  0  0  0  0  0  0  0  0  0  0
  1  2  2  0  0  0  0
  1  3  1  0  0  0  0
  1  7  1  0  0  0  0
  3  4  1  0  0  0  0
  3  5  1  0  0  0  0
  3  6  1  0  0  0  0
  7  8  1  0  0  0  0
  7 12  1  0  0  0  0
  8  9  1  0  0  0  0
  8 11  1  0  0  0  0
  8 13  1  0  0  0  0
  9 10  2  0  0  0  0
  9 17  1  0  0  0  0
 11 14  1  0  0  0  0
 11 15  1  0  0  0  0
 11 16  1  0  0  0  0
 17 18  1  0  0  0  0
 17 25  1  0  0  0  0
 18 19  1  0  0  0  0
 18 21  1  0  0  0  0
 18 26  1  0  0  0  0
 19 20  2  0  0  0  0
 19 36  1  0  0  0  0
 21 22  1  0  0  0  0
 21 27  1  0  0  0  0
 21 28  1  0  0  0  0
 22 23  1  0  0  0  0
 22 24  1  0  0  0  0
 22 29  1  0  0  0  0
 23 30  1  0  0  0  0
 23 31  1  0  0  0  0
 23 32  1  0  0  0  0
 24 33  1  0  0  0  0
 24 34  1  0  0  0  0
 24 35  1  0  0  0  0
 36 37  1  0  0  0  0
 36 41  1  0  0  0  0
 37 38  1  0  0  0  0
 37 40  1  0  0  0  0
 37 42  1  0  0  0  0
 38 39  2  0  0  0  0
 38 46  1  0  0  0  0
 40 43  1  0  0  0  0
 40 44  1  0  0  0  0
 40 45  1  0  0  0  0
 46 47  1  0  0  0  0
 46 48  1  0  0  0  0
 47 49  1  0  0  0  0
 47 50  1  0  0  0  0
 47 51  1  0  0  0  0
M  END
$$$$

  -OEChem-05262216553D

 51 50  0     1  0  0  0  0  0999 V2000
    1.1615   -3.1573   -3.8302 C   0  0  0  0  0  0  0  0  0  0  0  0
    0.2606   -3.2812   -3.0167 O   0  0  0  0  0  0  0  0  0  0  0  0
    1.8296   -4.3899   -4.4103 C   0  0  0  0  0  0  0  0  0  0  0  0
    2.8901   -4.3988   -4.1457 H   0  0  0  0  0  0  0  0  0  0  0  0
    1.3605   -5.2953   -4.0143 H   0  0  0  0  0  0  0  0  0  0  0  0
    1.7329   -4.3919   -5.4985 H   0  0  0  0  0  0  0  0  0  0  0  0
    1.5970   -1.9024   -4.2117 N   0  0  0  0  0  0  0  0  0  0  0  0
    1.1837   -0.6436   -3.5656 C   0  0  2  0  0  0  0  0  0  0  0  0
    1.5567   -0.6013   -2.0617 C   0  0  0  0  0  0  0  0  0  0  0  0
    2.7422   -0.6821   -1.7859 O   0  0  0  0  0  0  0  0  0  0  0  0
   -0.2957   -0.3380   -3.8590 C   0  0  0  0  0  0  0  0  0  0  0  0
    2.4554   -1.8870   -4.7555 H   0  0  0  0  0  0  0  0  0  0  0  0
    1.7611    0.1627   -4.0292 H   0  0  0  0  0  0  0  0  0  0  0  0
   -0.9591   -1.0772   -3.4025 H   0  0  0  0  0  0  0  0  0  0  0  0
   -0.5620    0.6514   -3.4746 H   0  0  0  0  0  0  0  0  0  0  0  0
   -0.4714   -0.3437   -4.9392 H   0  0  0  0  0  0  0  0  0  0  0  0
    0.5874   -0.4610   -1.0782 N   0  0  0  0  0  0  0  0  0  0  0  0
    0.6709   -0.3158    0.4018 C   0  0  2  0  0  0  0  0  0  0  0  0
    1.9909    0.0478    1.1632 C   0  0  0  0  0  0  0  0  0  0  0  0
    1.9732    0.0355    2.3891 O   0  0  0  0  0  0  0  0  0  0  0  0
    0.0259   -1.5846    1.0355 C   0  0  0  0  0  0  0  0  0  0  0  0
   -1.4996   -1.8061    0.8358 C   0  0  0  0  0  0  0  0  0  0  0  0
   -1.8588   -3.1811    1.4171 C   0  0  0  0  0  0  0  0  0  0  0  0
   -2.0317   -1.7493   -0.6016 C   0  0  0  0  0  0  0  0  0  0  0  0
   -0.3502   -0.6085   -1.4395 H   0  0  0  0  0  0  0  0  0  0  0  0
    0.0215    0.5297    0.6470 H   0  0  0  0  0  0  0  0  0  0  0  0
    0.1895   -1.5800    2.1174 H   0  0  0  0  0  0  0  0  0  0  0  0
    0.5617   -2.4537    0.6379 H   0  0  0  0  0  0  0  0  0  0  0  0
   -2.0271   -1.0388    1.4128 H   0  0  0  0  0  0  0  0  0  0  0  0
   -1.3781   -3.9806    0.8437 H   0  0  0  0  0  0  0  0  0  0  0  0
   -2.9417   -3.3389    1.3925 H   0  0  0  0  0  0  0  0  0  0  0  0
   -1.5295   -3.2549    2.4584 H   0  0  0  0  0  0  0  0  0  0  0  0
   -1.4427   -2.3982   -1.2543 H   0  0  0  0  0  0  0  0  0  0  0  0
   -3.0725   -2.0868   -0.6360 H   0  0  0  0  0  0  0  0  0  0  0  0
   -2.0105   -0.7253   -0.9837 H   0  0  0  0  0  0  0  0  0  0  0  0
    3.1283    0.5574    0.5621 N   0  0  0  0  0  0  0  0  0  0  0  0
    4.3764    1.0236    1.2038 C   0  0  2  0  0  0  0  0  0  0  0  0
    5.1904   -0.0659    1.9402 C   0  0  0  0  0  0  0  0  0  0  0  0
    6.3969   -0.1514    1.7476 O   0  0  0  0  0  0  0  0  0  0  0  0
    4.1181    2.2255    2.1230 C   0  0  0  0  0  0  0  0  0  0  0  0
    3.1791    0.3677   -0.4403 H   0  0  0  0  0  0  0  0  0  0  0  0
    5.0218    1.3792    0.3943 H   0  0  0  0  0  0  0  0  0  0  0  0
    3.5642    1.9303    3.0188 H   0  0  0  0  0  0  0  0  0  0  0  0
    5.0695    2.6633    2.4404 H   0  0  0  0  0  0  0  0  0  0  0  0
    3.5441    2.9914    1.5936 H   0  0  0  0  0  0  0  0  0  0  0  0
    4.5937   -0.9213    2.8442 N   0  0  0  0  0  0  0  0  0  0  0  0
    5.3003   -1.9570    3.5838 C   0  0  0  0  0  0  0  0  0  0  0  0
    3.5886   -0.7919    2.9864 H   0  0  0  0  0  0  0  0  0  0  0  0
    5.7076   -2.7061    2.8971 H   0  0  0  0  0  0  0  0  0  0  0  0
    6.1229   -1.5225    4.1614 H   0  0  0  0  0  0  0  0  0  0  0  0
    4.6170   -2.4565    4.2771 H   0  0  0  0  0  0  0  0  0  0  0  0
  1  2  2  0  0  0  0
  1  3  1  0  0  0  0
  1  7  1  0  0  0  0
  3  4  1  0  0  0  0
  3  5  1  0  0  0  0
  3  6  1  0  0  0  0
  7  8  1  0  0  0  0
  7 12  1  0  0  0  0
  8  9  1  0  0  0  0
  8 11  1  0  0  0  0
  8 13  1  0  0  0  0
  9 10  2  0  0  0  0
  9 17  1  0  0  0  0
 11 14  1  0  0  0  0
 11 15  1  0  0  0  0
 11 16  1  0  0  0  0
 17 18  1  0  0  0  0
 17 25  1  0  0  0  0
 18 19  1  0  0  0  0
 18 21  1  0  0  0  0
 18 26  1  0  0  0  0
 19 20  2  0  0  0  0
 19 36  1  0  0  0  0
 21 22  1  0  0  0  0
 21 27  1  0  0  0  0
 21 28  1  0  0  0  0
 22 23  1  0  0  0  0
 22 24  1  0  0  0  0
 22 29  1  0  0  0  0
 23 30  1  0  0  0  0
 23 31  1  0  0  0  0
 23 32  1  0  0  0  0
 24 33  1  0  0  0  0
 24 34  1  0  0  0  0
 24 35  1  0  0  0  0
 36 37  1  0  0  0  0
 36 41  1  0  0  0  0
 37 38  1  0  0  0  0
 37 40  1  0  0  0  0
 37 42  1  0  0  0  0
 38 39  2  0  0  0  0
 38 46  1  0  0  0  0
 40 43  1  0  0  0  0
 40 44  1  0  0  0  0
 40 45  1  0  0  0  0
 46 47  1  0  0  0  0
 46 48  1  0  0  0  0
 47 49  1  0  0  0  0
 47 50  1  0  0  0  0
 47 51  1  0  0  0  0
M  END
$$$$

  -OEChem-05262216553D

 51 50  0     1  0  0  0  0  0999 V2000
    1.2433   -3.2802   -3.3485 C   0  0  0  0  0  0  0  0  0  0  0  0
    0.3864   -3.3157   -2.4806 O   0  0  0  0  0  0  0  0  0  0  0  0
    1.9876   -4.5473   -3.7251 C   0  0  0  0  0  0  0  0  0  0  0  0
    3.0521   -4.4338   -3.5055 H   0  0  0  0  0  0  0  0  0  0  0  0
    1.6006   -5.3963   -3.1543 H   0  0  0  0  0  0  0  0  0  0  0  0
    1.8612   -4.7533   -4.7905 H   0  0  0  0  0  0  0  0  0  0  0  0
    1.5627   -2.0877   -3.9702 N   0  0  0  0  0  0  0  0  0  0  0  0
    1.0760   -0.7654   -3.5378 C   0  0  2  0  0  0  0  0  0  0  0  0
    1.4595   -0.4526   -2.0701 C   0  0  0  0  0  0  0  0  0  0  0  0
    2.6444   -0.2753   -1.8428 O   0  0  0  0  0  0  0  0  0  0  0  0
   -0.4223   -0.6088   -3.8459 C   0  0  0  0  0  0  0  0  0  0  0  0
    2.3894   -2.1107   -4.5609 H   0  0  0  0  0  0  0  0  0  0  0  0
    1.5948   -0.0127   -4.1402 H   0  0  0  0  0  0  0  0  0  0  0  0
   -1.0259   -1.3312   -3.2916 H   0  0  0  0  0  0  0  0  0  0  0  0
   -0.7598    0.3990   -3.5848 H   0  0  0  0  0  0  0  0  0  0  0  0
   -0.6023   -0.7648   -4.9140 H   0  0  0  0  0  0  0  0  0  0  0  0
    0.5010   -0.3711   -1.0686 N   0  0  0  0  0  0  0  0  0  0  0  0
    0.6362   -0.2482    0.4096 C   0  0  2  0  0  0  0  0  0  0  0  0
    1.9813    0.1563    1.1047 C   0  0  0  0  0  0  0  0  0  0  0  0
    2.1675   -0.1347    2.2808 O   0  0  0  0  0  0  0  0  0  0  0  0
    0.0108   -1.5205    1.0567 C   0  0  0  0  0  0  0  0  0  0  0  0
   -1.5236   -1.7303    0.9110 C   0  0  0  0  0  0  0  0  0  0  0  0
   -1.8716   -3.1081    1.4910 C   0  0  0  0  0  0  0  0  0  0  0  0
   -2.1239   -1.6424   -0.4975 C   0  0  0  0  0  0  0  0  0  0  0  0
   -0.3956   -0.7363   -1.3781 H   0  0  0  0  0  0  0  0  0  0  0  0
   -0.0151    0.5864    0.6854 H   0  0  0  0  0  0  0  0  0  0  0  0
    0.2094   -1.5214    2.1326 H   0  0  0  0  0  0  0  0  0  0  0  0
    0.5292   -2.3899    0.6369 H   0  0  0  0  0  0  0  0  0  0  0  0
   -2.0185   -0.9671    1.5211 H   0  0  0  0  0  0  0  0  0  0  0  0
   -1.4183   -3.9040    0.8908 H   0  0  0  0  0  0  0  0  0  0  0  0
   -2.9557   -3.2577    1.5037 H   0  0  0  0  0  0  0  0  0  0  0  0
   -1.5049   -3.1962    2.5186 H   0  0  0  0  0  0  0  0  0  0  0  0
   -1.6005   -2.3138   -1.1813 H   0  0  0  0  0  0  0  0  0  0  0  0
   -3.1789   -1.9336   -0.4780 H   0  0  0  0  0  0  0  0  0  0  0  0
   -2.0781   -0.6185   -0.8781 H   0  0  0  0  0  0  0  0  0  0  0  0
    2.9179    0.9798    0.5037 N   0  0  0  0  0  0  0  0  0  0  0  0
    4.1658    1.5211    1.0840 C   0  0  2  0  0  0  0  0  0  0  0  0
    5.2508    0.4720    1.4223 C   0  0  0  0  0  0  0  0  0  0  0  0
    6.4206    0.7027    1.1408 O   0  0  0  0  0  0  0  0  0  0  0  0
    3.8759    2.4151    2.2979 C   0  0  0  0  0  0  0  0  0  0  0  0
    2.8758    0.9446   -0.5168 H   0  0  0  0  0  0  0  0  0  0  0  0
    4.6063    2.1655    0.3165 H   0  0  0  0  0  0  0  0  0  0  0  0
    3.5354    1.8256    3.1538 H   0  0  0  0  0  0  0  0  0  0  0  0
    4.7845    2.9489    2.5936 H   0  0  0  0  0  0  0  0  0  0  0  0
    3.1053    3.1515    2.0518 H   0  0  0  0  0  0  0  0  0  0  0  0
    4.9379   -0.7016    2.0779 N   0  0  0  0  0  0  0  0  0  0  0  0
    5.9169   -1.6995    2.4829 C   0  0  0  0  0  0  0  0  0  0  0  0
    3.9601   -0.8067    2.3605 H   0  0  0  0  0  0  0  0  0  0  0  0
    6.4745   -2.0624    1.6133 H   0  0  0  0  0  0  0  0  0  0  0  0
    6.6229   -1.2734    3.2029 H   0  0  0  0  0  0  0  0  0  0  0  0
    5.4144   -2.5510    2.9512 H   0  0  0  0  0  0  0  0  0  0  0  0
  1  2  2  0  0  0  0
  1  3  1  0  0  0  0
  1  7  1  0  0  0  0
  3  4  1  0  0  0  0
  3  5  1  0  0  0  0
  3  6  1  0  0  0  0
  7  8  1  0  0  0  0
  7 12  1  0  0  0  0
  8  9  1  0  0  0  0
  8 11  1  0  0  0  0
  8 13  1  0  0  0  0
  9 10  2  0  0  0  0
  9 17  1  0  0  0  0
 11 14  1  0  0  0  0
 11 15  1  0  0  0  0
 11 16  1  0  0  0  0
 17 18  1  0  0  0  0
 17 25  1  0  0  0  0
 18 19  1  0  0  0  0
 18 21  1  0  0  0  0
 18 26  1  0  0  0  0
 19 20  2  0  0  0  0
 19 36  1  0  0  0  0
 21 22  1  0  0  0  0
 21 27  1  0  0  0  0
 21 28  1  0  0  0  0
 22 23  1  0  0  0  0
 22 24  1  0  0  0  0
 22 29  1  0  0  0  0
 23 30  1  0  0  0  0
 23 31  1  0  0  0  0
 23 32  1  0  0  0  0
 24 33  1  0  0  0  0
 24 34  1  0  0  0  0
 24 35  1  0  0  0  0
 36 37  1  0  0  0  0
 36 41  1  0  0  0  0
 37 38  1  0  0  0  0
 37 40  1  0  0  0  0
 37 42  1  0  0  0  0
 38 39  2  0  0  0  0
 38 46  1  0  0  0  0
 40 43  1  0  0  0  0
 40 44  1  0  0  0  0
 40 45  1  0  0  0  0
 46 47  1  0  0  0  0
 46 48  1  0  0  0  0
 47 49  1  0  0  0  0
 47 50  1  0  0  0  0
 47 51  1  0  0  0  0
M  END
$$$$

  -OEChem-05262216553D

 51 50  0     1  0  0  0  0  0999 V2000
    1.8614   -2.8293   -1.9116 C   0  0  0  0  0  0  0  0  0  0  0  0
    0.7467   -3.3045   -2.0637 O   0  0  0  0  0  0  0  0  0  0  0  0
    2.8639   -3.5515   -1.0321 C   0  0  0  0  0  0  0  0  0  0  0  0
    3.0716   -2.9525   -0.1412 H   0  0  0  0  0  0  0  0  0  0  0  0
    2.4659   -4.5213   -0.7215 H   0  0  0  0  0  0  0  0  0  0  0  0
    3.7962   -3.7102   -1.5791 H   0  0  0  0  0  0  0  0  0  0  0  0
    2.2165   -1.6135   -2.4597 N   0  0  0  0  0  0  0  0  0  0  0  0
    1.3272   -0.5891   -3.0360 C   0  0  2  0  0  0  0  0  0  0  0  0
    0.8725    0.4000   -1.9467 C   0  0  0  0  0  0  0  0  0  0  0  0
    1.3657    1.5198   -1.9163 O   0  0  0  0  0  0  0  0  0  0  0  0
    0.1544   -1.1168   -3.8774 C   0  0  0  0  0  0  0  0  0  0  0  0
    3.1165   -1.2580   -2.1153 H   0  0  0  0  0  0  0  0  0  0  0  0
    1.9481   -0.0135   -3.7310 H   0  0  0  0  0  0  0  0  0  0  0  0
   -0.6197   -1.5689   -3.2526 H   0  0  0  0  0  0  0  0  0  0  0  0
   -0.3015   -0.2959   -4.4392 H   0  0  0  0  0  0  0  0  0  0  0  0
    0.5099   -1.8678   -4.5896 H   0  0  0  0  0  0  0  0  0  0  0  0
   -0.1189    0.1649   -1.0094 N   0  0  0  0  0  0  0  0  0  0  0  0
    0.1667   -0.1570    0.4120 C   0  0  2  0  0  0  0  0  0  0  0  0
    1.6157    0.1064    0.9306 C   0  0  0  0  0  0  0  0  0  0  0  0
    2.1840   -0.7314    1.6233 O   0  0  0  0  0  0  0  0  0  0  0  0
   -0.3577   -1.5689    0.7932 C   0  0  0  0  0  0  0  0  0  0  0  0
   -1.8939   -1.7815    0.7816 C   0  0  0  0  0  0  0  0  0  0  0  0
   -2.1701   -3.2687    1.0401 C   0  0  0  0  0  0  0  0  0  0  0  0
   -2.6094   -1.3967   -0.5211 C   0  0  0  0  0  0  0  0  0  0  0  0
   -0.7681   -0.5217   -1.3861 H   0  0  0  0  0  0  0  0  0  0  0  0
   -0.4336    0.5484    0.9945 H   0  0  0  0  0  0  0  0  0  0  0  0
   -0.0293   -1.8012    1.8118 H   0  0  0  0  0  0  0  0  0  0  0  0
    0.1124   -2.3023    0.1391 H   0  0  0  0  0  0  0  0  0  0  0  0
   -2.3312   -1.1938    1.5960 H   0  0  0  0  0  0  0  0  0  0  0  0
   -1.7628   -3.8845    0.2311 H   0  0  0  0  0  0  0  0  0  0  0  0
   -3.2467   -3.4536    1.1087 H   0  0  0  0  0  0  0  0  0  0  0  0
   -1.7102   -3.5847    1.9817 H   0  0  0  0  0  0  0  0  0  0  0  0
   -2.1223   -1.8655   -1.3816 H   0  0  0  0  0  0  0  0  0  0  0  0
   -3.6517   -1.7300   -0.4953 H   0  0  0  0  0  0  0  0  0  0  0  0
   -2.6188   -0.3114   -0.6539 H   0  0  0  0  0  0  0  0  0  0  0  0
    2.2990    1.2737    0.6395 N   0  0  0  0  0  0  0  0  0  0  0  0
    3.7625    1.4008    0.7665 C   0  0  2  0  0  0  0  0  0  0  0  0
    4.5553    0.2180    0.1381 C   0  0  0  0  0  0  0  0  0  0  0  0
    4.2560   -0.2197   -0.9711 O   0  0  0  0  0  0  0  0  0  0  0  0
    4.1187    1.6646    2.2388 C   0  0  0  0  0  0  0  0  0  0  0  0
    1.8755    1.7907   -0.1378 H   0  0  0  0  0  0  0  0  0  0  0  0
    4.0617    2.2877    0.1998 H   0  0  0  0  0  0  0  0  0  0  0  0
    3.9164    0.7845    2.8568 H   0  0  0  0  0  0  0  0  0  0  0  0
    5.1768    1.9251    2.3367 H   0  0  0  0  0  0  0  0  0  0  0  0
    3.5250    2.4994    2.6241 H   0  0  0  0  0  0  0  0  0  0  0  0
    5.6281   -0.3562    0.7977 N   0  0  0  0  0  0  0  0  0  0  0  0
    6.3323   -1.5345    0.3073 C   0  0  0  0  0  0  0  0  0  0  0  0
    5.7493   -0.0915    1.7708 H   0  0  0  0  0  0  0  0  0  0  0  0
    5.6622   -2.4002    0.2880 H   0  0  0  0  0  0  0  0  0  0  0  0
    6.7158   -1.3614   -0.7039 H   0  0  0  0  0  0  0  0  0  0  0  0
    7.1799   -1.7657    0.9598 H   0  0  0  0  0  0  0  0  0  0  0  0
  1  2  2  0  0  0  0
  1  3  1  0  0  0  0
  1  7  1  0  0  0  0
  3  4  1  0  0  0  0
  3  5  1  0  0  0  0
  3  6  1  0  0  0  0
  7  8  1  0  0  0  0
  7 12  1  0  0  0  0
  8  9  1  0  0  0  0
  8 11  1  0  0  0  0
  8 13  1  0  0  0  0
  9 10  2  0  0  0  0
  9 17  1  0  0  0  0
 11 14  1  0  0  0  0
 11 15  1  0  0  0  0
 11 16  1  0  0  0  0
 17 18  1  0  0  0  0
 17 25  1  0  0  0  0
 18 19  1  0  0  0  0
 18 21  1  0  0  0  0
 18 26  1  0  0  0  0
 19 20  2  0  0  0  0
 19 36  1  0  0  0  0
 21 22  1  0  0  0  0
 21 27  1  0  0  0  0
 21 28  1  0  0  0  0
 22 23  1  0  0  0  0
 22 24  1  0  0  0  0
 22 29  1  0  0  0  0
 23 30  1  0  0  0  0
 23 31  1  0  0  0  0
 23 32  1  0  0  0  0
 24 33  1  0  0  0  0
 24 34  1  0  0  0  0
 24 35  1  0  0  0  0
 36 37  1  0  0  0  0
 36 41  1  0  0  0  0
 37 38  1  0  0  0  0
 37 40  1  0  0  0  0
 37 42  1  0  0  0  0
 38 39  2  0  0  0  0
 38 46  1  0  0  0  0
 40 43  1  0  0  0  0
 40 44  1  0  0  0  0
 40 45  1  0  0  0  0
 46 47  1  0  0  0  0
 46 48  1  0  0  0  0
 47 49  1  0  0  0  0
 47 50  1  0  0  0  0
 47 51  1  0  0  0  0
M  END
$$$$

  -OEChem-05262216553D

 51 50  0     1  0  0  0  0  0999 V2000
    1.6690   -3.0521   -3.0211 C   0  0  0  0  0  0  0  0  0  0  0  0
    0.6635   -3.0482   -2.3306 O   0  0  0  0  0  0  0  0  0  0  0  0
    2.3917   -4.3567   -3.2974 C   0  0  0  0  0  0  0  0  0  0  0  0
    3.4129   -4.3072   -2.9115 H   0  0  0  0  0  0  0  0  0  0  0  0
    1.8724   -5.1861   -2.8088 H   0  0  0  0  0  0  0  0  0  0  0  0
    2.4232   -4.5461   -4.3731 H   0  0  0  0  0  0  0  0  0  0  0  0
    2.1635   -1.8708   -3.5402 N   0  0  0  0  0  0  0  0  0  0  0  0
    1.6405   -0.5296   -3.2252 C   0  0  2  0  0  0  0  0  0  0  0  0
    1.7084   -0.2105   -1.7117 C   0  0  0  0  0  0  0  0  0  0  0  0
    2.8036    0.0747   -1.2506 O   0  0  0  0  0  0  0  0  0  0  0  0
    0.2433   -0.3338   -3.8382 C   0  0  0  0  0  0  0  0  0  0  0  0
    3.0704   -1.9306   -3.9951 H   0  0  0  0  0  0  0  0  0  0  0  0
    2.2973    0.2006   -3.7095 H   0  0  0  0  0  0  0  0  0  0  0  0
   -0.4868   -1.0258   -3.4107 H   0  0  0  0  0  0  0  0  0  0  0  0
   -0.1070    0.6885   -3.6646 H   0  0  0  0  0  0  0  0  0  0  0  0
    0.2819   -0.5053   -4.9183 H   0  0  0  0  0  0  0  0  0  0  0  0
    0.5672   -0.1871   -0.9214 N   0  0  0  0  0  0  0  0  0  0  0  0
    0.4787   -0.2202    0.5602 C   0  0  2  0  0  0  0  0  0  0  0  0
    1.7583    0.0619    1.4035 C   0  0  0  0  0  0  0  0  0  0  0  0
    2.1521   -0.7323    2.2463 O   0  0  0  0  0  0  0  0  0  0  0  0
   -0.2540   -1.5108    1.0159 C   0  0  0  0  0  0  0  0  0  0  0  0
   -1.7573   -1.6523    0.6455 C   0  0  0  0  0  0  0  0  0  0  0  0
   -2.2202   -3.0546    1.0625 C   0  0  0  0  0  0  0  0  0  0  0  0
   -2.1436   -1.4411   -0.8248 C   0  0  0  0  0  0  0  0  0  0  0  0
   -0.2194   -0.6276   -1.3933 H   0  0  0  0  0  0  0  0  0  0  0  0
   -0.1804    0.6079    0.8357 H   0  0  0  0  0  0  0  0  0  0  0  0
   -0.1940   -1.5835    2.1072 H   0  0  0  0  0  0  0  0  0  0  0  0
    0.2959   -2.3655    0.6059 H   0  0  0  0  0  0  0  0  0  0  0  0
   -2.3139   -0.9170    1.2363 H   0  0  0  0  0  0  0  0  0  0  0  0
   -1.7019   -3.8214    0.4773 H   0  0  0  0  0  0  0  0  0  0  0  0
   -3.2975   -3.1670    0.9055 H   0  0  0  0  0  0  0  0  0  0  0  0
   -2.0119   -3.2273    2.1231 H   0  0  0  0  0  0  0  0  0  0  0  0
   -1.5520   -2.0871   -1.4769 H   0  0  0  0  0  0  0  0  0  0  0  0
   -3.2001   -1.6845   -0.9765 H   0  0  0  0  0  0  0  0  0  0  0  0
   -2.0060   -0.3974   -1.1194 H   0  0  0  0  0  0  0  0  0  0  0  0
    2.4054    1.2816    1.2751 N   0  0  0  0  0  0  0  0  0  0  0  0
    3.5948    1.7169    2.0379 C   0  0  2  0  0  0  0  0  0  0  0  0
    4.8666    0.8597    1.8105 C   0  0  0  0  0  0  0  0  0  0  0  0
    5.8447    1.0042    2.5357 O   0  0  0  0  0  0  0  0  0  0  0  0
    3.2526    1.8552    3.5309 C   0  0  0  0  0  0  0  0  0  0  0  0
    2.2175    1.7561    0.3958 H   0  0  0  0  0  0  0  0  0  0  0  0
    3.8516    2.7169    1.6776 H   0  0  0  0  0  0  0  0  0  0  0  0
    3.1256    0.8737    3.9969 H   0  0  0  0  0  0  0  0  0  0  0  0
    4.0584    2.3772    4.0561 H   0  0  0  0  0  0  0  0  0  0  0  0
    2.3294    2.4269    3.6608 H   0  0  0  0  0  0  0  0  0  0  0  0
    4.9681    0.0098    0.7249 N   0  0  0  0  0  0  0  0  0  0  0  0
    6.1106   -0.8583    0.4835 C   0  0  0  0  0  0  0  0  0  0  0  0
    4.1312   -0.0999    0.1473 H   0  0  0  0  0  0  0  0  0  0  0  0
    7.0210   -0.2651    0.3495 H   0  0  0  0  0  0  0  0  0  0  0  0
    6.2542   -1.5426    1.3261 H   0  0  0  0  0  0  0  0  0  0  0  0
    5.9473   -1.4514   -0.4210 H   0  0  0  0  0  0  0  0  0  0  0  0
  1  2  2  0  0  0  0
  1  3  1  0  0  0  0
  1  7  1  0  0  0  0
  3  4  1  0  0  0  0
  3  5  1  0  0  0  0
  3  6  1  0  0  0  0
  7  8  1  0  0  0  0
  7 12  1  0  0  0  0
  8  9  1  0  0  0  0
  8 11  1  0  0  0  0
  8 13  1  0  0  0  0
  9 10  2  0  0  0  0
  9 17  1  0  0  0  0
 11 14  1  0  0  0  0
 11 15  1  0  0  0  0
 11 16  1  0  0  0  0
 17 18  1  0  0  0  0
 17 25  1  0  0  0  0
 18 19  1  0  0  0  0
 18 21  1  0  0  0  0
 18 26  1  0  0  0  0
 19 20  2  0  0  0  0
 19 36  1  0  0  0  0
 21 22  1  0  0  0  0
 21 27  1  0  0  0  0
 21 28  1  0  0  0  0
 22 23  1  0  0  0  0
 22 24  1  0  0  0  0
 22 29  1  0  0  0  0
 23 30  1  0  0  0  0
 23 31  1  0  0  0  0
 23 32  1  0  0  0  0
 24 33  1  0  0  0  0
 24 34  1  0  0  0  0
 24 35  1  0  0  0  0
 36 37  1  0  0  0  0
 36 41  1  0  0  0  0
 37 38  1  0  0  0  0
 37 40  1  0  0  0  0
 37 42  1  0  0  0  0
 38 39  2  0  0  0  0
 38 46  1  0  0  0  0
 40 43  1  0  0  0  0
 40 44  1  0  0  0  0
 40 45  1  0  0  0  0
 46 47  1  0  0  0  0
 46 48  1  0  0  0  0
 47 49  1  0  0  0  0
 47 50  1  0  0  0  0
 47 51  1  0  0  0  0
M  END
$$$$

  -OEChem-05262216553D

 51 50  0     1  0  0  0  0  0999 V2000
    1.6680   -3.0730   -2.8917 C   0  0  0  0  0  0  0  0  0  0  0  0
    0.6342   -3.0450   -2.2445 O   0  0  0  0  0  0  0  0  0  0  0  0
    2.4198   -4.3796   -3.0630 C   0  0  0  0  0  0  0  0  0  0  0  0
    3.4168   -4.2976   -2.6230 H   0  0  0  0  0  0  0  0  0  0  0  0
    1.8827   -5.1921   -2.5652 H   0  0  0  0  0  0  0  0  0  0  0  0
    2.5155   -4.6203   -4.1245 H   0  0  0  0  0  0  0  0  0  0  0  0
    2.1697   -1.9157   -3.4559 N   0  0  0  0  0  0  0  0  0  0  0  0
    1.6323   -0.5634   -3.2228 C   0  0  2  0  0  0  0  0  0  0  0  0
    1.6768   -0.1614   -1.7287 C   0  0  0  0  0  0  0  0  0  0  0  0
    2.7489    0.2269   -1.2884 O   0  0  0  0  0  0  0  0  0  0  0  0
    0.2431   -0.4027   -3.8631 C   0  0  0  0  0  0  0  0  0  0  0  0
    3.0967   -1.9896   -3.8661 H   0  0  0  0  0  0  0  0  0  0  0  0
    2.2928    0.1424   -3.7375 H   0  0  0  0  0  0  0  0  0  0  0  0
   -0.4940   -1.0669   -3.4047 H   0  0  0  0  0  0  0  0  0  0  0  0
   -0.1060    0.6288   -3.7522 H   0  0  0  0  0  0  0  0  0  0  0  0
    0.2940   -0.6360   -4.9310 H   0  0  0  0  0  0  0  0  0  0  0  0
    0.5345   -0.1435   -0.9392 N   0  0  0  0  0  0  0  0  0  0  0  0
    0.4813   -0.1938    0.5423 C   0  0  2  0  0  0  0  0  0  0  0  0
    1.7906    0.0762    1.3353 C   0  0  0  0  0  0  0  0  0  0  0  0
    2.3558   -0.8191    1.9484 O   0  0  0  0  0  0  0  0  0  0  0  0
   -0.2244   -1.4877    1.0229 C   0  0  0  0  0  0  0  0  0  0  0  0
   -1.7362   -1.6398    0.6986 C   0  0  0  0  0  0  0  0  0  0  0  0
   -2.1788   -3.0439    1.1308 C   0  0  0  0  0  0  0  0  0  0  0  0
   -2.1636   -1.4265   -0.7595 C   0  0  0  0  0  0  0  0  0  0  0  0
   -0.2342   -0.6304   -1.3950 H   0  0  0  0  0  0  0  0  0  0  0  0
   -0.1736    0.6283    0.8448 H   0  0  0  0  0  0  0  0  0  0  0  0
   -0.1217   -1.5556    2.1118 H   0  0  0  0  0  0  0  0  0  0  0  0
    0.3176   -2.3390    0.5956 H   0  0  0  0  0  0  0  0  0  0  0  0
   -2.2792   -0.9076    1.3057 H   0  0  0  0  0  0  0  0  0  0  0  0
   -1.6785   -3.8086    0.5276 H   0  0  0  0  0  0  0  0  0  0  0  0
   -3.2605   -3.1602    1.0113 H   0  0  0  0  0  0  0  0  0  0  0  0
   -1.9325   -3.2162    2.1833 H   0  0  0  0  0  0  0  0  0  0  0  0
   -1.5934   -2.0738   -1.4290 H   0  0  0  0  0  0  0  0  0  0  0  0
   -3.2250   -1.6650   -0.8805 H   0  0  0  0  0  0  0  0  0  0  0  0
   -2.0297   -0.3831   -1.0570 H   0  0  0  0  0  0  0  0  0  0  0  0
    2.2615    1.3761    1.4392 N   0  0  0  0  0  0  0  0  0  0  0  0
    3.4252    1.8210    2.2346 C   0  0  2  0  0  0  0  0  0  0  0  0
    4.7933    1.2380    1.7972 C   0  0  0  0  0  0  0  0  0  0  0  0
    5.7957    1.4777    2.4611 O   0  0  0  0  0  0  0  0  0  0  0  0
    3.1622    1.5896    3.7317 C   0  0  0  0  0  0  0  0  0  0  0  0
    1.8789    2.0267    0.7598 H   0  0  0  0  0  0  0  0  0  0  0  0
    3.5130    2.9016    2.0890 H   0  0  0  0  0  0  0  0  0  0  0  0
    3.2043    0.5242    3.9774 H   0  0  0  0  0  0  0  0  0  0  0  0
    3.9181    2.1057    4.3319 H   0  0  0  0  0  0  0  0  0  0  0  0
    2.1775    1.9749    4.0117 H   0  0  0  0  0  0  0  0  0  0  0  0
    4.9352    0.5389    0.6136 N   0  0  0  0  0  0  0  0  0  0  0  0
    6.1801   -0.0791    0.1837 C   0  0  0  0  0  0  0  0  0  0  0  0
    4.0754    0.3142    0.1064 H   0  0  0  0  0  0  0  0  0  0  0  0
    6.5066   -0.8272    0.9135 H   0  0  0  0  0  0  0  0  0  0  0  0
    6.0377   -0.5743   -0.7816 H   0  0  0  0  0  0  0  0  0  0  0  0
    6.9652    0.6760    0.0732 H   0  0  0  0  0  0  0  0  0  0  0  0
  1  2  2  0  0  0  0
  1  3  1  0  0  0  0
  1  7  1  0  0  0  0
  3  4  1  0  0  0  0
  3  5  1  0  0  0  0
  3  6  1  0  0  0  0
  7  8  1  0  0  0  0
  7 12  1  0  0  0  0
  8  9  1  0  0  0  0
  8 11  1  0  0  0  0
  8 13  1  0  0  0  0
  9 10  2  0  0  0  0
  9 17  1  0  0  0  0
 11 14  1  0  0  0  0
 11 15  1  0  0  0  0
 11 16  1  0  0  0  0
 17 18  1  0  0  0  0
 17 25  1  0  0  0  0
 18 19  1  0  0  0  0
 18 21  1  0  0  0  0
 18 26  1  0  0  0  0
 19 20  2  0  0  0  0
 19 36  1  0  0  0  0
 21 22  1  0  0  0  0
 21 27  1  0  0  0  0
 21 28  1  0  0  0  0
 22 23  1  0  0  0  0
 22 24  1  0  0  0  0
 22 29  1  0  0  0  0
 23 30  1  0  0  0  0
 23 31  1  0  0  0  0
 23 32  1  0  0  0  0
 24 33  1  0  0  0  0
 24 34  1  0  0  0  0
 24 35  1  0  0  0  0
 36 37  1  0  0  0  0
 36 41  1  0  0  0  0
 37 38  1  0  0  0  0
 37 40  1  0  0  0  0
 37 42  1  0  0  0  0
 38 39  2  0  0  0  0
 38 46  1  0  0  0  0
 40 43  1  0  0  0  0
 40 44  1  0  0  0  0
 40 45  1  0  0  0  0
 46 47  1  0  0  0  0
 46 48  1  0  0  0  0
 47 49  1  0  0  0  0
 47 50  1  0  0  0  0
 47 51  1  0  0  0  0
M  END
$$$$

  -OEChem-05262216553D

 51 50  0     1  0  0  0  0  0999 V2000
    1.6968   -3.0076   -2.7489 C   0  0  0  0  0  0  0  0  0  0  0  0
    0.6346   -2.9925   -2.1495 O   0  0  0  0  0  0  0  0  0  0  0  0
    2.5185   -4.2819   -2.7932 C   0  0  0  0  0  0  0  0  0  0  0  0
    3.4730   -4.1265   -2.2839 H   0  0  0  0  0  0  0  0  0  0  0  0
    1.9827   -5.0942   -2.2935 H   0  0  0  0  0  0  0  0  0  0  0  0
    2.7073   -4.5711   -3.8299 H   0  0  0  0  0  0  0  0  0  0  0  0
    2.1727   -1.8644   -3.3622 N   0  0  0  0  0  0  0  0  0  0  0  0
    1.5898   -0.5203   -3.2030 C   0  0  2  0  0  0  0  0  0  0  0  0
    1.6114   -0.0499   -1.7296 C   0  0  0  0  0  0  0  0  0  0  0  0
    2.6626    0.4091   -1.3088 O   0  0  0  0  0  0  0  0  0  0  0  0
    0.2034   -0.4302   -3.8628 C   0  0  0  0  0  0  0  0  0  0  0  0
    3.1255   -1.9196   -3.7112 H   0  0  0  0  0  0  0  0  0  0  0  0
    2.2339    0.1802   -3.7449 H   0  0  0  0  0  0  0  0  0  0  0  0
   -0.5209   -1.0892   -3.3781 H   0  0  0  0  0  0  0  0  0  0  0  0
   -0.1741    0.5956   -3.8082 H   0  0  0  0  0  0  0  0  0  0  0  0
    0.2720   -0.7155   -4.9169 H   0  0  0  0  0  0  0  0  0  0  0  0
    0.4688   -0.0566   -0.9395 N   0  0  0  0  0  0  0  0  0  0  0  0
    0.4390   -0.1307    0.5405 C   0  0  2  0  0  0  0  0  0  0  0  0
    1.7609    0.1419    1.3082 C   0  0  0  0  0  0  0  0  0  0  0  0
    2.4768   -0.7872    1.6646 O   0  0  0  0  0  0  0  0  0  0  0  0
   -0.2216   -1.4476    1.0185 C   0  0  0  0  0  0  0  0  0  0  0  0
   -1.7341   -1.6390    0.7188 C   0  0  0  0  0  0  0  0  0  0  0  0
   -2.1292   -3.0594    1.1430 C   0  0  0  0  0  0  0  0  0  0  0  0
   -2.1915   -1.4255   -0.7303 C   0  0  0  0  0  0  0  0  0  0  0  0
   -0.2792   -0.5804   -1.3886 H   0  0  0  0  0  0  0  0  0  0  0  0
   -0.2284    0.6719    0.8660 H   0  0  0  0  0  0  0  0  0  0  0  0
   -0.0916   -1.5234    2.1038 H   0  0  0  0  0  0  0  0  0  0  0  0
    0.3343   -2.2790    0.5707 H   0  0  0  0  0  0  0  0  0  0  0  0
   -2.2873   -0.9281    1.3418 H   0  0  0  0  0  0  0  0  0  0  0  0
   -1.6120   -3.8027    0.5273 H   0  0  0  0  0  0  0  0  0  0  0  0
   -3.2079   -3.2074    1.0329 H   0  0  0  0  0  0  0  0  0  0  0  0
   -1.8671   -3.2339    2.1912 H   0  0  0  0  0  0  0  0  0  0  0  0
   -1.6167   -2.0524   -1.4148 H   0  0  0  0  0  0  0  0  0  0  0  0
   -3.2479   -1.6919   -0.8352 H   0  0  0  0  0  0  0  0  0  0  0  0
   -2.0903   -0.3770   -1.0224 H   0  0  0  0  0  0  0  0  0  0  0  0
    2.0665    1.4379    1.6955 N   0  0  0  0  0  0  0  0  0  0  0  0
    3.2640    1.8831    2.4404 C   0  0  2  0  0  0  0  0  0  0  0  0
    4.6002    1.7369    1.6750 C   0  0  0  0  0  0  0  0  0  0  0  0
    5.3944    2.6701    1.6777 O   0  0  0  0  0  0  0  0  0  0  0  0
    3.3500    1.2148    3.8198 C   0  0  0  0  0  0  0  0  0  0  0  0
    1.5387    2.1575    1.2108 H   0  0  0  0  0  0  0  0  0  0  0  0
    3.1387    2.9557    2.6190 H   0  0  0  0  0  0  0  0  0  0  0  0
    3.6152    0.1570    3.7338 H   0  0  0  0  0  0  0  0  0  0  0  0
    4.1163    1.7074    4.4263 H   0  0  0  0  0  0  0  0  0  0  0  0
    2.3915    1.2937    4.3409 H   0  0  0  0  0  0  0  0  0  0  0  0
    4.9155    0.5814    0.9905 N   0  0  0  0  0  0  0  0  0  0  0  0
    6.0557    0.4591    0.0955 C   0  0  0  0  0  0  0  0  0  0  0  0
    4.1694   -0.1174    0.9396 H   0  0  0  0  0  0  0  0  0  0  0  0
    6.9875    0.6711    0.6297 H   0  0  0  0  0  0  0  0  0  0  0  0
    6.1104   -0.5575   -0.3051 H   0  0  0  0  0  0  0  0  0  0  0  0
    5.9586    1.1583   -0.7413 H   0  0  0  0  0  0  0  0  0  0  0  0
  1  2  2  0  0  0  0
  1  3  1  0  0  0  0
  1  7  1  0  0  0  0
  3  4  1  0  0  0  0
  3  5  1  0  0  0  0
  3  6  1  0  0  0  0
  7  8  1  0  0  0  0
  7 12  1  0  0  0  0
  8  9  1  0  0  0  0
  8 11  1  0  0  0  0
  8 13  1  0  0  0  0
  9 10  2  0  0  0  0
  9 17  1  0  0  0  0
 11 14  1  0  0  0  0
 11 15  1  0  0  0  0
 11 16  1  0  0  0  0
 17 18  1  0  0  0  0
 17 25  1  0  0  0  0
 18 19  1  0  0  0  0
 18 21  1  0  0  0  0
 18 26  1  0  0  0  0
 19 20  2  0  0  0  0
 19 36  1  0  0  0  0
 21 22  1  0  0  0  0
 21 27  1  0  0  0  0
 21 28  1  0  0  0  0
 22 23  1  0  0  0  0
 22 24  1  0  0  0  0
 22 29  1  0  0  0  0
 23 30  1  0  0  0  0
 23 31  1  0  0  0  0
 23 32  1  0  0  0  0
 24 33  1  0  0  0  0
 24 34  1  0  0  0  0
 24 35  1  0  0  0  0
 36 37  1  0  0  0  0
 36 41  1  0  0  0  0
 37 38  1  0  0  0  0
 37 40  1  0  0  0  0
 37 42  1  0  0  0  0
 38 39  2  0  0  0  0
 38 46  1  0  0  0  0
 40 43  1  0  0  0  0
 40 44  1  0  0  0  0
 40 45  1  0  0  0  0
 46 47  1  0  0  0  0
 46 48  1  0  0  0  0
 47 49  1  0  0  0  0
 47 50  1  0  0  0  0
 47 51  1  0  0  0  0
M  END
$$$$

  -OEChem-05262216553D

 51 50  0     1  0  0  0  0  0999 V2000
    1.6533   -2.9977   -2.6405 C   0  0  0  0  0  0  0  0  0  0  0  0
    0.5636   -2.9471   -2.0948 O   0  0  0  0  0  0  0  0  0  0  0  0
    2.4425   -4.2930   -2.6322 C   0  0  0  0  0  0  0  0  0  0  0  0
    3.3906   -4.1486   -2.1084 H   0  0  0  0  0  0  0  0  0  0  0  0
    1.8755   -5.0767   -2.1214 H   0  0  0  0  0  0  0  0  0  0  0  0
    2.6444   -4.6152   -3.6565 H   0  0  0  0  0  0  0  0  0  0  0  0
    2.1818   -1.8786   -3.2544 N   0  0  0  0  0  0  0  0  0  0  0  0
    1.6199   -0.5194   -3.1629 C   0  0  2  0  0  0  0  0  0  0  0  0
    1.6118    0.0126   -1.7108 C   0  0  0  0  0  0  0  0  0  0  0  0
    2.6228    0.5783   -1.3166 O   0  0  0  0  0  0  0  0  0  0  0  0
    0.2522   -0.4234   -3.8598 C   0  0  0  0  0  0  0  0  0  0  0  0
    3.1469   -1.9633   -3.5619 H   0  0  0  0  0  0  0  0  0  0  0  0
    2.2918    0.1443   -3.7171 H   0  0  0  0  0  0  0  0  0  0  0  0
   -0.5044   -1.0323   -3.3592 H   0  0  0  0  0  0  0  0  0  0  0  0
   -0.0935    0.6151   -3.8669 H   0  0  0  0  0  0  0  0  0  0  0  0
    0.3355   -0.7663   -4.8954 H   0  0  0  0  0  0  0  0  0  0  0  0
    0.4685    0.0001   -0.9222 N   0  0  0  0  0  0  0  0  0  0  0  0
    0.4637   -0.1276    0.5544 C   0  0  2  0  0  0  0  0  0  0  0  0
    1.8034    0.0901    1.3038 C   0  0  0  0  0  0  0  0  0  0  0  0
    2.6146   -0.8228    1.3890 O   0  0  0  0  0  0  0  0  0  0  0  0
   -0.2088   -1.4422    1.0142 C   0  0  0  0  0  0  0  0  0  0  0  0
   -1.7313   -1.5918    0.7432 C   0  0  0  0  0  0  0  0  0  0  0  0
   -2.1495   -3.0136    1.1386 C   0  0  0  0  0  0  0  0  0  0  0  0
   -2.2171   -1.3240   -0.6880 C   0  0  0  0  0  0  0  0  0  0  0  0
   -0.2643   -0.5465   -1.3702 H   0  0  0  0  0  0  0  0  0  0  0  0
   -0.1826    0.6774    0.9142 H   0  0  0  0  0  0  0  0  0  0  0  0
   -0.0539   -1.5487    2.0938 H   0  0  0  0  0  0  0  0  0  0  0  0
    0.3204   -2.2728    0.5348 H   0  0  0  0  0  0  0  0  0  0  0  0
   -2.2546   -0.8871    1.3983 H   0  0  0  0  0  0  0  0  0  0  0  0
   -1.6590   -3.7520    0.4955 H   0  0  0  0  0  0  0  0  0  0  0  0
   -3.2330   -3.1363    1.0437 H   0  0  0  0  0  0  0  0  0  0  0  0
   -1.8728   -3.2196    2.1775 H   0  0  0  0  0  0  0  0  0  0  0  0
   -1.6766   -1.9451   -1.4049 H   0  0  0  0  0  0  0  0  0  0  0  0
   -3.2828   -1.5584   -0.7745 H   0  0  0  0  0  0  0  0  0  0  0  0
   -2.0942   -0.2705   -0.9523 H   0  0  0  0  0  0  0  0  0  0  0  0
    2.0201    1.2666    2.0032 N   0  0  0  0  0  0  0  0  0  0  0  0
    3.2091    1.5952    2.8176 C   0  0  2  0  0  0  0  0  0  0  0  0
    4.5427    1.7246    2.0399 C   0  0  0  0  0  0  0  0  0  0  0  0
    5.5073    2.2260    2.6059 O   0  0  0  0  0  0  0  0  0  0  0  0
    3.3504    0.6207    3.9972 C   0  0  0  0  0  0  0  0  0  0  0  0
    1.3637    2.0172    1.8137 H   0  0  0  0  0  0  0  0  0  0  0  0
    3.0285    2.5857    3.2460 H   0  0  0  0  0  0  0  0  0  0  0  0
    3.6815   -0.3652    3.6582 H   0  0  0  0  0  0  0  0  0  0  0  0
    4.0903    0.9987    4.7096 H   0  0  0  0  0  0  0  0  0  0  0  0
    2.3948    0.5098    4.5176 H   0  0  0  0  0  0  0  0  0  0  0  0
    4.6688    1.3564    0.7134 N   0  0  0  0  0  0  0  0  0  0  0  0
    5.9165    1.4345   -0.0308 C   0  0  0  0  0  0  0  0  0  0  0  0
    3.8786    0.8632    0.2878 H   0  0  0  0  0  0  0  0  0  0  0  0
    6.6778    0.7996    0.4333 H   0  0  0  0  0  0  0  0  0  0  0  0
    5.7600    1.0959   -1.0595 H   0  0  0  0  0  0  0  0  0  0  0  0
    6.2830    2.4659   -0.0586 H   0  0  0  0  0  0  0  0  0  0  0  0
  1  2  2  0  0  0  0
  1  3  1  0  0  0  0
  1  7  1  0  0  0  0
  3  4  1  0  0  0  0
  3  5  1  0  0  0  0
  3  6  1  0  0  0  0
  7  8  1  0  0  0  0
  7 12  1  0  0  0  0
  8  9  1  0  0  0  0
  8 11  1  0  0  0  0
  8 13  1  0  0  0  0
  9 10  2  0  0  0  0
  9 17  1  0  0  0  0
 11 14  1  0  0  0  0
 11 15  1  0  0  0  0
 11 16  1  0  0  0  0
 17 18  1  0  0  0  0
 17 25  1  0  0  0  0
 18 19  1  0  0  0  0
 18 21  1  0  0  0  0
 18 26  1  0  0  0  0
 19 20  2  0  0  0  0
 19 36  1  0  0  0  0
 21 22  1  0  0  0  0
 21 27  1  0  0  0  0
 21 28  1  0  0  0  0
 22 23  1  0  0  0  0
 22 24  1  0  0  0  0
 22 29  1  0  0  0  0
 23 30  1  0  0  0  0
 23 31  1  0  0  0  0
 23 32  1  0  0  0  0
 24 33  1  0  0  0  0
 24 34  1  0  0  0  0
 24 35  1  0  0  0  0
 36 37  1  0  0  0  0
 36 41  1  0  0  0  0
 37 38  1  0  0  0  0
 37 40  1  0  0  0  0
 37 42  1  0  0  0  0
 38 39  2  0  0  0  0
 38 46  1  0  0  0  0
 40 43  1  0  0  0  0
 40 44  1  0  0  0  0
 40 45  1  0  0  0  0
 46 47  1  0  0  0  0
 46 48  1  0  0  0  0
 47 49  1  0  0  0  0
 47 50  1  0  0  0  0
 47 51  1  0  0  0  0
M  END
$$$$

  -OEChem-05262216553D

 51 50  0     1  0  0  0  0  0999 V2000
    1.7430   -3.1054   -2.2696 C   0  0  0  0  0  0  0  0  0  0  0  0
    0.5902   -3.0889   -1.8719 O   0  0  0  0  0  0  0  0  0  0  0  0
    2.6273   -4.3001   -1.9670 C   0  0  0  0  0  0  0  0  0  0  0  0
    3.4609   -3.9933   -1.3300 H   0  0  0  0  0  0  0  0  0  0  0  0
    2.0542   -5.0726   -1.4467 H   0  0  0  0  0  0  0  0  0  0  0  0
    3.0212   -4.7194   -2.8960 H   0  0  0  0  0  0  0  0  0  0  0  0
    2.2630   -2.0344   -2.9700 N   0  0  0  0  0  0  0  0  0  0  0  0
    1.6195   -0.7159   -3.1093 C   0  0  2  0  0  0  0  0  0  0  0  0
    1.5212    0.0170   -1.7524 C   0  0  0  0  0  0  0  0  0  0  0  0
    2.4436    0.7624   -1.4472 O   0  0  0  0  0  0  0  0  0  0  0  0
    0.2832   -0.7912   -3.8670 C   0  0  0  0  0  0  0  0  0  0  0  0
    3.2659   -2.0736   -3.1320 H   0  0  0  0  0  0  0  0  0  0  0  0
    2.2821   -0.1039   -3.7304 H   0  0  0  0  0  0  0  0  0  0  0  0
   -0.4811   -1.3249   -3.2980 H   0  0  0  0  0  0  0  0  0  0  0  0
   -0.0875    0.2177   -4.0725 H   0  0  0  0  0  0  0  0  0  0  0  0
    0.4230   -1.3079   -4.8213 H   0  0  0  0  0  0  0  0  0  0  0  0
    0.3819   -0.0110   -0.9589 N   0  0  0  0  0  0  0  0  0  0  0  0
    0.4116   -0.0931    0.5214 C   0  0  2  0  0  0  0  0  0  0  0  0
    1.7594    0.1934    1.2309 C   0  0  0  0  0  0  0  0  0  0  0  0
    2.6778   -0.6112    1.1306 O   0  0  0  0  0  0  0  0  0  0  0  0
   -0.1960   -1.4135    1.0463 C   0  0  0  0  0  0  0  0  0  0  0  0
   -1.7168   -1.6303    0.8170 C   0  0  0  0  0  0  0  0  0  0  0  0
   -2.0733   -3.0505    1.2743 C   0  0  0  0  0  0  0  0  0  0  0  0
   -2.2405   -1.4369   -0.6132 C   0  0  0  0  0  0  0  0  0  0  0  0
   -0.3086   -0.6391   -1.3651 H   0  0  0  0  0  0  0  0  0  0  0  0
   -0.2542    0.7027    0.8658 H   0  0  0  0  0  0  0  0  0  0  0  0
   -0.0151   -1.4685    2.1254 H   0  0  0  0  0  0  0  0  0  0  0  0
    0.3562   -2.2420    0.5919 H   0  0  0  0  0  0  0  0  0  0  0  0
   -2.2524   -0.9201    1.4560 H   0  0  0  0  0  0  0  0  0  0  0  0
   -1.5713   -3.7939    0.6460 H   0  0  0  0  0  0  0  0  0  0  0  0
   -3.1534   -3.2152    1.2109 H   0  0  0  0  0  0  0  0  0  0  0  0
   -1.7656   -3.2079    2.3126 H   0  0  0  0  0  0  0  0  0  0  0  0
   -1.6911   -2.0645   -1.3179 H   0  0  0  0  0  0  0  0  0  0  0  0
   -3.2981   -1.7139   -0.6678 H   0  0  0  0  0  0  0  0  0  0  0  0
   -2.1633   -0.3906   -0.9206 H   0  0  0  0  0  0  0  0  0  0  0  0
    1.8666    1.2340    2.1399 N   0  0  0  0  0  0  0  0  0  0  0  0
    3.0816    1.6129    2.8935 C   0  0  2  0  0  0  0  0  0  0  0  0
    4.2701    2.1078    2.0319 C   0  0  0  0  0  0  0  0  0  0  0  0
    5.1040    2.8415    2.5490 O   0  0  0  0  0  0  0  0  0  0  0  0
    3.5268    0.4899    3.8422 C   0  0  0  0  0  0  0  0  0  0  0  0
    1.0992    1.8986    2.1381 H   0  0  0  0  0  0  0  0  0  0  0  0
    2.8031    2.4637    3.5228 H   0  0  0  0  0  0  0  0  0  0  0  0
    3.9712   -0.3433    3.2900 H   0  0  0  0  0  0  0  0  0  0  0  0
    4.2779    0.8689    4.5426 H   0  0  0  0  0  0  0  0  0  0  0  0
    2.6748    0.1149    4.4167 H   0  0  0  0  0  0  0  0  0  0  0  0
    4.4044    1.7847    0.6944 N   0  0  0  0  0  0  0  0  0  0  0  0
    5.5121    2.2236   -0.1405 C   0  0  0  0  0  0  0  0  0  0  0  0
    3.7389    1.1090    0.3072 H   0  0  0  0  0  0  0  0  0  0  0  0
    5.3697    1.8692   -1.1660 H   0  0  0  0  0  0  0  0  0  0  0  0
    5.5698    3.3167   -0.1582 H   0  0  0  0  0  0  0  0  0  0  0  0
    6.4579    1.8242    0.2389 H   0  0  0  0  0  0  0  0  0  0  0  0
  1  2  2  0  0  0  0
  1  3  1  0  0  0  0
  1  7  1  0  0  0  0
  3  4  1  0  0  0  0
  3  5  1  0  0  0  0
  3  6  1  0  0  0  0
  7  8  1  0  0  0  0
  7 12  1  0  0  0  0
  8  9  1  0  0  0  0
  8 11  1  0  0  0  0
  8 13  1  0  0  0  0
  9 10  2  0  0  0  0
  9 17  1  0  0  0  0
 11 14  1  0  0  0  0
 11 15  1  0  0  0  0
 11 16  1  0  0  0  0
 17 18  1  0  0  0  0
 17 25  1  0  0  0  0
 18 19  1  0  0  0  0
 18 21  1  0  0  0  0
 18 26  1  0  0  0  0
 19 20  2  0  0  0  0
 19 36  1  0  0  0  0
 21 22  1  0  0  0  0
 21 27  1  0  0  0  0
 21 28  1  0  0  0  0
 22 23  1  0  0  0  0
 22 24  1  0  0  0  0
 22 29  1  0  0  0  0
 23 30  1  0  0  0  0
 23 31  1  0  0  0  0
 23 32  1  0  0  0  0
 24 33  1  0  0  0  0
 24 34  1  0  0  0  0
 24 35  1  0  0  0  0
 36 37  1  0  0  0  0
 36 41  1  0  0  0  0
 37 38  1  0  0  0  0
 37 40  1  0  0  0  0
 37 42  1  0  0  0  0
 38 39  2  0  0  0  0
 38 46  1  0  0  0  0
 40 43  1  0  0  0  0
 40 44  1  0  0  0  0
 40 45  1  0  0  0  0
 46 47  1  0  0  0  0
 46 48  1  0  0  0  0
 47 49  1  0  0  0  0
 47 50  1  0  0  0  0
 47 51  1  0  0  0  0
M  END
$$$$

  -OEChem-05262216553D

 51 50  0     1  0  0  0  0  0999 V2000
    1.6804   -3.0421   -2.2627 C   0  0  0  0  0  0  0  0  0  0  0  0
    0.5075   -3.0341   -1.9291 O   0  0  0  0  0  0  0  0  0  0  0  0
    2.5555   -4.2270   -1.9010 C   0  0  0  0  0  0  0  0  0  0  0  0
    3.2897   -3.9286   -1.1481 H   0  0  0  0  0  0  0  0  0  0  0  0
    1.9446   -5.0382   -1.4951 H   0  0  0  0  0  0  0  0  0  0  0  0
    3.0794   -4.5925   -2.7875 H   0  0  0  0  0  0  0  0  0  0  0  0
    2.2335   -1.9684   -2.9323 N   0  0  0  0  0  0  0  0  0  0  0  0
    1.5990   -0.6495   -3.1077 C   0  0  2  0  0  0  0  0  0  0  0  0
    1.4745    0.1099   -1.7684 C   0  0  0  0  0  0  0  0  0  0  0  0
    2.3429    0.9301   -1.4984 O   0  0  0  0  0  0  0  0  0  0  0  0
    0.2775   -0.7202   -3.8914 C   0  0  0  0  0  0  0  0  0  0  0  0
    3.2443   -2.0042   -3.0357 H   0  0  0  0  0  0  0  0  0  0  0  0
    2.2797   -0.0543   -3.7255 H   0  0  0  0  0  0  0  0  0  0  0  0
   -0.5100   -1.2221   -3.3246 H   0  0  0  0  0  0  0  0  0  0  0  0
   -0.0683    0.2904   -4.1304 H   0  0  0  0  0  0  0  0  0  0  0  0
    0.4263   -1.2647   -4.8289 H   0  0  0  0  0  0  0  0  0  0  0  0
    0.3499    0.0440   -0.9578 N   0  0  0  0  0  0  0  0  0  0  0  0
    0.4160   -0.0835    0.5183 C   0  0  2  0  0  0  0  0  0  0  0  0
    1.7707    0.1925    1.2196 C   0  0  0  0  0  0  0  0  0  0  0  0
    2.7432   -0.5056    0.9549 O   0  0  0  0  0  0  0  0  0  0  0  0
   -0.1763   -1.4186    1.0221 C   0  0  0  0  0  0  0  0  0  0  0  0
   -1.7029   -1.6282    0.8252 C   0  0  0  0  0  0  0  0  0  0  0  0
   -2.0523   -3.0598    1.2501 C   0  0  0  0  0  0  0  0  0  0  0  0
   -2.2653   -1.3869   -0.5829 C   0  0  0  0  0  0  0  0  0  0  0  0
   -0.3281   -0.5981   -1.3638 H   0  0  0  0  0  0  0  0  0  0  0  0
   -0.2451    0.7023    0.8934 H   0  0  0  0  0  0  0  0  0  0  0  0
    0.0312   -1.5041    2.0945 H   0  0  0  0  0  0  0  0  0  0  0  0
    0.3646   -2.2336    0.5318 H   0  0  0  0  0  0  0  0  0  0  0  0
   -2.2190   -0.9370    1.5000 H   0  0  0  0  0  0  0  0  0  0  0  0
   -1.5790   -3.7857    0.5808 H   0  0  0  0  0  0  0  0  0  0  0  0
   -3.1351   -3.2157    1.2206 H   0  0  0  0  0  0  0  0  0  0  0  0
   -1.7088   -3.2517    2.2713 H   0  0  0  0  0  0  0  0  0  0  0  0
   -1.7402   -1.9929   -1.3240 H   0  0  0  0  0  0  0  0  0  0  0  0
   -3.3254   -1.6571   -0.6156 H   0  0  0  0  0  0  0  0  0  0  0  0
   -2.1912   -0.3315   -0.8579 H   0  0  0  0  0  0  0  0  0  0  0  0
    1.8126    0.9754    2.3633 N   0  0  0  0  0  0  0  0  0  0  0  0
    3.0165    1.2953    3.1621 C   0  0  2  0  0  0  0  0  0  0  0  0
    4.1082    2.0927    2.4068 C   0  0  0  0  0  0  0  0  0  0  0  0
    4.7529    2.9354    3.0185 O   0  0  0  0  0  0  0  0  0  0  0  0
    3.6124    0.0413    3.8180 C   0  0  0  0  0  0  0  0  0  0  0  0
    0.9826    1.5323    2.5419 H   0  0  0  0  0  0  0  0  0  0  0  0
    2.6846    1.9463    3.9771 H   0  0  0  0  0  0  0  0  0  0  0  0
    4.1100   -0.5955    3.0810 H   0  0  0  0  0  0  0  0  0  0  0  0
    4.3538    0.3306    4.5693 H   0  0  0  0  0  0  0  0  0  0  0  0
    2.8282   -0.5407    4.3108 H   0  0  0  0  0  0  0  0  0  0  0  0
    4.3571    1.9026    1.0609 N   0  0  0  0  0  0  0  0  0  0  0  0
    5.3475    2.6472    0.2984 C   0  0  0  0  0  0  0  0  0  0  0  0
    3.8414    1.1483    0.5977 H   0  0  0  0  0  0  0  0  0  0  0  0
    6.3540    2.4474    0.6797 H   0  0  0  0  0  0  0  0  0  0  0  0
    5.3082    2.3512   -0.7544 H   0  0  0  0  0  0  0  0  0  0  0  0
    5.1508    3.7223    0.3616 H   0  0  0  0  0  0  0  0  0  0  0  0
  1  2  2  0  0  0  0
  1  3  1  0  0  0  0
  1  7  1  0  0  0  0
  3  4  1  0  0  0  0
  3  5  1  0  0  0  0
  3  6  1  0  0  0  0
  7  8  1  0  0  0  0
  7 12  1  0  0  0  0
  8  9  1  0  0  0  0
  8 11  1  0  0  0  0
  8 13  1  0  0  0  0
  9 10  2  0  0  0  0
  9 17  1  0  0  0  0
 11 14  1  0  0  0  0
 11 15  1  0  0  0  0
 11 16  1  0  0  0  0
 17 18  1  0  0  0  0
 17 25  1  0  0  0  0
 18 19  1  0  0  0  0
 18 21  1  0  0  0  0
 18 26  1  0  0  0  0
 19 20  2  0  0  0  0
 19 36  1  0  0  0  0
 21 22  1  0  0  0  0
 21 27  1  0  0  0  0
 21 28  1  0  0  0  0
 22 23  1  0  0  0  0
 22 24  1  0  0  0  0
 22 29  1  0  0  0  0
 23 30  1  0  0  0  0
 23 31  1  0  0  0  0
 23 32  1  0  0  0  0
 24 33  1  0  0  0  0
 24 34  1  0  0  0  0
 24 35  1  0  0  0  0
 36 37  1  0  0  0  0
 36 41  1  0  0  0  0
 37 38  1  0  0  0  0
 37 40  1  0  0  0  0
 37 42  1  0  0  0  0
 38 39  2  0  0  0  0
 38 46  1  0  0  0  0
 40 43  1  0  0  0  0
 40 44  1  0  0  0  0
 40 45  1  0  0  0  0
 46 47  1  0  0  0  0
 46 48  1  0  0  0  0
 47 49  1  0  0  0  0
 47 50  1  0  0  0  0
 47 51  1  0  0  0  0
M  END
$$$$

  -OEChem-05262216553D

 51 50  0     1  0  0  0  0  0999 V2000
    1.5769   -3.0338   -2.1851 C   0  0  0  0  0  0  0  0  0  0  0  0
    0.3971   -3.0326   -1.8780 O   0  0  0  0  0  0  0  0  0  0  0  0
    2.4615   -4.1872   -1.7516 C   0  0  0  0  0  0  0  0  0  0  0  0
    3.2563   -3.8204   -1.0968 H   0  0  0  0  0  0  0  0  0  0  0  0
    1.8729   -4.9302   -1.2060 H   0  0  0  0  0  0  0  0  0  0  0  0
    2.9089   -4.6653   -2.6263 H   0  0  0  0  0  0  0  0  0  0  0  0
    2.1279   -1.9811   -2.8882 N   0  0  0  0  0  0  0  0  0  0  0  0
    1.4811   -0.6804   -3.1399 C   0  0  2  0  0  0  0  0  0  0  0  0
    1.3502    0.1592   -1.8504 C   0  0  0  0  0  0  0  0  0  0  0  0
    2.1475    1.0720   -1.6790 O   0  0  0  0  0  0  0  0  0  0  0  0
    0.1587   -0.8033   -3.9150 C   0  0  0  0  0  0  0  0  0  0  0  0
    3.1407   -2.0078   -2.9739 H   0  0  0  0  0  0  0  0  0  0  0  0
    2.1572   -0.1192   -3.7936 H   0  0  0  0  0  0  0  0  0  0  0  0
   -0.6299   -1.2594   -3.3122 H   0  0  0  0  0  0  0  0  0  0  0  0
   -0.1841    0.1887   -4.2252 H   0  0  0  0  0  0  0  0  0  0  0  0
    0.3047   -1.4143   -4.8109 H   0  0  0  0  0  0  0  0  0  0  0  0
    0.2630    0.0863   -0.9931 N   0  0  0  0  0  0  0  0  0  0  0  0
    0.3982   -0.0119    0.4809 C   0  0  2  0  0  0  0  0  0  0  0  0
    1.7702    0.2986    1.1382 C   0  0  0  0  0  0  0  0  0  0  0  0
    2.7798   -0.2771    0.7469 O   0  0  0  0  0  0  0  0  0  0  0  0
   -0.1520   -1.3499    1.0254 C   0  0  0  0  0  0  0  0  0  0  0  0
   -1.6823   -1.5858    0.8967 C   0  0  0  0  0  0  0  0  0  0  0  0
   -1.9872   -3.0180    1.3539 C   0  0  0  0  0  0  0  0  0  0  0  0
   -2.3138   -1.3678   -0.4863 C   0  0  0  0  0  0  0  0  0  0  0  0
   -0.4039   -0.5947   -1.3515 H   0  0  0  0  0  0  0  0  0  0  0  0
   -0.2597    0.7714    0.8673 H   0  0  0  0  0  0  0  0  0  0  0  0
    0.0985   -1.4203    2.0894 H   0  0  0  0  0  0  0  0  0  0  0  0
    0.3827   -2.1629    0.5264 H   0  0  0  0  0  0  0  0  0  0  0  0
   -2.1796   -0.8955    1.5864 H   0  0  0  0  0  0  0  0  0  0  0  0
   -1.5289   -3.7445    0.6744 H   0  0  0  0  0  0  0  0  0  0  0  0
   -3.0673   -3.1938    1.3721 H   0  0  0  0  0  0  0  0  0  0  0  0
   -1.5971   -3.1906    2.3618 H   0  0  0  0  0  0  0  0  0  0  0  0
   -1.8151   -1.9718   -1.2466 H   0  0  0  0  0  0  0  0  0  0  0  0
   -3.3698   -1.6553   -0.4671 H   0  0  0  0  0  0  0  0  0  0  0  0
   -2.2697   -0.3140   -0.7742 H   0  0  0  0  0  0  0  0  0  0  0  0
    1.7967    0.8264    2.4216 N   0  0  0  0  0  0  0  0  0  0  0  0
    2.9860    1.0169    3.2819 C   0  0  2  0  0  0  0  0  0  0  0  0
    4.0500    1.9898    2.7194 C   0  0  0  0  0  0  0  0  0  0  0  0
    4.5540    2.8175    3.4681 O   0  0  0  0  0  0  0  0  0  0  0  0
    3.6260   -0.3244    3.6676 C   0  0  0  0  0  0  0  0  0  0  0  0
    0.9307    1.2523    2.7371 H   0  0  0  0  0  0  0  0  0  0  0  0
    2.6281    1.4722    4.2109 H   0  0  0  0  0  0  0  0  0  0  0  0
    4.1348   -0.7828    2.8149 H   0  0  0  0  0  0  0  0  0  0  0  0
    4.3666   -0.1711    4.4588 H   0  0  0  0  0  0  0  0  0  0  0  0
    2.8639   -1.0181    4.0345 H   0  0  0  0  0  0  0  0  0  0  0  0
    4.4344    1.9573    1.3937 N   0  0  0  0  0  0  0  0  0  0  0  0
    5.4016    2.8669    0.7984 C   0  0  0  0  0  0  0  0  0  0  0  0
    4.0015    1.2347    0.8103 H   0  0  0  0  0  0  0  0  0  0  0  0
    6.3807    2.7486    1.2735 H   0  0  0  0  0  0  0  0  0  0  0  0
    5.5056    2.6561   -0.2703 H   0  0  0  0  0  0  0  0  0  0  0  0
    5.0739    3.9051    0.9155 H   0  0  0  0  0  0  0  0  0  0  0  0
  1  2  2  0  0  0  0
  1  3  1  0  0  0  0
  1  7  1  0  0  0  0
  3  4  1  0  0  0  0
  3  5  1  0  0  0  0
  3  6  1  0  0  0  0
  7  8  1  0  0  0  0
  7 12  1  0  0  0  0
  8  9  1  0  0  0  0
  8 11  1  0  0  0  0
  8 13  1  0  0  0  0
  9 10  2  0  0  0  0
  9 17  1  0  0  0  0
 11 14  1  0  0  0  0
 11 15  1  0  0  0  0
 11 16  1  0  0  0  0
 17 18  1  0  0  0  0
 17 25  1  0  0  0  0
 18 19  1  0  0  0  0
 18 21  1  0  0  0  0
 18 26  1  0  0  0  0
 19 20  2  0  0  0  0
 19 36  1  0  0  0  0
 21 22  1  0  0  0  0
 21 27  1  0  0  0  0
 21 28  1  0  0  0  0
 22 23  1  0  0  0  0
 22 24  1  0  0  0  0
 22 29  1  0  0  0  0
 23 30  1  0  0  0  0
 23 31  1  0  0  0  0
 23 32  1  0  0  0  0
 24 33  1  0  0  0  0
 24 34  1  0  0  0  0
 24 35  1  0  0  0  0
 36 37  1  0  0  0  0
 36 41  1  0  0  0  0
 37 38  1  0  0  0  0
 37 40  1  0  0  0  0
 37 42  1  0  0  0  0
 38 39  2  0  0  0  0
 38 46  1  0  0  0  0
 40 43  1  0  0  0  0
 40 44  1  0  0  0  0
 40 45  1  0  0  0  0
 46 47  1  0  0  0  0
 46 48  1  0  0  0  0
 47 49  1  0  0  0  0
 47 50  1  0  0  0  0
 47 51  1  0  0  0  0
M  END
$$$$

  -OEChem-05262216553D

 51 50  0     1  0  0  0  0  0999 V2000
    2.3807   -2.6172   -1.9701 C   0  0  0  0  0  0  0  0  0  0  0  0
    1.3743   -3.0677   -1.4471 O   0  0  0  0  0  0  0  0  0  0  0  0
    3.7388   -3.1396   -1.5431 C   0  0  0  0  0  0  0  0  0  0  0  0
    4.2862   -2.3527   -1.0173 H   0  0  0  0  0  0  0  0  0  0  0  0
    3.6214   -3.9950   -0.8721 H   0  0  0  0  0  0  0  0  0  0  0  0
    4.3133   -3.4541   -2.4173 H   0  0  0  0  0  0  0  0  0  0  0  0
    2.3152   -1.6204   -2.9261 N   0  0  0  0  0  0  0  0  0  0  0  0
    1.1629   -0.7233   -3.1256 C   0  0  2  0  0  0  0  0  0  0  0  0
    1.0269    0.2355   -1.9233 C   0  0  0  0  0  0  0  0  0  0  0  0
    1.7979    1.1844   -1.8655 O   0  0  0  0  0  0  0  0  0  0  0  0
   -0.1301   -1.4638   -3.5047 C   0  0  0  0  0  0  0  0  0  0  0  0
    3.2215   -1.2238   -3.1611 H   0  0  0  0  0  0  0  0  0  0  0  0
    1.4010   -0.0873   -3.9844 H   0  0  0  0  0  0  0  0  0  0  0  0
   -0.5050   -2.0758   -2.6828 H   0  0  0  0  0  0  0  0  0  0  0  0
   -0.9082   -0.7453   -3.7798 H   0  0  0  0  0  0  0  0  0  0  0  0
    0.0532   -2.1188   -4.3620 H   0  0  0  0  0  0  0  0  0  0  0  0
   -0.0205    0.2279   -1.0177 N   0  0  0  0  0  0  0  0  0  0  0  0
    0.1843    0.0843    0.4452 C   0  0  2  0  0  0  0  0  0  0  0  0
    1.6056    0.2683    1.0600 C   0  0  0  0  0  0  0  0  0  0  0  0
    2.6091   -0.1459    0.4917 O   0  0  0  0  0  0  0  0  0  0  0  0
   -0.4421   -1.2340    0.9678 C   0  0  0  0  0  0  0  0  0  0  0  0
   -1.9880   -1.3630    0.9057 C   0  0  0  0  0  0  0  0  0  0  0  0
   -2.3639   -2.7893    1.3292 C   0  0  0  0  0  0  0  0  0  0  0  0
   -2.6470   -1.0826   -0.4514 C   0  0  0  0  0  0  0  0  0  0  0  0
   -0.7514   -0.3954   -1.3456 H   0  0  0  0  0  0  0  0  0  0  0  0
   -0.3922    0.9029    0.8853 H   0  0  0  0  0  0  0  0  0  0  0  0
   -0.1516   -1.3762    2.0136 H   0  0  0  0  0  0  0  0  0  0  0  0
    0.0016   -2.0606    0.4074 H   0  0  0  0  0  0  0  0  0  0  0  0
   -2.4144   -0.6613    1.6308 H   0  0  0  0  0  0  0  0  0  0  0  0
   -1.9742   -3.5199    0.6124 H   0  0  0  0  0  0  0  0  0  0  0  0
   -3.4514   -2.9009    1.3823 H   0  0  0  0  0  0  0  0  0  0  0  0
   -1.9504   -3.0180    2.3165 H   0  0  0  0  0  0  0  0  0  0  0  0
   -2.1957   -1.6969   -1.2339 H   0  0  0  0  0  0  0  0  0  0  0  0
   -3.7152   -1.3177   -0.4085 H   0  0  0  0  0  0  0  0  0  0  0  0
   -2.5580   -0.0261   -0.7186 H   0  0  0  0  0  0  0  0  0  0  0  0
    1.7078    0.4501    2.4335 N   0  0  0  0  0  0  0  0  0  0  0  0
    2.9220    0.3395    3.2735 C   0  0  2  0  0  0  0  0  0  0  0  0
    4.0437    1.3613    2.9659 C   0  0  0  0  0  0  0  0  0  0  0  0
    4.6090    1.9212    3.8967 O   0  0  0  0  0  0  0  0  0  0  0  0
    3.4746   -1.0929    3.2652 C   0  0  0  0  0  0  0  0  0  0  0  0
    0.8452    0.6994    2.9072 H   0  0  0  0  0  0  0  0  0  0  0  0
    2.6081    0.5497    4.3013 H   0  0  0  0  0  0  0  0  0  0  0  0
    3.9300   -1.3379    2.3014 H   0  0  0  0  0  0  0  0  0  0  0  0
    4.2405   -1.2022    4.0394 H   0  0  0  0  0  0  0  0  0  0  0  0
    2.6743   -1.8110    3.4655 H   0  0  0  0  0  0  0  0  0  0  0  0
    4.4323    1.6497    1.6729 N   0  0  0  0  0  0  0  0  0  0  0  0
    5.4950    2.5809    1.3229 C   0  0  0  0  0  0  0  0  0  0  0  0
    3.9555    1.1288    0.9306 H   0  0  0  0  0  0  0  0  0  0  0  0
    6.4474    2.2558    1.7540 H   0  0  0  0  0  0  0  0  0  0  0  0
    5.6060    2.6323    0.2356 H   0  0  0  0  0  0  0  0  0  0  0  0
    5.2628    3.5841    1.6947 H   0  0  0  0  0  0  0  0  0  0  0  0
  1  2  2  0  0  0  0
  1  3  1  0  0  0  0
  1  7  1  0  0  0  0
  3  4  1  0  0  0  0
  3  5  1  0  0  0  0
  3  6  1  0  0  0  0
  7  8  1  0  0  0  0
  7 12  1  0  0  0  0
  8  9  1  0  0  0  0
  8 11  1  0  0  0  0
  8 13  1  0  0  0  0
  9 10  2  0  0  0  0
  9 17  1  0  0  0  0
 11 14  1  0  0  0  0
 11 15  1  0  0  0  0
 11 16  1  0  0  0  0
 17 18  1  0  0  0  0
 17 25  1  0  0  0  0
 18 19  1  0  0  0  0
 18 21  1  0  0  0  0
 18 26  1  0  0  0  0
 19 20  2  0  0  0  0
 19 36  1  0  0  0  0
 21 22  1  0  0  0  0
 21 27  1  0  0  0  0
 21 28  1  0  0  0  0
 22 23  1  0  0  0  0
 22 24  1  0  0  0  0
 22 29  1  0  0  0  0
 23 30  1  0  0  0  0
 23 31  1  0  0  0  0
 23 32  1  0  0  0  0
 24 33  1  0  0  0  0
 24 34  1  0  0  0  0
 24 35  1  0  0  0  0
 36 37  1  0  0  0  0
 36 41  1  0  0  0  0
 37 38  1  0  0  0  0
 37 40  1  0  0  0  0
 37 42  1  0  0  0  0
 38 39  2  0  0  0  0
 38 46  1  0  0  0  0
 40 43  1  0  0  0  0
 40 44  1  0  0  0  0
 40 45  1  0  0  0  0
 46 47  1  0  0  0  0
 46 48  1  0  0  0  0
 47 49  1  0  0  0  0
 47 50  1  0  0  0  0
 47 51  1  0  0  0  0
M  END
$$$$

  -OEChem-05262216553D

 51 50  0     1  0  0  0  0  0999 V2000
    0.9222   -1.9220   -3.7255 C   0  0  0  0  0  0  0  0  0  0  0  0
    0.3325   -0.9868   -3.2063 O   0  0  0  0  0  0  0  0  0  0  0  0
    0.2336   -2.7283   -4.8102 C   0  0  0  0  0  0  0  0  0  0  0  0
    0.0070   -3.7316   -4.4412 H   0  0  0  0  0  0  0  0  0  0  0  0
   -0.7004   -2.2420   -5.1063 H   0  0  0  0  0  0  0  0  0  0  0  0
    0.8804   -2.8074   -5.6876 H   0  0  0  0  0  0  0  0  0  0  0  0
    2.1861   -2.2929   -3.3050 N   0  0  0  0  0  0  0  0  0  0  0  0
    3.0163   -1.6294   -2.2766 C   0  0  2  0  0  0  0  0  0  0  0  0
    2.4674   -1.7183   -0.8355 C   0  0  0  0  0  0  0  0  0  0  0  0
    3.1568   -2.2206    0.0436 O   0  0  0  0  0  0  0  0  0  0  0  0
    3.3015   -0.1679   -2.6479 C   0  0  0  0  0  0  0  0  0  0  0  0
    2.5782   -3.1145   -3.7562 H   0  0  0  0  0  0  0  0  0  0  0  0
    3.9811   -2.1469   -2.2625 H   0  0  0  0  0  0  0  0  0  0  0  0
    2.3954    0.4419   -2.5888 H   0  0  0  0  0  0  0  0  0  0  0  0
    4.0384    0.2545   -1.9568 H   0  0  0  0  0  0  0  0  0  0  0  0
    3.7020   -0.1029   -3.6637 H   0  0  0  0  0  0  0  0  0  0  0  0
    1.1650   -1.3583   -0.5412 N   0  0  0  0  0  0  0  0  0  0  0  0
    0.7332   -0.7723    0.7426 C   0  0  2  0  0  0  0  0  0  0  0  0
    1.7838    0.0993    1.4958 C   0  0  0  0  0  0  0  0  0  0  0  0
    2.7216    0.6118    0.8940 O   0  0  0  0  0  0  0  0  0  0  0  0
    0.2143   -1.9034    1.6719 C   0  0  0  0  0  0  0  0  0  0  0  0
   -1.0798   -2.6443    1.2387 C   0  0  0  0  0  0  0  0  0  0  0  0
   -1.3158   -3.8034    2.2169 C   0  0  0  0  0  0  0  0  0  0  0  0
   -1.0688   -3.2284   -0.1828 C   0  0  0  0  0  0  0  0  0  0  0  0
    0.6668   -1.0225   -1.3698 H   0  0  0  0  0  0  0  0  0  0  0  0
   -0.1036   -0.1008    0.5299 H   0  0  0  0  0  0  0  0  0  0  0  0
    0.0237   -1.4943    2.6677 H   0  0  0  0  0  0  0  0  0  0  0  0
    1.0205   -2.6385    1.7777 H   0  0  0  0  0  0  0  0  0  0  0  0
   -1.9204   -1.9459    1.3103 H   0  0  0  0  0  0  0  0  0  0  0  0
   -0.5083   -4.5397    2.1465 H   0  0  0  0  0  0  0  0  0  0  0  0
   -2.2635   -4.3048    1.9968 H   0  0  0  0  0  0  0  0  0  0  0  0
   -1.3595   -3.4331    3.2460 H   0  0  0  0  0  0  0  0  0  0  0  0
   -0.1533   -3.8029   -0.3570 H   0  0  0  0  0  0  0  0  0  0  0  0
   -1.9262   -3.8921   -0.3319 H   0  0  0  0  0  0  0  0  0  0  0  0
   -1.1391   -2.4318   -0.9287 H   0  0  0  0  0  0  0  0  0  0  0  0
    1.4324    0.6722    2.7113 N   0  0  0  0  0  0  0  0  0  0  0  0
    2.2180    1.6307    3.5197 C   0  0  2  0  0  0  0  0  0  0  0  0
    2.2846    3.0694    2.9557 C   0  0  0  0  0  0  0  0  0  0  0  0
    2.0521    4.0155    3.6973 O   0  0  0  0  0  0  0  0  0  0  0  0
    3.6265    1.0927    3.8115 C   0  0  0  0  0  0  0  0  0  0  0  0
    0.5725    0.3242    3.1234 H   0  0  0  0  0  0  0  0  0  0  0  0
    1.7092    1.7143    4.4854 H   0  0  0  0  0  0  0  0  0  0  0  0
    4.2427    1.0797    2.9076 H   0  0  0  0  0  0  0  0  0  0  0  0
    4.1234    1.7277    4.5516 H   0  0  0  0  0  0  0  0  0  0  0  0
    3.5713    0.0751    4.2097 H   0  0  0  0  0  0  0  0  0  0  0  0
    2.6060    3.3127    1.6361 N   0  0  0  0  0  0  0  0  0  0  0  0
    2.7400    4.6401    1.0541 C   0  0  0  0  0  0  0  0  0  0  0  0
    2.8201    2.4869    1.0694 H   0  0  0  0  0  0  0  0  0  0  0  0
    3.5480    5.1923    1.5448 H   0  0  0  0  0  0  0  0  0  0  0  0
    2.9709    4.5611   -0.0125 H   0  0  0  0  0  0  0  0  0  0  0  0
    1.8081    5.2038    1.1652 H   0  0  0  0  0  0  0  0  0  0  0  0
  1  2  2  0  0  0  0
  1  3  1  0  0  0  0
  1  7  1  0  0  0  0
  3  4  1  0  0  0  0
  3  5  1  0  0  0  0
  3  6  1  0  0  0  0
  7  8  1  0  0  0  0
  7 12  1  0  0  0  0
  8  9  1  0  0  0  0
  8 11  1  0  0  0  0
  8 13  1  0  0  0  0
  9 10  2  0  0  0  0
  9 17  1  0  0  0  0
 11 14  1  0  0  0  0
 11 15  1  0  0  0  0
 11 16  1  0  0  0  0
 17 18  1  0  0  0  0
 17 25  1  0  0  0  0
 18 19  1  0  0  0  0
 18 21  1  0  0  0  0
 18 26  1  0  0  0  0
 19 20  2  0  0  0  0
 19 36  1  0  0  0  0
 21 22  1  0  0  0  0
 21 27  1  0  0  0  0
 21 28  1  0  0  0  0
 22 23  1  0  0  0  0
 22 24  1  0  0  0  0
 22 29  1  0  0  0  0
 23 30  1  0  0  0  0
 23 31  1  0  0  0  0
 23 32  1  0  0  0  0
 24 33  1  0  0  0  0
 24 34  1  0  0  0  0
 24 35  1  0  0  0  0
 36 37  1  0  0  0  0
 36 41  1  0  0  0  0
 37 38  1  0  0  0  0
 37 40  1  0  0  0  0
 37 42  1  0  0  0  0
 38 39  2  0  0  0  0
 38 46  1  0  0  0  0
 40 43  1  0  0  0  0
 40 44  1  0  0  0  0
 40 45  1  0  0  0  0
 46 47  1  0  0  0  0
 46 48  1  0  0  0  0
 47 49  1  0  0  0  0
 47 50  1  0  0  0  0
 47 51  1  0  0  0  0
M  END
$$$$

  -OEChem-05262216553D

 51 50  0     1  0  0  0  0  0999 V2000
    0.9608   -2.0833   -3.7044 C   0  0  0  0  0  0  0  0  0  0  0  0
    0.3747   -1.1101   -3.2561 O   0  0  0  0  0  0  0  0  0  0  0  0
    0.2761   -2.9557   -4.7394 C   0  0  0  0  0  0  0  0  0  0  0  0
    0.1581   -3.9712   -4.3535 H   0  0  0  0  0  0  0  0  0  0  0  0
   -0.7129   -2.5538   -4.9777 H   0  0  0  0  0  0  0  0  0  0  0  0
    0.8717   -2.9871   -5.6551 H   0  0  0  0  0  0  0  0  0  0  0  0
    2.2190   -2.4332   -3.2504 N   0  0  0  0  0  0  0  0  0  0  0  0
    3.0418   -1.7127   -2.2546 C   0  0  2  0  0  0  0  0  0  0  0  0
    2.4762   -1.7160   -0.8175 C   0  0  0  0  0  0  0  0  0  0  0  0
    3.1515   -2.1733    0.0967 O   0  0  0  0  0  0  0  0  0  0  0  0
    3.3362   -0.2765   -2.7089 C   0  0  0  0  0  0  0  0  0  0  0  0
    2.6086   -3.2851   -3.6439 H   0  0  0  0  0  0  0  0  0  0  0  0
    4.0046   -2.2310   -2.1992 H   0  0  0  0  0  0  0  0  0  0  0  0
    2.4322    0.3391   -2.6951 H   0  0  0  0  0  0  0  0  0  0  0  0
    4.0674    0.1844   -2.0366 H   0  0  0  0  0  0  0  0  0  0  0  0
    3.7467   -0.2729   -3.7230 H   0  0  0  0  0  0  0  0  0  0  0  0
    1.1746   -1.3248   -0.5627 N   0  0  0  0  0  0  0  0  0  0  0  0
    0.7132   -0.7393    0.7102 C   0  0  2  0  0  0  0  0  0  0  0  0
    1.7853    0.0907    1.4802 C   0  0  0  0  0  0  0  0  0  0  0  0
    2.6124    0.7408    0.8480 O   0  0  0  0  0  0  0  0  0  0  0  0
    0.1161   -1.8654    1.5987 C   0  0  0  0  0  0  0  0  0  0  0  0
   -1.1847   -2.5498    1.0975 C   0  0  0  0  0  0  0  0  0  0  0  0
   -1.5056   -3.7151    2.0428 C   0  0  0  0  0  0  0  0  0  0  0  0
   -1.1380   -3.1134   -0.3315 C   0  0  0  0  0  0  0  0  0  0  0  0
    0.6907   -1.0070   -1.4069 H   0  0  0  0  0  0  0  0  0  0  0  0
   -0.0898   -0.0328    0.4809 H   0  0  0  0  0  0  0  0  0  0  0  0
   -0.1101   -1.4643    2.5896 H   0  0  0  0  0  0  0  0  0  0  0  0
    0.8904   -2.6301    1.7286 H   0  0  0  0  0  0  0  0  0  0  0  0
   -2.0000   -1.8201    1.1458 H   0  0  0  0  0  0  0  0  0  0  0  0
   -0.7244   -4.4806    1.9911 H   0  0  0  0  0  0  0  0  0  0  0  0
   -2.4614   -4.1754    1.7736 H   0  0  0  0  0  0  0  0  0  0  0  0
   -1.5790   -3.3620    3.0759 H   0  0  0  0  0  0  0  0  0  0  0  0
   -0.2404   -3.7230   -0.4772 H   0  0  0  0  0  0  0  0  0  0  0  0
   -2.0148   -3.7388   -0.5266 H   0  0  0  0  0  0  0  0  0  0  0  0
   -1.1455   -2.3046   -1.0674 H   0  0  0  0  0  0  0  0  0  0  0  0
    1.5917    0.4267    2.8139 N   0  0  0  0  0  0  0  0  0  0  0  0
    2.4539    1.2774    3.6629 C   0  0  2  0  0  0  0  0  0  0  0  0
    2.3905    2.7913    3.3555 C   0  0  0  0  0  0  0  0  0  0  0  0
    2.2051    3.5827    4.2713 O   0  0  0  0  0  0  0  0  0  0  0  0
    3.9062    0.7782    3.6570 C   0  0  0  0  0  0  0  0  0  0  0  0
    0.8323   -0.0601    3.2784 H   0  0  0  0  0  0  0  0  0  0  0  0
    2.0881    1.1676    4.6890 H   0  0  0  0  0  0  0  0  0  0  0  0
    4.3837    0.9568    2.6891 H   0  0  0  0  0  0  0  0  0  0  0  0
    4.4860    1.3024    4.4230 H   0  0  0  0  0  0  0  0  0  0  0  0
    3.9415   -0.2946    3.8692 H   0  0  0  0  0  0  0  0  0  0  0  0
    2.5431    3.2723    2.0714 N   0  0  0  0  0  0  0  0  0  0  0  0
    2.5314    4.6842    1.7171 C   0  0  0  0  0  0  0  0  0  0  0  0
    2.7105    2.5679    1.3469 H   0  0  0  0  0  0  0  0  0  0  0  0
    2.6479    4.8020    0.6356 H   0  0  0  0  0  0  0  0  0  0  0  0
    1.5848    5.1467    2.0155 H   0  0  0  0  0  0  0  0  0  0  0  0
    3.3535    5.2096    2.2141 H   0  0  0  0  0  0  0  0  0  0  0  0
  1  2  2  0  0  0  0
  1  3  1  0  0  0  0
  1  7  1  0  0  0  0
  3  4  1  0  0  0  0
  3  5  1  0  0  0  0
  3  6  1  0  0  0  0
  7  8  1  0  0  0  0
  7 12  1  0  0  0  0
  8  9  1  0  0  0  0
  8 11  1  0  0  0  0
  8 13  1  0  0  0  0
  9 10  2  0  0  0  0
  9 17  1  0  0  0  0
 11 14  1  0  0  0  0
 11 15  1  0  0  0  0
 11 16  1  0  0  0  0
 17 18  1  0  0  0  0
 17 25  1  0  0  0  0
 18 19  1  0  0  0  0
 18 21  1  0  0  0  0
 18 26  1  0  0  0  0
 19 20  2  0  0  0  0
 19 36  1  0  0  0  0
 21 22  1  0  0  0  0
 21 27  1  0  0  0  0
 21 28  1  0  0  0  0
 22 23  1  0  0  0  0
 22 24  1  0  0  0  0
 22 29  1  0  0  0  0
 23 30  1  0  0  0  0
 23 31  1  0  0  0  0
 23 32  1  0  0  0  0
 24 33  1  0  0  0  0
 24 34  1  0  0  0  0
 24 35  1  0  0  0  0
 36 37  1  0  0  0  0
 36 41  1  0  0  0  0
 37 38  1  0  0  0  0
 37 40  1  0  0  0  0
 37 42  1  0  0  0  0
 38 39  2  0  0  0  0
 38 46  1  0  0  0  0
 40 43  1  0  0  0  0
 40 44  1  0  0  0  0
 40 45  1  0  0  0  0
 46 47  1  0  0  0  0
 46 48  1  0  0  0  0
 47 49  1  0  0  0  0
 47 50  1  0  0  0  0
 47 51  1  0  0  0  0
M  END
$$$$

  -OEChem-05262216553D

 51 50  0     1  0  0  0  0  0999 V2000
    0.7826   -2.0267   -3.7405 C   0  0  0  0  0  0  0  0  0  0  0  0
    0.1839   -1.0911   -3.2331 O   0  0  0  0  0  0  0  0  0  0  0  0
    0.0876   -2.8805   -4.7843 C   0  0  0  0  0  0  0  0  0  0  0  0
   -0.0186   -3.9049   -4.4191 H   0  0  0  0  0  0  0  0  0  0  0  0
   -0.9068   -2.4786   -4.9996 H   0  0  0  0  0  0  0  0  0  0  0  0
    0.6696   -2.8887   -5.7091 H   0  0  0  0  0  0  0  0  0  0  0  0
    2.0687   -2.3497   -3.3478 N   0  0  0  0  0  0  0  0  0  0  0  0
    2.9140   -1.6243   -2.3749 C   0  0  2  0  0  0  0  0  0  0  0  0
    2.4203   -1.6774   -0.9120 C   0  0  0  0  0  0  0  0  0  0  0  0
    3.1682   -2.0994   -0.0377 O   0  0  0  0  0  0  0  0  0  0  0  0
    3.1375   -0.1691   -2.8090 C   0  0  0  0  0  0  0  0  0  0  0  0
    2.4725   -3.1702   -3.7907 H   0  0  0  0  0  0  0  0  0  0  0  0
    3.8949   -2.1111   -2.3793 H   0  0  0  0  0  0  0  0  0  0  0  0
    2.2165    0.4161   -2.7316 H   0  0  0  0  0  0  0  0  0  0  0  0
    3.8895    0.3001   -2.1661 H   0  0  0  0  0  0  0  0  0  0  0  0
    3.4910   -0.1289   -3.8434 H   0  0  0  0  0  0  0  0  0  0  0  0
    1.1194   -1.3403   -0.5843 N   0  0  0  0  0  0  0  0  0  0  0  0
    0.7059   -0.8045    0.7266 C   0  0  2  0  0  0  0  0  0  0  0  0
    1.8109    0.0347    1.4347 C   0  0  0  0  0  0  0  0  0  0  0  0
    2.4267    0.8647    0.7724 O   0  0  0  0  0  0  0  0  0  0  0  0
    0.1725   -1.9548    1.6232 C   0  0  0  0  0  0  0  0  0  0  0  0
   -1.1392   -2.6524    1.1733 C   0  0  0  0  0  0  0  0  0  0  0  0
   -1.3959   -3.8394    2.1119 C   0  0  0  0  0  0  0  0  0  0  0  0
   -1.1477   -3.1864   -0.2675 C   0  0  0  0  0  0  0  0  0  0  0  0
    0.5798   -1.0232   -1.3948 H   0  0  0  0  0  0  0  0  0  0  0  0
   -0.1212   -0.1085    0.5585 H   0  0  0  0  0  0  0  0  0  0  0  0
   -0.0195   -1.5660    2.6268 H   0  0  0  0  0  0  0  0  0  0  0  0
    0.9652   -2.7069    1.7073 H   0  0  0  0  0  0  0  0  0  0  0  0
   -1.9632   -1.9381    1.2735 H   0  0  0  0  0  0  0  0  0  0  0  0
   -0.6027   -4.5880    2.0161 H   0  0  0  0  0  0  0  0  0  0  0  0
   -2.3529   -4.3153    1.8758 H   0  0  0  0  0  0  0  0  0  0  0  0
   -1.4328   -3.5035    3.1529 H   0  0  0  0  0  0  0  0  0  0  0  0
   -0.2461   -3.7741   -0.4675 H   0  0  0  0  0  0  0  0  0  0  0  0
   -2.0203   -3.8253   -0.4344 H   0  0  0  0  0  0  0  0  0  0  0  0
   -1.2051   -2.3630   -0.9846 H   0  0  0  0  0  0  0  0  0  0  0  0
    1.9028    0.1013    2.8182 N   0  0  0  0  0  0  0  0  0  0  0  0
    2.8831    0.8725    3.6122 C   0  0  2  0  0  0  0  0  0  0  0  0
    2.6573    2.4021    3.6289 C   0  0  0  0  0  0  0  0  0  0  0  0
    2.6567    2.9968    4.6994 O   0  0  0  0  0  0  0  0  0  0  0  0
    4.3222    0.5338    3.1969 C   0  0  0  0  0  0  0  0  0  0  0  0
    1.3615   -0.5961    3.3181 H   0  0  0  0  0  0  0  0  0  0  0  0
    2.7707    0.5453    4.6509 H   0  0  0  0  0  0  0  0  0  0  0  0
    4.5530    0.9283    2.2030 H   0  0  0  0  0  0  0  0  0  0  0  0
    5.0300    0.9699    3.9087 H   0  0  0  0  0  0  0  0  0  0  0  0
    4.4687   -0.5505    3.1822 H   0  0  0  0  0  0  0  0  0  0  0  0
    2.4569    3.1147    2.4643 N   0  0  0  0  0  0  0  0  0  0  0  0
    2.2608    4.5562    2.4084 C   0  0  0  0  0  0  0  0  0  0  0  0
    2.4860    2.5718    1.5963 H   0  0  0  0  0  0  0  0  0  0  0  0
    2.1035    4.8752    1.3737 H   0  0  0  0  0  0  0  0  0  0  0  0
    1.3847    4.8465    2.9976 H   0  0  0  0  0  0  0  0  0  0  0  0
    3.1393    5.0772    2.8026 H   0  0  0  0  0  0  0  0  0  0  0  0
  1  2  2  0  0  0  0
  1  3  1  0  0  0  0
  1  7  1  0  0  0  0
  3  4  1  0  0  0  0
  3  5  1  0  0  0  0
  3  6  1  0  0  0  0
  7  8  1  0  0  0  0
  7 12  1  0  0  0  0
  8  9  1  0  0  0  0
  8 11  1  0  0  0  0
  8 13  1  0  0  0  0
  9 10  2  0  0  0  0
  9 17  1  0  0  0  0
 11 14  1  0  0  0  0
 11 15  1  0  0  0  0
 11 16  1  0  0  0  0
 17 18  1  0  0  0  0
 17 25  1  0  0  0  0
 18 19  1  0  0  0  0
 18 21  1  0  0  0  0
 18 26  1  0  0  0  0
 19 20  2  0  0  0  0
 19 36  1  0  0  0  0
 21 22  1  0  0  0  0
 21 27  1  0  0  0  0
 21 28  1  0  0  0  0
 22 23  1  0  0  0  0
 22 24  1  0  0  0  0
 22 29  1  0  0  0  0
 23 30  1  0  0  0  0
 23 31  1  0  0  0  0
 23 32  1  0  0  0  0
 24 33  1  0  0  0  0
 24 34  1  0  0  0  0
 24 35  1  0  0  0  0
 36 37  1  0  0  0  0
 36 41  1  0  0  0  0
 37 38  1  0  0  0  0
 37 40  1  0  0  0  0
 37 42  1  0  0  0  0
 38 39  2  0  0  0  0
 38 46  1  0  0  0  0
 40 43  1  0  0  0  0
 40 44  1  0  0  0  0
 40 45  1  0  0  0  0
 46 47  1  0  0  0  0
 46 48  1  0  0  0  0
 47 49  1  0  0  0  0
 47 50  1  0  0  0  0
 47 51  1  0  0  0  0
M  END
$$$$

  -OEChem-05262216553D

 51 50  0     1  0  0  0  0  0999 V2000
    0.6916   -1.9695   -3.7865 C   0  0  0  0  0  0  0  0  0  0  0  0
    0.0497   -1.0989   -3.2200 O   0  0  0  0  0  0  0  0  0  0  0  0
    0.0334   -2.7939   -4.8770 C   0  0  0  0  0  0  0  0  0  0  0  0
    0.0234   -3.8494   -4.5939 H   0  0  0  0  0  0  0  0  0  0  0  0
   -0.9971   -2.4611   -5.0314 H   0  0  0  0  0  0  0  0  0  0  0  0
    0.5827   -2.6798   -5.8149 H   0  0  0  0  0  0  0  0  0  0  0  0
    1.9979   -2.2431   -3.4252 N   0  0  0  0  0  0  0  0  0  0  0  0
    2.8218   -1.5169   -2.4345 C   0  0  2  0  0  0  0  0  0  0  0  0
    2.3565   -1.6434   -0.9664 C   0  0  0  0  0  0  0  0  0  0  0  0
    3.1492   -2.0303   -0.1154 O   0  0  0  0  0  0  0  0  0  0  0  0
    2.9715   -0.0379   -2.8180 C   0  0  0  0  0  0  0  0  0  0  0  0
    2.4436   -3.0046   -3.9289 H   0  0  0  0  0  0  0  0  0  0  0  0
    3.8235   -1.9576   -2.4698 H   0  0  0  0  0  0  0  0  0  0  0  0
    2.0229    0.4981   -2.7172 H   0  0  0  0  0  0  0  0  0  0  0  0
    3.7027    0.4458   -2.1620 H   0  0  0  0  0  0  0  0  0  0  0  0
    3.3176    0.0558   -3.8515 H   0  0  0  0  0  0  0  0  0  0  0  0
    1.0501   -1.3704   -0.6021 N   0  0  0  0  0  0  0  0  0  0  0  0
    0.6499   -0.8755    0.7285 C   0  0  2  0  0  0  0  0  0  0  0  0
    1.7452   -0.0048    1.4081 C   0  0  0  0  0  0  0  0  0  0  0  0
    2.1785    0.9625    0.7901 O   0  0  0  0  0  0  0  0  0  0  0  0
    0.1805   -2.0510    1.6267 C   0  0  0  0  0  0  0  0  0  0  0  0
   -1.1182   -2.7881    1.2036 C   0  0  0  0  0  0  0  0  0  0  0  0
   -1.3118   -3.9930    2.1346 C   0  0  0  0  0  0  0  0  0  0  0  0
   -1.1483   -3.3014   -0.2439 C   0  0  0  0  0  0  0  0  0  0  0  0
    0.4761   -1.0625   -1.3923 H   0  0  0  0  0  0  0  0  0  0  0  0
   -0.2060   -0.2073    0.5930 H   0  0  0  0  0  0  0  0  0  0  0  0
    0.0058   -1.6731    2.6387 H   0  0  0  0  0  0  0  0  0  0  0  0
    0.9986   -2.7780    1.6807 H   0  0  0  0  0  0  0  0  0  0  0  0
   -1.9627   -2.1031    1.3353 H   0  0  0  0  0  0  0  0  0  0  0  0
   -0.4961   -4.7129    2.0114 H   0  0  0  0  0  0  0  0  0  0  0  0
   -2.2569   -4.4997    1.9153 H   0  0  0  0  0  0  0  0  0  0  0  0
   -1.3349   -3.6694    3.1799 H   0  0  0  0  0  0  0  0  0  0  0  0
   -0.2346   -3.8579   -0.4756 H   0  0  0  0  0  0  0  0  0  0  0  0
   -2.0053   -3.9642   -0.3984 H   0  0  0  0  0  0  0  0  0  0  0  0
   -1.2494   -2.4697   -0.9466 H   0  0  0  0  0  0  0  0  0  0  0  0
    2.0979   -0.1672    2.7402 N   0  0  0  0  0  0  0  0  0  0  0  0
    3.1828    0.5313    3.4623 C   0  0  2  0  0  0  0  0  0  0  0  0
    2.9227    2.0226    3.7788 C   0  0  0  0  0  0  0  0  0  0  0  0
    3.1890    2.4536    4.8937 O   0  0  0  0  0  0  0  0  0  0  0  0
    4.5251    0.3537    2.7384 C   0  0  0  0  0  0  0  0  0  0  0  0
    1.7427   -1.0157    3.1691 H   0  0  0  0  0  0  0  0  0  0  0  0
    3.2793    0.0366    4.4340 H   0  0  0  0  0  0  0  0  0  0  0  0
    4.5494    0.9201    1.8029 H   0  0  0  0  0  0  0  0  0  0  0  0
    5.3427    0.7095    3.3730 H   0  0  0  0  0  0  0  0  0  0  0  0
    4.6975   -0.7025    2.5089 H   0  0  0  0  0  0  0  0  0  0  0  0
    2.4200    2.8875    2.8280 N   0  0  0  0  0  0  0  0  0  0  0  0
    2.2492    4.3187    3.0338 C   0  0  0  0  0  0  0  0  0  0  0  0
    2.2860    2.4923    1.8929 H   0  0  0  0  0  0  0  0  0  0  0  0
    1.8005    4.7755    2.1465 H   0  0  0  0  0  0  0  0  0  0  0  0
    1.5925    4.5074    3.8895 H   0  0  0  0  0  0  0  0  0  0  0  0
    3.2169    4.7964    3.2193 H   0  0  0  0  0  0  0  0  0  0  0  0
  1  2  2  0  0  0  0
  1  3  1  0  0  0  0
  1  7  1  0  0  0  0
  3  4  1  0  0  0  0
  3  5  1  0  0  0  0
  3  6  1  0  0  0  0
  7  8  1  0  0  0  0
  7 12  1  0  0  0  0
  8  9  1  0  0  0  0
  8 11  1  0  0  0  0
  8 13  1  0  0  0  0
  9 10  2  0  0  0  0
  9 17  1  0  0  0  0
 11 14  1  0  0  0  0
 11 15  1  0  0  0  0
 11 16  1  0  0  0  0
 17 18  1  0  0  0  0
 17 25  1  0  0  0  0
 18 19  1  0  0  0  0
 18 21  1  0  0  0  0
 18 26  1  0  0  0  0
 19 20  2  0  0  0  0
 19 36  1  0  0  0  0
 21 22  1  0  0  0  0
 21 27  1  0  0  0  0
 21 28  1  0  0  0  0
 22 23  1  0  0  0  0
 22 24  1  0  0  0  0
 22 29  1  0  0  0  0
 23 30  1  0  0  0  0
 23 31  1  0  0  0  0
 23 32  1  0  0  0  0
 24 33  1  0  0  0  0
 24 34  1  0  0  0  0
 24 35  1  0  0  0  0
 36 37  1  0  0  0  0
 36 41  1  0  0  0  0
 37 38  1  0  0  0  0
 37 40  1  0  0  0  0
 37 42  1  0  0  0  0
 38 39  2  0  0  0  0
 38 46  1  0  0  0  0
 40 43  1  0  0  0  0
 40 44  1  0  0  0  0
 40 45  1  0  0  0  0
 46 47  1  0  0  0  0
 46 48  1  0  0  0  0
 47 49  1  0  0  0  0
 47 50  1  0  0  0  0
 47 51  1  0  0  0  0
M  END
$$$$

  -OEChem-05262216553D

 51 50  0     1  0  0  0  0  0999 V2000
    0.5744   -2.1131   -3.7722 C   0  0  0  0  0  0  0  0  0  0  0  0
   -0.0107   -1.1622   -3.2778 O   0  0  0  0  0  0  0  0  0  0  0  0
   -0.1713   -3.0472   -4.7061 C   0  0  0  0  0  0  0  0  0  0  0  0
   -0.1988   -4.0545   -4.2832 H   0  0  0  0  0  0  0  0  0  0  0  0
   -1.1977   -2.6978   -4.8496 H   0  0  0  0  0  0  0  0  0  0  0  0
    0.3264   -3.0805   -5.6783 H   0  0  0  0  0  0  0  0  0  0  0  0
    1.8925   -2.3838   -3.4539 N   0  0  0  0  0  0  0  0  0  0  0  0
    2.7801   -1.5911   -2.5754 C   0  0  2  0  0  0  0  0  0  0  0  0
    2.3858   -1.5849   -1.0809 C   0  0  0  0  0  0  0  0  0  0  0  0
    3.2087   -1.9322   -0.2424 O   0  0  0  0  0  0  0  0  0  0  0  0
    2.9368   -0.1551   -3.0948 C   0  0  0  0  0  0  0  0  0  0  0  0
    2.2873   -3.2157   -3.8839 H   0  0  0  0  0  0  0  0  0  0  0  0
    3.7707   -2.0555   -2.6226 H   0  0  0  0  0  0  0  0  0  0  0  0
    2.0088    0.4135   -2.9824 H   0  0  0  0  0  0  0  0  0  0  0  0
    3.7201    0.3619   -2.5313 H   0  0  0  0  0  0  0  0  0  0  0  0
    3.2173   -0.1605   -4.1522 H   0  0  0  0  0  0  0  0  0  0  0  0
    1.0960   -1.2808   -0.6850 N   0  0  0  0  0  0  0  0  0  0  0  0
    0.7079   -0.8094    0.6567 C   0  0  2  0  0  0  0  0  0  0  0  0
    1.8181    0.0150    1.3651 C   0  0  0  0  0  0  0  0  0  0  0  0
    2.1115    1.1083    0.8937 O   0  0  0  0  0  0  0  0  0  0  0  0
    0.2121   -1.9927    1.5289 C   0  0  0  0  0  0  0  0  0  0  0  0
   -1.1032   -2.6925    1.0945 C   0  0  0  0  0  0  0  0  0  0  0  0
   -1.3200   -3.9115    2.0016 C   0  0  0  0  0  0  0  0  0  0  0  0
   -1.1447   -3.1775   -0.3627 C   0  0  0  0  0  0  0  0  0  0  0  0
    0.4885   -1.0079   -1.4630 H   0  0  0  0  0  0  0  0  0  0  0  0
   -0.1319   -0.1180    0.5367 H   0  0  0  0  0  0  0  0  0  0  0  0
    0.0541   -1.6292    2.5497 H   0  0  0  0  0  0  0  0  0  0  0  0
    1.0117   -2.7410    1.5625 H   0  0  0  0  0  0  0  0  0  0  0  0
   -1.9329   -1.9926    1.2411 H   0  0  0  0  0  0  0  0  0  0  0  0
   -0.5263   -4.6510    1.8546 H   0  0  0  0  0  0  0  0  0  0  0  0
   -2.2814   -4.3867    1.7822 H   0  0  0  0  0  0  0  0  0  0  0  0
   -1.3227   -3.6097    3.0536 H   0  0  0  0  0  0  0  0  0  0  0  0
   -0.2390   -3.7403   -0.6096 H   0  0  0  0  0  0  0  0  0  0  0  0
   -2.0101   -3.8269   -0.5278 H   0  0  0  0  0  0  0  0  0  0  0  0
   -1.2385   -2.3298   -1.0465 H   0  0  0  0  0  0  0  0  0  0  0  0
    2.3688   -0.3812    2.5754 N   0  0  0  0  0  0  0  0  0  0  0  0
    3.4828    0.2655    3.3002 C   0  0  2  0  0  0  0  0  0  0  0  0
    3.1489    1.6305    3.9453 C   0  0  0  0  0  0  0  0  0  0  0  0
    3.4744    1.8426    5.1068 O   0  0  0  0  0  0  0  0  0  0  0  0
    4.7297    0.3709    2.4113 C   0  0  0  0  0  0  0  0  0  0  0  0
    2.1570   -1.3399    2.8339 H   0  0  0  0  0  0  0  0  0  0  0  0
    3.7416   -0.3987    4.1310 H   0  0  0  0  0  0  0  0  0  0  0  0
    4.5880    1.1069    1.6146 H   0  0  0  0  0  0  0  0  0  0  0  0
    5.5922    0.6792    3.0105 H   0  0  0  0  0  0  0  0  0  0  0  0
    4.9529   -0.5980    1.9539 H   0  0  0  0  0  0  0  0  0  0  0  0
    2.5023    2.6235    3.2380 N   0  0  0  0  0  0  0  0  0  0  0  0
    2.2057    3.9457    3.7688 C   0  0  0  0  0  0  0  0  0  0  0  0
    2.2890    2.4106    2.2594 H   0  0  0  0  0  0  0  0  0  0  0  0
    3.1318    4.4702    4.0255 H   0  0  0  0  0  0  0  0  0  0  0  0
    1.6657    4.5377    3.0238 H   0  0  0  0  0  0  0  0  0  0  0  0
    1.5830    3.8668    4.6661 H   0  0  0  0  0  0  0  0  0  0  0  0
  1  2  2  0  0  0  0
  1  3  1  0  0  0  0
  1  7  1  0  0  0  0
  3  4  1  0  0  0  0
  3  5  1  0  0  0  0
  3  6  1  0  0  0  0
  7  8  1  0  0  0  0
  7 12  1  0  0  0  0
  8  9  1  0  0  0  0
  8 11  1  0  0  0  0
  8 13  1  0  0  0  0
  9 10  2  0  0  0  0
  9 17  1  0  0  0  0
 11 14  1  0  0  0  0
 11 15  1  0  0  0  0
 11 16  1  0  0  0  0
 17 18  1  0  0  0  0
 17 25  1  0  0  0  0
 18 19  1  0  0  0  0
 18 21  1  0  0  0  0
 18 26  1  0  0  0  0
 19 20  2  0  0  0  0
 19 36  1  0  0  0  0
 21 22  1  0  0  0  0
 21 27  1  0  0  0  0
 21 28  1  0  0  0  0
 22 23  1  0  0  0  0
 22 24  1  0  0  0  0
 22 29  1  0  0  0  0
 23 30  1  0  0  0  0
 23 31  1  0  0  0  0
 23 32  1  0  0  0  0
 24 33  1  0  0  0  0
 24 34  1  0  0  0  0
 24 35  1  0  0  0  0
 36 37  1  0  0  0  0
 36 41  1  0  0  0  0
 37 38  1  0  0  0  0
 37 40  1  0  0  0  0
 37 42  1  0  0  0  0
 38 39  2  0  0  0  0
 38 46  1  0  0  0  0
 40 43  1  0  0  0  0
 40 44  1  0  0  0  0
 40 45  1  0  0  0  0
 46 47  1  0  0  0  0
 46 48  1  0  0  0  0
 47 49  1  0  0  0  0
 47 50  1  0  0  0  0
 47 51  1  0  0  0  0
M  END
$$$$

  -OEChem-05262216553D

 51 50  0     1  0  0  0  0  0999 V2000
    0.4440   -2.0891   -3.8178 C   0  0  0  0  0  0  0  0  0  0  0  0
   -0.1222   -1.1516   -3.2786 O   0  0  0  0  0  0  0  0  0  0  0  0
   -0.3335   -2.9919   -4.7565 C   0  0  0  0  0  0  0  0  0  0  0  0
   -0.3639   -4.0086   -4.3573 H   0  0  0  0  0  0  0  0  0  0  0  0
   -1.3590   -2.6275   -4.8677 H   0  0  0  0  0  0  0  0  0  0  0  0
    0.1417   -3.0071   -5.7405 H   0  0  0  0  0  0  0  0  0  0  0  0
    1.7701   -2.3710   -3.5454 N   0  0  0  0  0  0  0  0  0  0  0  0
    2.6918   -1.5879   -2.6937 C   0  0  2  0  0  0  0  0  0  0  0  0
    2.3555   -1.5871   -1.1845 C   0  0  0  0  0  0  0  0  0  0  0  0
    3.2231   -1.9032   -0.3796 O   0  0  0  0  0  0  0  0  0  0  0  0
    2.8370   -0.1503   -3.2119 C   0  0  0  0  0  0  0  0  0  0  0  0
    2.1526   -3.1872   -4.0150 H   0  0  0  0  0  0  0  0  0  0  0  0
    3.6778   -2.0563   -2.7799 H   0  0  0  0  0  0  0  0  0  0  0  0
    1.9135    0.4188   -3.0704 H   0  0  0  0  0  0  0  0  0  0  0  0
    3.6375    0.3642   -2.6708 H   0  0  0  0  0  0  0  0  0  0  0  0
    3.0866   -0.1521   -4.2770 H   0  0  0  0  0  0  0  0  0  0  0  0
    1.0773   -1.3110   -0.7348 N   0  0  0  0  0  0  0  0  0  0  0  0
    0.7290   -0.8551    0.6231 C   0  0  2  0  0  0  0  0  0  0  0  0
    1.8367   -0.0112    1.3077 C   0  0  0  0  0  0  0  0  0  0  0  0
    1.9250    1.1741    1.0092 O   0  0  0  0  0  0  0  0  0  0  0  0
    0.2945   -2.0468    1.5139 C   0  0  0  0  0  0  0  0  0  0  0  0
   -1.0208   -2.7750    1.1313 C   0  0  0  0  0  0  0  0  0  0  0  0
   -1.1760   -3.9976    2.0459 C   0  0  0  0  0  0  0  0  0  0  0  0
   -1.1103   -3.2587   -0.3239 C   0  0  0  0  0  0  0  0  0  0  0  0
    0.4305   -1.0545   -1.4866 H   0  0  0  0  0  0  0  0  0  0  0  0
   -0.1323   -0.1852    0.5348 H   0  0  0  0  0  0  0  0  0  0  0  0
    0.1783   -1.6843    2.5411 H   0  0  0  0  0  0  0  0  0  0  0  0
    1.1084   -2.7802    1.5132 H   0  0  0  0  0  0  0  0  0  0  0  0
   -1.8582   -2.0925    1.3120 H   0  0  0  0  0  0  0  0  0  0  0  0
   -0.3691   -4.7169    1.8726 H   0  0  0  0  0  0  0  0  0  0  0  0
   -2.1322   -4.4966    1.8595 H   0  0  0  0  0  0  0  0  0  0  0  0
   -1.1514   -3.6937    3.0972 H   0  0  0  0  0  0  0  0  0  0  0  0
   -0.2054   -3.8058   -0.6067 H   0  0  0  0  0  0  0  0  0  0  0  0
   -1.9708   -3.9222   -0.4552 H   0  0  0  0  0  0  0  0  0  0  0  0
   -1.2454   -2.4124   -1.0026 H   0  0  0  0  0  0  0  0  0  0  0  0
    2.6369   -0.5365    2.3113 N   0  0  0  0  0  0  0  0  0  0  0  0
    3.7824    0.1254    2.9699 C   0  0  2  0  0  0  0  0  0  0  0  0
    3.4160    1.3004    3.9065 C   0  0  0  0  0  0  0  0  0  0  0  0
    3.8567    1.3204    5.0490 O   0  0  0  0  0  0  0  0  0  0  0  0
    4.8372    0.5516    1.9392 C   0  0  0  0  0  0  0  0  0  0  0  0
    2.6228   -1.5523    2.3477 H   0  0  0  0  0  0  0  0  0  0  0  0
    4.2519   -0.6284    3.6102 H   0  0  0  0  0  0  0  0  0  0  0  0
    4.4771    1.3799    1.3220 H   0  0  0  0  0  0  0  0  0  0  0  0
    5.7488    0.8775    2.4495 H   0  0  0  0  0  0  0  0  0  0  0  0
    5.0881   -0.2880    1.2833 H   0  0  0  0  0  0  0  0  0  0  0  0
    2.6083    2.3356    3.4810 N   0  0  0  0  0  0  0  0  0  0  0  0
    2.1962    3.4539    4.3165 C   0  0  0  0  0  0  0  0  0  0  0  0
    2.2500    2.2591    2.5250 H   0  0  0  0  0  0  0  0  0  0  0  0
    3.0709    3.9730    4.7218 H   0  0  0  0  0  0  0  0  0  0  0  0
    1.6132    4.1682    3.7273 H   0  0  0  0  0  0  0  0  0  0  0  0
    1.5770    3.1016    5.1476 H   0  0  0  0  0  0  0  0  0  0  0  0
  1  2  2  0  0  0  0
  1  3  1  0  0  0  0
  1  7  1  0  0  0  0
  3  4  1  0  0  0  0
  3  5  1  0  0  0  0
  3  6  1  0  0  0  0
  7  8  1  0  0  0  0
  7 12  1  0  0  0  0
  8  9  1  0  0  0  0
  8 11  1  0  0  0  0
  8 13  1  0  0  0  0
  9 10  2  0  0  0  0
  9 17  1  0  0  0  0
 11 14  1  0  0  0  0
 11 15  1  0  0  0  0
 11 16  1  0  0  0  0
 17 18  1  0  0  0  0
 17 25  1  0  0  0  0
 18 19  1  0  0  0  0
 18 21  1  0  0  0  0
 18 26  1  0  0  0  0
 19 20  2  0  0  0  0
 19 36  1  0  0  0  0
 21 22  1  0  0  0  0
 21 27  1  0  0  0  0
 21 28  1  0  0  0  0
 22 23  1  0  0  0  0
 22 24  1  0  0  0  0
 22 29  1  0  0  0  0
 23 30  1  0  0  0  0
 23 31  1  0  0  0  0
 23 32  1  0  0  0  0
 24 33  1  0  0  0  0
 24 34  1  0  0  0  0
 24 35  1  0  0  0  0
 36 37  1  0  0  0  0
 36 41  1  0  0  0  0
 37 38  1  0  0  0  0
 37 40  1  0  0  0  0
 37 42  1  0  0  0  0
 38 39  2  0  0  0  0
 38 46  1  0  0  0  0
 40 43  1  0  0  0  0
 40 44  1  0  0  0  0
 40 45  1  0  0  0  0
 46 47  1  0  0  0  0
 46 48  1  0  0  0  0
 47 49  1  0  0  0  0
 47 50  1  0  0  0  0
 47 51  1  0  0  0  0
M  END
$$$$

  -OEChem-05262216553D

 51 50  0     1  0  0  0  0  0999 V2000
    0.3329   -2.1385   -3.8627 C   0  0  0  0  0  0  0  0  0  0  0  0
   -0.2412   -1.2115   -3.3136 O   0  0  0  0  0  0  0  0  0  0  0  0
   -0.4534   -3.0884   -4.7464 C   0  0  0  0  0  0  0  0  0  0  0  0
   -0.4353   -4.0957   -4.3229 H   0  0  0  0  0  0  0  0  0  0  0  0
   -1.4934   -2.7581   -4.8228 H   0  0  0  0  0  0  0  0  0  0  0  0
   -0.0192   -3.1136   -5.7490 H   0  0  0  0  0  0  0  0  0  0  0  0
    1.6797   -2.3661   -3.6477 N   0  0  0  0  0  0  0  0  0  0  0  0
    2.6063   -1.5388   -2.8453 C   0  0  2  0  0  0  0  0  0  0  0  0
    2.3355   -1.5418   -1.3231 C   0  0  0  0  0  0  0  0  0  0  0  0
    3.2423   -1.8437   -0.5575 O   0  0  0  0  0  0  0  0  0  0  0  0
    2.6695   -0.1000   -3.3780 C   0  0  0  0  0  0  0  0  0  0  0  0
    2.0681   -3.1833   -4.1106 H   0  0  0  0  0  0  0  0  0  0  0  0
    3.6059   -1.9675   -2.9737 H   0  0  0  0  0  0  0  0  0  0  0  0
    1.7320    0.4337   -3.1970 H   0  0  0  0  0  0  0  0  0  0  0  0
    3.4733    0.4494   -2.8776 H   0  0  0  0  0  0  0  0  0  0  0  0
    2.8686   -0.0992   -4.4539 H   0  0  0  0  0  0  0  0  0  0  0  0
    1.0717   -1.2964   -0.8184 N   0  0  0  0  0  0  0  0  0  0  0  0
    0.7513   -0.8629    0.5550 C   0  0  2  0  0  0  0  0  0  0  0  0
    1.8415    0.0016    1.2405 C   0  0  0  0  0  0  0  0  0  0  0  0
    1.7199    1.2200    1.2096 O   0  0  0  0  0  0  0  0  0  0  0  0
    0.3855   -2.0726    1.4515 C   0  0  0  0  0  0  0  0  0  0  0  0
   -0.9159   -2.8438    1.1087 C   0  0  0  0  0  0  0  0  0  0  0  0
   -0.9987   -4.0749    2.0212 C   0  0  0  0  0  0  0  0  0  0  0  0
   -1.0340   -3.3253   -0.3446 C   0  0  0  0  0  0  0  0  0  0  0  0
    0.3828   -1.0710   -1.5427 H   0  0  0  0  0  0  0  0  0  0  0  0
   -0.1345   -0.2220    0.4950 H   0  0  0  0  0  0  0  0  0  0  0  0
    0.2963   -1.7187    2.4847 H   0  0  0  0  0  0  0  0  0  0  0  0
    1.2223   -2.7787    1.4201 H   0  0  0  0  0  0  0  0  0  0  0  0
   -1.7698   -2.1913    1.3198 H   0  0  0  0  0  0  0  0  0  0  0  0
   -0.1804   -4.7705    1.8089 H   0  0  0  0  0  0  0  0  0  0  0  0
   -1.9479   -4.5997    1.8729 H   0  0  0  0  0  0  0  0  0  0  0  0
   -0.9367   -3.7760    3.0725 H   0  0  0  0  0  0  0  0  0  0  0  0
   -0.1200   -3.8400   -0.6573 H   0  0  0  0  0  0  0  0  0  0  0  0
   -1.8746   -4.0178   -0.4526 H   0  0  0  0  0  0  0  0  0  0  0  0
   -1.2187   -2.4816   -1.0145 H   0  0  0  0  0  0  0  0  0  0  0  0
    2.8565   -0.5782    1.9844 N   0  0  0  0  0  0  0  0  0  0  0  0
    4.0059    0.1131    2.6047 C   0  0  2  0  0  0  0  0  0  0  0  0
    3.6748    1.0149    3.8168 C   0  0  0  0  0  0  0  0  0  0  0  0
    4.3955    0.9796    4.8066 O   0  0  0  0  0  0  0  0  0  0  0  0
    4.8090    0.8898    1.5522 C   0  0  0  0  0  0  0  0  0  0  0  0
    3.0145   -1.5501    1.7204 H   0  0  0  0  0  0  0  0  0  0  0  0
    4.6644   -0.6704    2.9937 H   0  0  0  0  0  0  0  0  0  0  0  0
    4.2498    1.7556    1.1859 H   0  0  0  0  0  0  0  0  0  0  0  0
    5.7467    1.2491    1.9874 H   0  0  0  0  0  0  0  0  0  0  0  0
    5.0467    0.2425    0.7024 H   0  0  0  0  0  0  0  0  0  0  0  0
    2.6108    1.8937    3.7953 N   0  0  0  0  0  0  0  0  0  0  0  0
    2.3226    2.8536    4.8511 C   0  0  0  0  0  0  0  0  0  0  0  0
    2.0944    1.9450    2.9130 H   0  0  0  0  0  0  0  0  0  0  0  0
    3.1571    3.5523    4.9710 H   0  0  0  0  0  0  0  0  0  0  0  0
    1.4233    3.4257    4.6035 H   0  0  0  0  0  0  0  0  0  0  0  0
    2.1538    2.3386    5.8024 H   0  0  0  0  0  0  0  0  0  0  0  0
  1  2  2  0  0  0  0
  1  3  1  0  0  0  0
  1  7  1  0  0  0  0
  3  4  1  0  0  0  0
  3  5  1  0  0  0  0
  3  6  1  0  0  0  0
  7  8  1  0  0  0  0
  7 12  1  0  0  0  0
  8  9  1  0  0  0  0
  8 11  1  0  0  0  0
  8 13  1  0  0  0  0
  9 10  2  0  0  0  0
  9 17  1  0  0  0  0
 11 14  1  0  0  0  0
 11 15  1  0  0  0  0
 11 16  1  0  0  0  0
 17 18  1  0  0  0  0
 17 25  1  0  0  0  0
 18 19  1  0  0  0  0
 18 21  1  0  0  0  0
 18 26  1  0  0  0  0
 19 20  2  0  0  0  0
 19 36  1  0  0  0  0
 21 22  1  0  0  0  0
 21 27  1  0  0  0  0
 21 28  1  0  0  0  0
 22 23  1  0  0  0  0
 22 24  1  0  0  0  0
 22 29  1  0  0  0  0
 23 30  1  0  0  0  0
 23 31  1  0  0  0  0
 23 32  1  0  0  0  0
 24 33  1  0  0  0  0
 24 34  1  0  0  0  0
 24 35  1  0  0  0  0
 36 37  1  0  0  0  0
 36 41  1  0  0  0  0
 37 38  1  0  0  0  0
 37 40  1  0  0  0  0
 37 42  1  0  0  0  0
 38 39  2  0  0  0  0
 38 46  1  0  0  0  0
 40 43  1  0  0  0  0
 40 44  1  0  0  0  0
 40 45  1  0  0  0  0
 46 47  1  0  0  0  0
 46 48  1  0  0  0  0
 47 49  1  0  0  0  0
 47 50  1  0  0  0  0
 47 51  1  0  0  0  0
M  END
$$$$

  -OEChem-05262216553D

 51 50  0     1  0  0  0  0  0999 V2000
    0.2485   -2.1351   -3.9177 C   0  0  0  0  0  0  0  0  0  0  0  0
   -0.2926   -1.2011   -3.3476 O   0  0  0  0  0  0  0  0  0  0  0  0
   -0.5788   -3.0653   -4.7844 C   0  0  0  0  0  0  0  0  0  0  0  0
   -0.5569   -4.0778   -4.3737 H   0  0  0  0  0  0  0  0  0  0  0  0
   -1.6171   -2.7233   -4.8209 H   0  0  0  0  0  0  0  0  0  0  0  0
   -0.1801   -3.0823   -5.8018 H   0  0  0  0  0  0  0  0  0  0  0  0
    1.5966   -2.3866   -3.7405 N   0  0  0  0  0  0  0  0  0  0  0  0
    2.5617   -1.5717   -2.9714 C   0  0  2  0  0  0  0  0  0  0  0  0
    2.3429   -1.5640   -1.4407 C   0  0  0  0  0  0  0  0  0  0  0  0
    3.2751   -1.8696   -0.7091 O   0  0  0  0  0  0  0  0  0  0  0  0
    2.6294   -0.1362   -3.5119 C   0  0  0  0  0  0  0  0  0  0  0  0
    1.9598   -3.2028   -4.2252 H   0  0  0  0  0  0  0  0  0  0  0  0
    3.5492   -2.0167   -3.1319 H   0  0  0  0  0  0  0  0  0  0  0  0
    1.7092    0.4155   -3.2971 H   0  0  0  0  0  0  0  0  0  0  0  0
    3.4619    0.4009   -3.0461 H   0  0  0  0  0  0  0  0  0  0  0  0
    2.7861   -0.1442   -4.5948 H   0  0  0  0  0  0  0  0  0  0  0  0
    1.0975   -1.3102   -0.8962 N   0  0  0  0  0  0  0  0  0  0  0  0
    0.7864   -0.8687    0.4794 C   0  0  2  0  0  0  0  0  0  0  0  0
    1.8541    0.0054    1.1880 C   0  0  0  0  0  0  0  0  0  0  0  0
    1.5872    1.1814    1.4033 O   0  0  0  0  0  0  0  0  0  0  0  0
    0.4476   -2.0780    1.3853 C   0  0  0  0  0  0  0  0  0  0  0  0
   -0.8466   -2.8692    1.0612 C   0  0  0  0  0  0  0  0  0  0  0  0
   -0.9016   -4.0966    1.9808 C   0  0  0  0  0  0  0  0  0  0  0  0
   -0.9766   -3.3591   -0.3883 C   0  0  0  0  0  0  0  0  0  0  0  0
    0.3877   -1.1036   -1.6057 H   0  0  0  0  0  0  0  0  0  0  0  0
   -0.1107   -0.2438    0.4189 H   0  0  0  0  0  0  0  0  0  0  0  0
    0.3642   -1.7194    2.4175 H   0  0  0  0  0  0  0  0  0  0  0  0
    1.2955   -2.7708    1.3508 H   0  0  0  0  0  0  0  0  0  0  0  0
   -1.7069   -2.2275    1.2795 H   0  0  0  0  0  0  0  0  0  0  0  0
   -0.0711   -4.7775    1.7679 H   0  0  0  0  0  0  0  0  0  0  0  0
   -1.8412   -4.6399    1.8402 H   0  0  0  0  0  0  0  0  0  0  0  0
   -0.8403   -3.7915    3.0302 H   0  0  0  0  0  0  0  0  0  0  0  0
   -0.0598   -3.8626   -0.7105 H   0  0  0  0  0  0  0  0  0  0  0  0
   -1.8091   -4.0632   -0.4821 H   0  0  0  0  0  0  0  0  0  0  0  0
   -1.1820   -2.5213   -1.0594 H   0  0  0  0  0  0  0  0  0  0  0  0
    3.0268   -0.5380    1.6848 N   0  0  0  0  0  0  0  0  0  0  0  0
    4.1682    0.1962    2.2686 C   0  0  2  0  0  0  0  0  0  0  0  0
    3.9217    0.8354    3.6554 C   0  0  0  0  0  0  0  0  0  0  0  0
    4.7982    0.7741    4.5088 O   0  0  0  0  0  0  0  0  0  0  0  0
    4.7076    1.2359    1.2768 C   0  0  0  0  0  0  0  0  0  0  0  0
    3.2549   -1.4273    1.2331 H   0  0  0  0  0  0  0  0  0  0  0  0
    4.9624   -0.5412    2.4228 H   0  0  0  0  0  0  0  0  0  0  0  0
    4.0041    2.0638    1.1495 H   0  0  0  0  0  0  0  0  0  0  0  0
    5.6542    1.6463    1.6419 H   0  0  0  0  0  0  0  0  0  0  0  0
    4.8836    0.7732    0.3009 H   0  0  0  0  0  0  0  0  0  0  0  0
    2.7556    1.5158    3.9428 N   0  0  0  0  0  0  0  0  0  0  0  0
    2.5219    2.2470    5.1797 C   0  0  0  0  0  0  0  0  0  0  0  0
    2.1033    1.6271    3.1619 H   0  0  0  0  0  0  0  0  0  0  0  0
    1.5098    2.6628    5.1856 H   0  0  0  0  0  0  0  0  0  0  0  0
    2.6267    1.5822    6.0435 H   0  0  0  0  0  0  0  0  0  0  0  0
    3.2376    3.0698    5.2778 H   0  0  0  0  0  0  0  0  0  0  0  0
  1  2  2  0  0  0  0
  1  3  1  0  0  0  0
  1  7  1  0  0  0  0
  3  4  1  0  0  0  0
  3  5  1  0  0  0  0
  3  6  1  0  0  0  0
  7  8  1  0  0  0  0
  7 12  1  0  0  0  0
  8  9  1  0  0  0  0
  8 11  1  0  0  0  0
  8 13  1  0  0  0  0
  9 10  2  0  0  0  0
  9 17  1  0  0  0  0
 11 14  1  0  0  0  0
 11 15  1  0  0  0  0
 11 16  1  0  0  0  0
 17 18  1  0  0  0  0
 17 25  1  0  0  0  0
 18 19  1  0  0  0  0
 18 21  1  0  0  0  0
 18 26  1  0  0  0  0
 19 20  2  0  0  0  0
 19 36  1  0  0  0  0
 21 22  1  0  0  0  0
 21 27  1  0  0  0  0
 21 28  1  0  0  0  0
 22 23  1  0  0  0  0
 22 24  1  0  0  0  0
 22 29  1  0  0  0  0
 23 30  1  0  0  0  0
 23 31  1  0  0  0  0
 23 32  1  0  0  0  0
 24 33  1  0  0  0  0
 24 34  1  0  0  0  0
 24 35  1  0  0  0  0
 36 37  1  0  0  0  0
 36 41  1  0  0  0  0
 37 38  1  0  0  0  0
 37 40  1  0  0  0  0
 37 42  1  0  0  0  0
 38 39  2  0  0  0  0
 38 46  1  0  0  0  0
 40 43  1  0  0  0  0
 40 44  1  0  0  0  0
 40 45  1  0  0  0  0
 46 47  1  0  0  0  0
 46 48  1  0  0  0  0
 47 49  1  0  0  0  0
 47 50  1  0  0  0  0
 47 51  1  0  0  0  0
M  END
$$$$

  -OEChem-05262216553D

 51 50  0     1  0  0  0  0  0999 V2000
    1.4337   -3.3084   -3.7900 C   0  0  0  0  0  0  0  0  0  0  0  0
    0.3981   -3.4137   -3.1533 O   0  0  0  0  0  0  0  0  0  0  0  0
    2.1326   -4.5535   -4.3031 C   0  0  0  0  0  0  0  0  0  0  0  0
    3.1365   -4.6198   -3.8762 H   0  0  0  0  0  0  0  0  0  0  0  0
    1.5704   -5.4472   -4.0176 H   0  0  0  0  0  0  0  0  0  0  0  0
    2.2081   -4.5185   -5.3926 H   0  0  0  0  0  0  0  0  0  0  0  0
    1.9967   -2.0687   -4.0283 N   0  0  0  0  0  0  0  0  0  0  0  0
    1.5611   -0.8179   -3.3812 C   0  0  2  0  0  0  0  0  0  0  0  0
    1.7242   -0.8611   -1.8407 C   0  0  0  0  0  0  0  0  0  0  0  0
    2.7946   -1.2399   -1.3871 O   0  0  0  0  0  0  0  0  0  0  0  0
    0.1489   -0.4220   -3.8492 C   0  0  0  0  0  0  0  0  0  0  0  0
    2.9373   -2.0891   -4.4114 H   0  0  0  0  0  0  0  0  0  0  0  0
    2.2333   -0.0248   -3.7232 H   0  0  0  0  0  0  0  0  0  0  0  0
   -0.6107   -1.1025   -3.4534 H   0  0  0  0  0  0  0  0  0  0  0  0
   -0.0910    0.5934   -3.5183 H   0  0  0  0  0  0  0  0  0  0  0  0
    0.0953   -0.4468   -4.9420 H   0  0  0  0  0  0  0  0  0  0  0  0
    0.6930   -0.4773   -0.9971 N   0  0  0  0  0  0  0  0  0  0  0  0
    0.6919   -0.2322    0.4656 C   0  0  2  0  0  0  0  0  0  0  0  0
    1.9788    0.2878    1.1638 C   0  0  0  0  0  0  0  0  0  0  0  0
    1.8775    1.2875    1.8648 O   0  0  0  0  0  0  0  0  0  0  0  0
    0.2217   -1.4924    1.2317 C   0  0  0  0  0  0  0  0  0  0  0  0
   -1.2508   -1.9402    1.0354 C   0  0  0  0  0  0  0  0  0  0  0  0
   -1.4446   -3.2772    1.7636 C   0  0  0  0  0  0  0  0  0  0  0  0
   -1.7006   -2.1301   -0.4196 C   0  0  0  0  0  0  0  0  0  0  0  0
   -0.1919   -0.3282   -1.4727 H   0  0  0  0  0  0  0  0  0  0  0  0
   -0.0536    0.5503    0.6421 H   0  0  0  0  0  0  0  0  0  0  0  0
    0.3698   -1.3201    2.3039 H   0  0  0  0  0  0  0  0  0  0  0  0
    0.8796   -2.3205    0.9443 H   0  0  0  0  0  0  0  0  0  0  0  0
   -1.9033   -1.1915    1.4972 H   0  0  0  0  0  0  0  0  0  0  0  0
   -0.8352   -4.0613    1.3026 H   0  0  0  0  0  0  0  0  0  0  0  0
   -2.4939   -3.5863    1.7260 H   0  0  0  0  0  0  0  0  0  0  0  0
   -1.1556   -3.1858    2.8154 H   0  0  0  0  0  0  0  0  0  0  0  0
   -0.9847   -2.7532   -0.9635 H   0  0  0  0  0  0  0  0  0  0  0  0
   -2.6790   -2.6191   -0.4578 H   0  0  0  0  0  0  0  0  0  0  0  0
   -1.7985   -1.1663   -0.9251 H   0  0  0  0  0  0  0  0  0  0  0  0
    3.1739   -0.4085    1.1504 N   0  0  0  0  0  0  0  0  0  0  0  0
    4.4642   -0.0086    1.7485 C   0  0  2  0  0  0  0  0  0  0  0  0
    4.5121   -0.0232    3.2940 C   0  0  0  0  0  0  0  0  0  0  0  0
    5.5031   -0.4652    3.8619 O   0  0  0  0  0  0  0  0  0  0  0  0
    4.9287    1.3467    1.1999 C   0  0  0  0  0  0  0  0  0  0  0  0
    3.2138   -1.1160    0.4110 H   0  0  0  0  0  0  0  0  0  0  0  0
    5.1985   -0.7527    1.4232 H   0  0  0  0  0  0  0  0  0  0  0  0
    4.2960    2.1600    1.5672 H   0  0  0  0  0  0  0  0  0  0  0  0
    5.9575    1.5453    1.5160 H   0  0  0  0  0  0  0  0  0  0  0  0
    4.8967    1.3443    0.1063 H   0  0  0  0  0  0  0  0  0  0  0  0
    3.4745    0.4792    4.0534 N   0  0  0  0  0  0  0  0  0  0  0  0
    3.4880    0.5567    5.5072 C   0  0  0  0  0  0  0  0  0  0  0  0
    2.7153    0.9239    3.5308 H   0  0  0  0  0  0  0  0  0  0  0  0
    3.5915   -0.4429    5.9422 H   0  0  0  0  0  0  0  0  0  0  0  0
    4.3210    1.1794    5.8495 H   0  0  0  0  0  0  0  0  0  0  0  0
    2.5539    0.9961    5.8698 H   0  0  0  0  0  0  0  0  0  0  0  0
  1  2  2  0  0  0  0
  1  3  1  0  0  0  0
  1  7  1  0  0  0  0
  3  4  1  0  0  0  0
  3  5  1  0  0  0  0
  3  6  1  0  0  0  0
  7  8  1  0  0  0  0
  7 12  1  0  0  0  0
  8  9  1  0  0  0  0
  8 11  1  0  0  0  0
  8 13  1  0  0  0  0
  9 10  2  0  0  0  0
  9 17  1  0  0  0  0
 11 14  1  0  0  0  0
 11 15  1  0  0  0  0
 11 16  1  0  0  0  0
 17 18  1  0  0  0  0
 17 25  1  0  0  0  0
 18 19  1  0  0  0  0
 18 21  1  0  0  0  0
 18 26  1  0  0  0  0
 19 20  2  0  0  0  0
 19 36  1  0  0  0  0
 21 22  1  0  0  0  0
 21 27  1  0  0  0  0
 21 28  1  0  0  0  0
 22 23  1  0  0  0  0
 22 24  1  0  0  0  0
 22 29  1  0  0  0  0
 23 30  1  0  0  0  0
 23 31  1  0  0  0  0
 23 32  1  0  0  0  0
 24 33  1  0  0  0  0
 24 34  1  0  0  0  0
 24 35  1  0  0  0  0
 36 37  1  0  0  0  0
 36 41  1  0  0  0  0
 37 38  1  0  0  0  0
 37 40  1  0  0  0  0
 37 42  1  0  0  0  0
 38 39  2  0  0  0  0
 38 46  1  0  0  0  0
 40 43  1  0  0  0  0
 40 44  1  0  0  0  0
 40 45  1  0  0  0  0
 46 47  1  0  0  0  0
 46 48  1  0  0  0  0
 47 49  1  0  0  0  0
 47 50  1  0  0  0  0
 47 51  1  0  0  0  0
M  END
$$$$

  -OEChem-05262216553D

 51 50  0     1  0  0  0  0  0999 V2000
    0.0438   -2.1945   -4.0012 C   0  0  0  0  0  0  0  0  0  0  0  0
   -0.4269   -1.2182   -3.4392 O   0  0  0  0  0  0  0  0  0  0  0  0
   -0.8666   -3.1370   -4.7655 C   0  0  0  0  0  0  0  0  0  0  0  0
   -0.8541   -4.1270   -4.3027 H   0  0  0  0  0  0  0  0  0  0  0  0
   -1.8930   -2.7589   -4.7597 H   0  0  0  0  0  0  0  0  0  0  0  0
   -0.5309   -3.2227   -5.8019 H   0  0  0  0  0  0  0  0  0  0  0  0
    1.3928   -2.4802   -3.9052 N   0  0  0  0  0  0  0  0  0  0  0  0
    2.4364   -1.6506   -3.2653 C   0  0  2  0  0  0  0  0  0  0  0  0
    2.3502   -1.5469   -1.7238 C   0  0  0  0  0  0  0  0  0  0  0  0
    3.3500   -1.8068   -1.0711 O   0  0  0  0  0  0  0  0  0  0  0  0
    2.4973   -0.2526   -3.8969 C   0  0  0  0  0  0  0  0  0  0  0  0
    1.6973   -3.3285   -4.3753 H   0  0  0  0  0  0  0  0  0  0  0  0
    3.3953   -2.1347   -3.4797 H   0  0  0  0  0  0  0  0  0  0  0  0
    1.6142    0.3398   -3.6395 H   0  0  0  0  0  0  0  0  0  0  0  0
    3.3820    0.2822   -3.5365 H   0  0  0  0  0  0  0  0  0  0  0  0
    2.5602   -0.3287   -4.9867 H   0  0  0  0  0  0  0  0  0  0  0  0
    1.1522   -1.2701   -1.0902 N   0  0  0  0  0  0  0  0  0  0  0  0
    0.8840   -0.7931    0.2883 C   0  0  2  0  0  0  0  0  0  0  0  0
    1.9133    0.1133    1.0222 C   0  0  0  0  0  0  0  0  0  0  0  0
    1.4672    1.0388    1.6897 O   0  0  0  0  0  0  0  0  0  0  0  0
    0.6057   -1.9992    1.2207 C   0  0  0  0  0  0  0  0  0  0  0  0
   -0.6794   -2.8299    0.9619 C   0  0  0  0  0  0  0  0  0  0  0  0
   -0.6615   -4.0425    1.9026 C   0  0  0  0  0  0  0  0  0  0  0  0
   -0.8596   -3.3477   -0.4722 C   0  0  0  0  0  0  0  0  0  0  0  0
    0.3879   -1.1253   -1.7570 H   0  0  0  0  0  0  0  0  0  0  0  0
   -0.0320   -0.1951    0.2344 H   0  0  0  0  0  0  0  0  0  0  0  0
    0.5495   -1.6319    2.2520 H   0  0  0  0  0  0  0  0  0  0  0  0
    1.4719   -2.6677    1.1651 H   0  0  0  0  0  0  0  0  0  0  0  0
   -1.5468   -2.2077    1.2077 H   0  0  0  0  0  0  0  0  0  0  0  0
    0.1770   -4.7051    1.6647 H   0  0  0  0  0  0  0  0  0  0  0  0
   -1.5913   -4.6128    1.8127 H   0  0  0  0  0  0  0  0  0  0  0  0
   -0.5627   -3.7168    2.9429 H   0  0  0  0  0  0  0  0  0  0  0  0
    0.0563   -3.8297   -0.8285 H   0  0  0  0  0  0  0  0  0  0  0  0
   -1.6743   -4.0774   -0.5180 H   0  0  0  0  0  0  0  0  0  0  0  0
   -1.1202   -2.5260   -1.1436 H   0  0  0  0  0  0  0  0  0  0  0  0
    3.2770   -0.1157    1.0408 N   0  0  0  0  0  0  0  0  0  0  0  0
    4.3368    0.7099    1.6556 C   0  0  2  0  0  0  0  0  0  0  0  0
    4.3497    0.7293    3.2019 C   0  0  0  0  0  0  0  0  0  0  0  0
    5.4183    0.6653    3.7970 O   0  0  0  0  0  0  0  0  0  0  0  0
    4.3170    2.1384    1.0954 C   0  0  0  0  0  0  0  0  0  0  0  0
    3.5788   -0.8940    0.4485 H   0  0  0  0  0  0  0  0  0  0  0  0
    5.2901    0.2629    1.3559 H   0  0  0  0  0  0  0  0  0  0  0  0
    3.4367    2.6866    1.4426 H   0  0  0  0  0  0  0  0  0  0  0  0
    5.2081    2.6820    1.4246 H   0  0  0  0  0  0  0  0  0  0  0  0
    4.3079    2.1183    0.0017 H   0  0  0  0  0  0  0  0  0  0  0  0
    3.1844    0.8599    3.9306 N   0  0  0  0  0  0  0  0  0  0  0  0
    3.1399    0.9975    5.3795 C   0  0  0  0  0  0  0  0  0  0  0  0
    2.3344    1.0179    3.3830 H   0  0  0  0  0  0  0  0  0  0  0  0
    3.6224    0.1403    5.8610 H   0  0  0  0  0  0  0  0  0  0  0  0
    3.6529    1.9130    5.6922 H   0  0  0  0  0  0  0  0  0  0  0  0
    2.1016    1.0458    5.7221 H   0  0  0  0  0  0  0  0  0  0  0  0
  1  2  2  0  0  0  0
  1  3  1  0  0  0  0
  1  7  1  0  0  0  0
  3  4  1  0  0  0  0
  3  5  1  0  0  0  0
  3  6  1  0  0  0  0
  7  8  1  0  0  0  0
  7 12  1  0  0  0  0
  8  9  1  0  0  0  0
  8 11  1  0  0  0  0
  8 13  1  0  0  0  0
  9 10  2  0  0  0  0
  9 17  1  0  0  0  0
 11 14  1  0  0  0  0
 11 15  1  0  0  0  0
 11 16  1  0  0  0  0
 17 18  1  0  0  0  0
 17 25  1  0  0  0  0
 18 19  1  0  0  0  0
 18 21  1  0  0  0  0
 18 26  1  0  0  0  0
 19 20  2  0  0  0  0
 19 36  1  0  0  0  0
 21 22  1  0  0  0  0
 21 27  1  0  0  0  0
 21 28  1  0  0  0  0
 22 23  1  0  0  0  0
 22 24  1  0  0  0  0
 22 29  1  0  0  0  0
 23 30  1  0  0  0  0
 23 31  1  0  0  0  0
 23 32  1  0  0  0  0
 24 33  1  0  0  0  0
 24 34  1  0  0  0  0
 24 35  1  0  0  0  0
 36 37  1  0  0  0  0
 36 41  1  0  0  0  0
 37 38  1  0  0  0  0
 37 40  1  0  0  0  0
 37 42  1  0  0  0  0
 38 39  2  0  0  0  0
 38 46  1  0  0  0  0
 40 43  1  0  0  0  0
 40 44  1  0  0  0  0
 40 45  1  0  0  0  0
 46 47  1  0  0  0  0
 46 48  1  0  0  0  0
 47 49  1  0  0  0  0
 47 50  1  0  0  0  0
 47 51  1  0  0  0  0
M  END
$$$$

  -OEChem-05262216553D

 51 50  0     1  0  0  0  0  0999 V2000
    3.3250   -0.4275   -4.4816 C   0  0  0  0  0  0  0  0  0  0  0  0
    2.8064    0.5459   -5.0040 O   0  0  0  0  0  0  0  0  0  0  0  0
    4.8019   -0.7064   -4.6866 C   0  0  0  0  0  0  0  0  0  0  0  0
    5.2365    0.0383   -5.3592 H   0  0  0  0  0  0  0  0  0  0  0  0
    5.3257   -0.6636   -3.7286 H   0  0  0  0  0  0  0  0  0  0  0  0
    4.9374   -1.6980   -5.1248 H   0  0  0  0  0  0  0  0  0  0  0  0
    2.5766   -1.2716   -3.6888 N   0  0  0  0  0  0  0  0  0  0  0  0
    1.2204   -0.9675   -3.2123 C   0  0  2  0  0  0  0  0  0  0  0  0
    1.1088   -1.1727   -1.6880 C   0  0  0  0  0  0  0  0  0  0  0  0
    1.8866   -1.9263   -1.1198 O   0  0  0  0  0  0  0  0  0  0  0  0
    0.2408   -1.8747   -3.9612 C   0  0  0  0  0  0  0  0  0  0  0  0
    3.0918   -1.9747   -3.1617 H   0  0  0  0  0  0  0  0  0  0  0  0
    0.9683    0.0787   -3.4174 H   0  0  0  0  0  0  0  0  0  0  0  0
    0.4594   -2.9277   -3.7560 H   0  0  0  0  0  0  0  0  0  0  0  0
   -0.7889   -1.6665   -3.6551 H   0  0  0  0  0  0  0  0  0  0  0  0
    0.3210   -1.7053   -5.0399 H   0  0  0  0  0  0  0  0  0  0  0  0
    0.0086   -0.7087   -0.9972 N   0  0  0  0  0  0  0  0  0  0  0  0
    0.0006   -0.0773    0.3425 C   0  0  2  0  0  0  0  0  0  0  0  0
    1.2206    0.7573    0.8399 C   0  0  0  0  0  0  0  0  0  0  0  0
    0.9683    1.8713    1.2660 O   0  0  0  0  0  0  0  0  0  0  0  0
   -0.2922   -1.1411    1.4297 C   0  0  0  0  0  0  0  0  0  0  0  0
   -1.6961   -1.8010    1.4272 C   0  0  0  0  0  0  0  0  0  0  0  0
   -1.7024   -2.9135    2.4848 C   0  0  0  0  0  0  0  0  0  0  0  0
   -2.1337   -2.4211    0.0919 C   0  0  0  0  0  0  0  0  0  0  0  0
   -0.6858   -0.3120   -1.6233 H   0  0  0  0  0  0  0  0  0  0  0  0
   -0.8398    0.6250    0.3452 H   0  0  0  0  0  0  0  0  0  0  0  0
   -0.1532   -0.6764    2.4126 H   0  0  0  0  0  0  0  0  0  0  0  0
    0.4594   -1.9315    1.3361 H   0  0  0  0  0  0  0  0  0  0  0  0
   -2.4352   -1.0431    1.7085 H   0  0  0  0  0  0  0  0  0  0  0  0
   -1.0012   -3.7097    2.2140 H   0  0  0  0  0  0  0  0  0  0  0  0
   -2.7026   -3.3483    2.5782 H   0  0  0  0  0  0  0  0  0  0  0  0
   -1.4138   -2.5134    3.4619 H   0  0  0  0  0  0  0  0  0  0  0  0
   -1.3463   -3.0671   -0.3098 H   0  0  0  0  0  0  0  0  0  0  0  0
   -3.0383   -3.0224    0.2270 H   0  0  0  0  0  0  0  0  0  0  0  0
   -2.3661   -1.6415   -0.6385 H   0  0  0  0  0  0  0  0  0  0  0  0
    2.5624    0.6477    0.5562 N   0  0  0  0  0  0  0  0  0  0  0  0
    3.3363   -0.4952    1.0599 C   0  0  2  0  0  0  0  0  0  0  0  0
    3.8316   -0.2821    2.5054 C   0  0  0  0  0  0  0  0  0  0  0  0
    4.1681    0.8309    2.8874 O   0  0  0  0  0  0  0  0  0  0  0  0
    4.5467   -0.6829    0.1376 C   0  0  0  0  0  0  0  0  0  0  0  0
    3.0036    1.5386    0.7863 H   0  0  0  0  0  0  0  0  0  0  0  0
    2.7298   -1.4025    1.0575 H   0  0  0  0  0  0  0  0  0  0  0  0
    5.2084    0.1877    0.1944 H   0  0  0  0  0  0  0  0  0  0  0  0
    5.1144   -1.5708    0.4319 H   0  0  0  0  0  0  0  0  0  0  0  0
    4.2284   -0.8039   -0.9015 H   0  0  0  0  0  0  0  0  0  0  0  0
    3.9387   -1.3566    3.3692 N   0  0  0  0  0  0  0  0  0  0  0  0
    4.4245   -1.2340    4.7385 C   0  0  0  0  0  0  0  0  0  0  0  0
    3.6799   -2.2737    3.0171 H   0  0  0  0  0  0  0  0  0  0  0  0
    5.4666   -0.8973    4.7463 H   0  0  0  0  0  0  0  0  0  0  0  0
    3.8175   -0.5144    5.2986 H   0  0  0  0  0  0  0  0  0  0  0  0
    4.3693   -2.2011    5.2474 H   0  0  0  0  0  0  0  0  0  0  0  0
  1  2  2  0  0  0  0
  1  3  1  0  0  0  0
  1  7  1  0  0  0  0
  3  4  1  0  0  0  0
  3  5  1  0  0  0  0
  3  6  1  0  0  0  0
  7  8  1  0  0  0  0
  7 12  1  0  0  0  0
  8  9  1  0  0  0  0
  8 11  1  0  0  0  0
  8 13  1  0  0  0  0
  9 10  2  0  0  0  0
  9 17  1  0  0  0  0
 11 14  1  0  0  0  0
 11 15  1  0  0  0  0
 11 16  1  0  0  0  0
 17 18  1  0  0  0  0
 17 25  1  0  0  0  0
 18 19  1  0  0  0  0
 18 21  1  0  0  0  0
 18 26  1  0  0  0  0
 19 20  2  0  0  0  0
 19 36  1  0  0  0  0
 21 22  1  0  0  0  0
 21 27  1  0  0  0  0
 21 28  1  0  0  0  0
 22 23  1  0  0  0  0
 22 24  1  0  0  0  0
 22 29  1  0  0  0  0
 23 30  1  0  0  0  0
 23 31  1  0  0  0  0
 23 32  1  0  0  0  0
 24 33  1  0  0  0  0
 24 34  1  0  0  0  0
 24 35  1  0  0  0  0
 36 37  1  0  0  0  0
 36 41  1  0  0  0  0
 37 38  1  0  0  0  0
 37 40  1  0  0  0  0
 37 42  1  0  0  0  0
 38 39  2  0  0  0  0
 38 46  1  0  0  0  0
 40 43  1  0  0  0  0
 40 44  1  0  0  0  0
 40 45  1  0  0  0  0
 46 47  1  0  0  0  0
 46 48  1  0  0  0  0
 47 49  1  0  0  0  0
 47 50  1  0  0  0  0
 47 51  1  0  0  0  0
M  END
$$$$

  -OEChem-05262216553D

 51 50  0     1  0  0  0  0  0999 V2000
    1.1859   -3.1187   -3.6979 C   0  0  0  0  0  0  0  0  0  0  0  0
    0.1677   -2.5121   -3.4055 O   0  0  0  0  0  0  0  0  0  0  0  0
    1.0875   -4.5254   -4.2568 C   0  0  0  0  0  0  0  0  0  0  0  0
    1.5851   -5.2301   -3.5859 H   0  0  0  0  0  0  0  0  0  0  0  0
    0.0385   -4.8183   -4.3587 H   0  0  0  0  0  0  0  0  0  0  0  0
    1.5614   -4.5711   -5.2405 H   0  0  0  0  0  0  0  0  0  0  0  0
    2.4308   -2.5555   -3.4849 N   0  0  0  0  0  0  0  0  0  0  0  0
    2.7178   -1.2022   -2.9629 C   0  0  2  0  0  0  0  0  0  0  0  0
    2.3220   -0.9786   -1.4856 C   0  0  0  0  0  0  0  0  0  0  0  0
    3.2026   -0.7718   -0.6634 O   0  0  0  0  0  0  0  0  0  0  0  0
    2.1013   -0.1164   -3.8564 C   0  0  0  0  0  0  0  0  0  0  0  0
    3.2265   -3.1466   -3.7102 H   0  0  0  0  0  0  0  0  0  0  0  0
    3.8036   -1.0688   -3.0087 H   0  0  0  0  0  0  0  0  0  0  0  0
    1.0095   -0.1127   -3.7853 H   0  0  0  0  0  0  0  0  0  0  0  0
    2.4637    0.8704   -3.5509 H   0  0  0  0  0  0  0  0  0  0  0  0
    2.3816   -0.2793   -4.9014 H   0  0  0  0  0  0  0  0  0  0  0  0
    1.0377   -1.2227   -1.0499 N   0  0  0  0  0  0  0  0  0  0  0  0
    0.2777   -0.5258    0.0100 C   0  0  2  0  0  0  0  0  0  0  0  0
    0.5253    0.9827    0.3217 C   0  0  0  0  0  0  0  0  0  0  0  0
   -0.4681    1.6699    0.4974 O   0  0  0  0  0  0  0  0  0  0  0  0
    0.3763   -1.3152    1.3364 C   0  0  0  0  0  0  0  0  0  0  0  0
   -0.2926   -2.7134    1.3893 C   0  0  0  0  0  0  0  0  0  0  0  0
    0.0600   -3.3596    2.7359 C   0  0  0  0  0  0  0  0  0  0  0  0
    0.1176   -3.6876    0.2748 C   0  0  0  0  0  0  0  0  0  0  0  0
    0.4527   -1.5899   -1.8066 H   0  0  0  0  0  0  0  0  0  0  0  0
   -0.7705   -0.5669   -0.3046 H   0  0  0  0  0  0  0  0  0  0  0  0
   -0.0633   -0.7073    2.1355 H   0  0  0  0  0  0  0  0  0  0  0  0
    1.4360   -1.4400    1.5675 H   0  0  0  0  0  0  0  0  0  0  0  0
   -1.3782   -2.5775    1.3378 H   0  0  0  0  0  0  0  0  0  0  0  0
    1.1366   -3.5453    2.8067 H   0  0  0  0  0  0  0  0  0  0  0  0
   -0.4662   -4.3120    2.8529 H   0  0  0  0  0  0  0  0  0  0  0  0
   -0.2344   -2.7054    3.5627 H   0  0  0  0  0  0  0  0  0  0  0  0
    1.2071   -3.7252    0.1754 H   0  0  0  0  0  0  0  0  0  0  0  0
   -0.2443   -4.6968    0.4945 H   0  0  0  0  0  0  0  0  0  0  0  0
   -0.3198   -3.3847   -0.6803 H   0  0  0  0  0  0  0  0  0  0  0  0
    1.5641    1.8089   -0.0449 N   0  0  0  0  0  0  0  0  0  0  0  0
    2.8414    1.8576    0.6907 C   0  0  2  0  0  0  0  0  0  0  0  0
    2.9141    1.0553    2.0162 C   0  0  0  0  0  0  0  0  0  0  0  0
    2.3623    1.4552    3.0338 O   0  0  0  0  0  0  0  0  0  0  0  0
    3.1185    3.3399    0.9676 C   0  0  0  0  0  0  0  0  0  0  0  0
    1.1619    2.7350   -0.1633 H   0  0  0  0  0  0  0  0  0  0  0  0
    3.6435    1.5006    0.0411 H   0  0  0  0  0  0  0  0  0  0  0  0
    2.3285    3.7700    1.5926 H   0  0  0  0  0  0  0  0  0  0  0  0
    4.0738    3.4560    1.4893 H   0  0  0  0  0  0  0  0  0  0  0  0
    3.1676    3.9020    0.0301 H   0  0  0  0  0  0  0  0  0  0  0  0
    3.6710   -0.0978    2.0752 N   0  0  0  0  0  0  0  0  0  0  0  0
    3.7661   -0.9301    3.2676 C   0  0  0  0  0  0  0  0  0  0  0  0
    3.8893   -0.5163    1.1668 H   0  0  0  0  0  0  0  0  0  0  0  0
    4.2171   -0.3664    4.0909 H   0  0  0  0  0  0  0  0  0  0  0  0
    2.7746   -1.2747    3.5792 H   0  0  0  0  0  0  0  0  0  0  0  0
    4.3907   -1.8055    3.0666 H   0  0  0  0  0  0  0  0  0  0  0  0
  1  2  2  0  0  0  0
  1  3  1  0  0  0  0
  1  7  1  0  0  0  0
  3  4  1  0  0  0  0
  3  5  1  0  0  0  0
  3  6  1  0  0  0  0
  7  8  1  0  0  0  0
  7 12  1  0  0  0  0
  8  9  1  0  0  0  0
  8 11  1  0  0  0  0
  8 13  1  0  0  0  0
  9 10  2  0  0  0  0
  9 17  1  0  0  0  0
 11 14  1  0  0  0  0
 11 15  1  0  0  0  0
 11 16  1  0  0  0  0
 17 18  1  0  0  0  0
 17 25  1  0  0  0  0
 18 19  1  0  0  0  0
 18 21  1  0  0  0  0
 18 26  1  0  0  0  0
 19 20  2  0  0  0  0
 19 36  1  0  0  0  0
 21 22  1  0  0  0  0
 21 27  1  0  0  0  0
 21 28  1  0  0  0  0
 22 23  1  0  0  0  0
 22 24  1  0  0  0  0
 22 29  1  0  0  0  0
 23 30  1  0  0  0  0
 23 31  1  0  0  0  0
 23 32  1  0  0  0  0
 24 33  1  0  0  0  0
 24 34  1  0  0  0  0
 24 35  1  0  0  0  0
 36 37  1  0  0  0  0
 36 41  1  0  0  0  0
 37 38  1  0  0  0  0
 37 40  1  0  0  0  0
 37 42  1  0  0  0  0
 38 39  2  0  0  0  0
 38 46  1  0  0  0  0
 40 43  1  0  0  0  0
 40 44  1  0  0  0  0
 40 45  1  0  0  0  0
 46 47  1  0  0  0  0
 46 48  1  0  0  0  0
 47 49  1  0  0  0  0
 47 50  1  0  0  0  0
 47 51  1  0  0  0  0
M  END
$$$$

  -OEChem-05262216553D

 51 50  0     1  0  0  0  0  0999 V2000
    1.3023   -3.3462   -3.8911 C   0  0  0  0  0  0  0  0  0  0  0  0
    0.2994   -3.4911   -3.2124 O   0  0  0  0  0  0  0  0  0  0  0  0
    2.0243   -4.5650   -4.4343 C   0  0  0  0  0  0  0  0  0  0  0  0
    3.0432   -4.6018   -4.0407 H   0  0  0  0  0  0  0  0  0  0  0  0
    1.5002   -5.4776   -4.1366 H   0  0  0  0  0  0  0  0  0  0  0  0
    2.0623   -4.5222   -5.5255 H   0  0  0  0  0  0  0  0  0  0  0  0
    1.7974   -2.0845   -4.1618 N   0  0  0  0  0  0  0  0  0  0  0  0
    1.3265   -0.8424   -3.5218 C   0  0  2  0  0  0  0  0  0  0  0  0
    1.5975   -0.8213   -1.9963 C   0  0  0  0  0  0  0  0  0  0  0  0
    2.7381   -1.0399   -1.6161 O   0  0  0  0  0  0  0  0  0  0  0  0
   -0.1343   -0.5384   -3.9010 C   0  0  0  0  0  0  0  0  0  0  0  0
    2.7202   -2.0657   -4.5868 H   0  0  0  0  0  0  0  0  0  0  0  0
    1.9248   -0.0241   -3.9340 H   0  0  0  0  0  0  0  0  0  0  0  0
   -0.8277   -1.2448   -3.4354 H   0  0  0  0  0  0  0  0  0  0  0  0
   -0.4065    0.4723   -3.5814 H   0  0  0  0  0  0  0  0  0  0  0  0
   -0.2598   -0.5992   -4.9865 H   0  0  0  0  0  0  0  0  0  0  0  0
    0.5956   -0.5228   -1.0856 N   0  0  0  0  0  0  0  0  0  0  0  0
    0.6598   -0.2328    0.3708 C   0  0  2  0  0  0  0  0  0  0  0  0
    1.9074    0.4464    1.0182 C   0  0  0  0  0  0  0  0  0  0  0  0
    1.8199    0.7817    2.1940 O   0  0  0  0  0  0  0  0  0  0  0  0
    0.3418   -1.5366    1.1539 C   0  0  0  0  0  0  0  0  0  0  0  0
   -1.0930   -2.1191    1.0349 C   0  0  0  0  0  0  0  0  0  0  0  0
   -1.1201   -3.4690    1.7648 C   0  0  0  0  0  0  0  0  0  0  0  0
   -1.6201   -2.3452   -0.3881 C   0  0  0  0  0  0  0  0  0  0  0  0
   -0.3350   -0.5281   -1.4931 H   0  0  0  0  0  0  0  0  0  0  0  0
   -0.1485    0.4760    0.5750 H   0  0  0  0  0  0  0  0  0  0  0  0
    0.5237   -1.3688    2.2205 H   0  0  0  0  0  0  0  0  0  0  0  0
    1.0581   -2.2980    0.8257 H   0  0  0  0  0  0  0  0  0  0  0  0
   -1.7812   -1.4344    1.5421 H   0  0  0  0  0  0  0  0  0  0  0  0
   -0.4683   -4.1930    1.2647 H   0  0  0  0  0  0  0  0  0  0  0  0
   -2.1365   -3.8744    1.7858 H   0  0  0  0  0  0  0  0  0  0  0  0
   -0.7805   -3.3521    2.7988 H   0  0  0  0  0  0  0  0  0  0  0  0
   -0.8923   -2.9071   -0.9793 H   0  0  0  0  0  0  0  0  0  0  0  0
   -2.5544   -2.9148   -0.3643 H   0  0  0  0  0  0  0  0  0  0  0  0
   -1.8329   -1.3936   -0.8813 H   0  0  0  0  0  0  0  0  0  0  0  0
    3.0393    0.8315    0.3214 N   0  0  0  0  0  0  0  0  0  0  0  0
    4.2135    1.5748    0.8254 C   0  0  2  0  0  0  0  0  0  0  0  0
    5.0648    0.8315    1.8810 C   0  0  0  0  0  0  0  0  0  0  0  0
    6.2845    0.8202    1.7711 O   0  0  0  0  0  0  0  0  0  0  0  0
    3.8148    2.9678    1.3320 C   0  0  0  0  0  0  0  0  0  0  0  0
    3.1601    0.3342   -0.5631 H   0  0  0  0  0  0  0  0  0  0  0  0
    4.8730    1.7282   -0.0347 H   0  0  0  0  0  0  0  0  0  0  0  0
    3.2469    2.9035    2.2647 H   0  0  0  0  0  0  0  0  0  0  0  0
    4.7114    3.5663    1.5213 H   0  0  0  0  0  0  0  0  0  0  0  0
    3.2038    3.4840    0.5857 H   0  0  0  0  0  0  0  0  0  0  0  0
    4.4827    0.2119    2.9685 N   0  0  0  0  0  0  0  0  0  0  0  0
    5.2247   -0.4780    4.0137 C   0  0  0  0  0  0  0  0  0  0  0  0
    3.4653    0.2949    3.0398 H   0  0  0  0  0  0  0  0  0  0  0  0
    5.7758   -1.3259    3.5941 H   0  0  0  0  0  0  0  0  0  0  0  0
    5.9351    0.2033    4.4935 H   0  0  0  0  0  0  0  0  0  0  0  0
    4.5376   -0.8552    4.7770 H   0  0  0  0  0  0  0  0  0  0  0  0
  1  2  2  0  0  0  0
  1  3  1  0  0  0  0
  1  7  1  0  0  0  0
  3  4  1  0  0  0  0
  3  5  1  0  0  0  0
  3  6  1  0  0  0  0
  7  8  1  0  0  0  0
  7 12  1  0  0  0  0
  8  9  1  0  0  0  0
  8 11  1  0  0  0  0
  8 13  1  0  0  0  0
  9 10  2  0  0  0  0
  9 17  1  0  0  0  0
 11 14  1  0  0  0  0
 11 15  1  0  0  0  0
 11 16  1  0  0  0  0
 17 18  1  0  0  0  0
 17 25  1  0  0  0  0
 18 19  1  0  0  0  0
 18 21  1  0  0  0  0
 18 26  1  0  0  0  0
 19 20  2  0  0  0  0
 19 36  1  0  0  0  0
 21 22  1  0  0  0  0
 21 27  1  0  0  0  0
 21 28  1  0  0  0  0
 22 23  1  0  0  0  0
 22 24  1  0  0  0  0
 22 29  1  0  0  0  0
 23 30  1  0  0  0  0
 23 31  1  0  0  0  0
 23 32  1  0  0  0  0
 24 33  1  0  0  0  0
 24 34  1  0  0  0  0
 24 35  1  0  0  0  0
 36 37  1  0  0  0  0
 36 41  1  0  0  0  0
 37 38  1  0  0  0  0
 37 40  1  0  0  0  0
 37 42  1  0  0  0  0
 38 39  2  0  0  0  0
 38 46  1  0  0  0  0
 40 43  1  0  0  0  0
 40 44  1  0  0  0  0
 40 45  1  0  0  0  0
 46 47  1  0  0  0  0
 46 48  1  0  0  0  0
 47 49  1  0  0  0  0
 47 50  1  0  0  0  0
 47 51  1  0  0  0  0
M  END
$$$$

  -OEChem-05262216553D

 51 50  0     1  0  0  0  0  0999 V2000
    1.3465   -3.4048   -3.7384 C   0  0  0  0  0  0  0  0  0  0  0  0
    0.3689   -3.5687   -3.0277 O   0  0  0  0  0  0  0  0  0  0  0  0
    2.1317   -4.6075   -4.2268 C   0  0  0  0  0  0  0  0  0  0  0  0
    3.1509   -4.5713   -3.8339 H   0  0  0  0  0  0  0  0  0  0  0  0
    1.6565   -5.5320   -3.8861 H   0  0  0  0  0  0  0  0  0  0  0  0
    2.1683   -4.6129   -5.3189 H   0  0  0  0  0  0  0  0  0  0  0  0
    1.7618   -2.1339   -4.0882 N   0  0  0  0  0  0  0  0  0  0  0  0
    1.2386   -0.8891   -3.4965 C   0  0  2  0  0  0  0  0  0  0  0  0
    1.5374   -0.7852   -1.9798 C   0  0  0  0  0  0  0  0  0  0  0  0
    2.6993   -0.9015   -1.6199 O   0  0  0  0  0  0  0  0  0  0  0  0
   -0.2419   -0.6770   -3.8600 C   0  0  0  0  0  0  0  0  0  0  0  0
    2.6733   -2.0869   -4.5352 H   0  0  0  0  0  0  0  0  0  0  0  0
    1.7865   -0.0616   -3.9574 H   0  0  0  0  0  0  0  0  0  0  0  0
   -0.8890   -1.3996   -3.3547 H   0  0  0  0  0  0  0  0  0  0  0  0
   -0.5614    0.3302   -3.5753 H   0  0  0  0  0  0  0  0  0  0  0  0
   -0.3817   -0.7878   -4.9398 H   0  0  0  0  0  0  0  0  0  0  0  0
    0.5435   -0.4918   -1.0584 N   0  0  0  0  0  0  0  0  0  0  0  0
    0.6400   -0.2071    0.3973 C   0  0  2  0  0  0  0  0  0  0  0  0
    1.9152    0.4712    0.9933 C   0  0  0  0  0  0  0  0  0  0  0  0
    1.9786    0.6334    2.2067 O   0  0  0  0  0  0  0  0  0  0  0  0
    0.3174   -1.5104    1.1827 C   0  0  0  0  0  0  0  0  0  0  0  0
   -1.1288   -2.0701    1.0880 C   0  0  0  0  0  0  0  0  0  0  0  0
   -1.1664   -3.4227    1.8126 C   0  0  0  0  0  0  0  0  0  0  0  0
   -1.6908   -2.2798   -0.3241 C   0  0  0  0  0  0  0  0  0  0  0  0
   -0.3971   -0.5716   -1.4339 H   0  0  0  0  0  0  0  0  0  0  0  0
   -0.1539    0.5112    0.6220 H   0  0  0  0  0  0  0  0  0  0  0  0
    0.5179   -1.3513    2.2470 H   0  0  0  0  0  0  0  0  0  0  0  0
    1.0169   -2.2807    0.8397 H   0  0  0  0  0  0  0  0  0  0  0  0
   -1.7947   -1.3765    1.6122 H   0  0  0  0  0  0  0  0  0  0  0  0
   -0.5344   -4.1549    1.2993 H   0  0  0  0  0  0  0  0  0  0  0  0
   -2.1891   -3.8112    1.8476 H   0  0  0  0  0  0  0  0  0  0  0  0
   -0.8091   -3.3158    2.8416 H   0  0  0  0  0  0  0  0  0  0  0  0
   -0.9855   -2.8487   -0.9353 H   0  0  0  0  0  0  0  0  0  0  0  0
   -2.6326   -2.8363   -0.2821 H   0  0  0  0  0  0  0  0  0  0  0  0
   -1.9013   -1.3219   -0.8060 H   0  0  0  0  0  0  0  0  0  0  0  0
    2.8627    1.1058    0.2078 N   0  0  0  0  0  0  0  0  0  0  0  0
    3.9982    1.9449    0.6469 C   0  0  2  0  0  0  0  0  0  0  0  0
    5.0979    1.2152    1.4528 C   0  0  0  0  0  0  0  0  0  0  0  0
    6.2754    1.4328    1.1948 O   0  0  0  0  0  0  0  0  0  0  0  0
    3.5090    3.1893    1.4009 C   0  0  0  0  0  0  0  0  0  0  0  0
    2.9389    0.6920   -0.7230 H   0  0  0  0  0  0  0  0  0  0  0  0
    4.4872    2.3018   -0.2650 H   0  0  0  0  0  0  0  0  0  0  0  0
    3.1021    2.9261    2.3815 H   0  0  0  0  0  0  0  0  0  0  0  0
    4.3411    3.8838    1.5538 H   0  0  0  0  0  0  0  0  0  0  0  0
    2.7315    3.7007    0.8258 H   0  0  0  0  0  0  0  0  0  0  0  0
    4.7837    0.3636    2.4924 N   0  0  0  0  0  0  0  0  0  0  0  0
    5.7687   -0.2888    3.3426 C   0  0  0  0  0  0  0  0  0  0  0  0
    3.7881    0.2745    2.7116 H   0  0  0  0  0  0  0  0  0  0  0  0
    6.4383   -0.9139    2.7425 H   0  0  0  0  0  0  0  0  0  0  0  0
    6.3657    0.4572    3.8775 H   0  0  0  0  0  0  0  0  0  0  0  0
    5.2675   -0.9253    4.0781 H   0  0  0  0  0  0  0  0  0  0  0  0
  1  2  2  0  0  0  0
  1  3  1  0  0  0  0
  1  7  1  0  0  0  0
  3  4  1  0  0  0  0
  3  5  1  0  0  0  0
  3  6  1  0  0  0  0
  7  8  1  0  0  0  0
  7 12  1  0  0  0  0
  8  9  1  0  0  0  0
  8 11  1  0  0  0  0
  8 13  1  0  0  0  0
  9 10  2  0  0  0  0
  9 17  1  0  0  0  0
 11 14  1  0  0  0  0
 11 15  1  0  0  0  0
 11 16  1  0  0  0  0
 17 18  1  0  0  0  0
 17 25  1  0  0  0  0
 18 19  1  0  0  0  0
 18 21  1  0  0  0  0
 18 26  1  0  0  0  0
 19 20  2  0  0  0  0
 19 36  1  0  0  0  0
 21 22  1  0  0  0  0
 21 27  1  0  0  0  0
 21 28  1  0  0  0  0
 22 23  1  0  0  0  0
 22 24  1  0  0  0  0
 22 29  1  0  0  0  0
 23 30  1  0  0  0  0
 23 31  1  0  0  0  0
 23 32  1  0  0  0  0
 24 33  1  0  0  0  0
 24 34  1  0  0  0  0
 24 35  1  0  0  0  0
 36 37  1  0  0  0  0
 36 41  1  0  0  0  0
 37 38  1  0  0  0  0
 37 40  1  0  0  0  0
 37 42  1  0  0  0  0
 38 39  2  0  0  0  0
 38 46  1  0  0  0  0
 40 43  1  0  0  0  0
 40 44  1  0  0  0  0
 40 45  1  0  0  0  0
 46 47  1  0  0  0  0
 46 48  1  0  0  0  0
 47 49  1  0  0  0  0
 47 50  1  0  0  0  0
 47 51  1  0  0  0  0
M  END
$$$$

  -OEChem-05262216553D

 51 50  0     1  0  0  0  0  0999 V2000
    1.5690   -3.4759   -3.3756 C   0  0  0  0  0  0  0  0  0  0  0  0
    0.6642   -3.6508   -2.5763 O   0  0  0  0  0  0  0  0  0  0  0  0
    2.4590   -4.6387   -3.7718 C   0  0  0  0  0  0  0  0  0  0  0  0
    3.4767   -4.4674   -3.4125 H   0  0  0  0  0  0  0  0  0  0  0  0
    2.0831   -5.5678   -3.3338 H   0  0  0  0  0  0  0  0  0  0  0  0
    2.4760   -4.7447   -4.8592 H   0  0  0  0  0  0  0  0  0  0  0  0
    1.8058   -2.2240   -3.9112 N   0  0  0  0  0  0  0  0  0  0  0  0
    1.1594   -0.9825   -3.4496 C   0  0  2  0  0  0  0  0  0  0  0  0
    1.4737   -0.6701   -1.9651 C   0  0  0  0  0  0  0  0  0  0  0  0
    2.6485   -0.5799   -1.6434 O   0  0  0  0  0  0  0  0  0  0  0  0
   -0.3417   -0.9853   -3.7885 C   0  0  0  0  0  0  0  0  0  0  0  0
    2.6767   -2.1316   -4.4268 H   0  0  0  0  0  0  0  0  0  0  0  0
    1.6009   -0.1586   -4.0190 H   0  0  0  0  0  0  0  0  0  0  0  0
   -0.8846   -1.7375   -3.2099 H   0  0  0  0  0  0  0  0  0  0  0  0
   -0.7804   -0.0049   -3.5787 H   0  0  0  0  0  0  0  0  0  0  0  0
   -0.4842   -1.2035   -4.8513 H   0  0  0  0  0  0  0  0  0  0  0  0
    0.4699   -0.3957   -1.0472 N   0  0  0  0  0  0  0  0  0  0  0  0
    0.5812   -0.1049    0.4059 C   0  0  2  0  0  0  0  0  0  0  0  0
    1.8638    0.5993    0.9537 C   0  0  0  0  0  0  0  0  0  0  0  0
    2.1251    0.5509    2.1502 O   0  0  0  0  0  0  0  0  0  0  0  0
    0.2595   -1.4010    1.2040 C   0  0  0  0  0  0  0  0  0  0  0  0
   -1.1908   -1.9544    1.1285 C   0  0  0  0  0  0  0  0  0  0  0  0
   -1.2246   -3.3017    1.8633 C   0  0  0  0  0  0  0  0  0  0  0  0
   -1.7778   -2.1656   -0.2726 C   0  0  0  0  0  0  0  0  0  0  0  0
   -0.4568   -0.6477   -1.3777 H   0  0  0  0  0  0  0  0  0  0  0  0
   -0.2118    0.6130    0.6354 H   0  0  0  0  0  0  0  0  0  0  0  0
    0.4671   -1.2348    2.2655 H   0  0  0  0  0  0  0  0  0  0  0  0
    0.9527   -2.1773    0.8607 H   0  0  0  0  0  0  0  0  0  0  0  0
   -1.8457   -1.2553    1.6595 H   0  0  0  0  0  0  0  0  0  0  0  0
   -0.6069   -4.0407    1.3422 H   0  0  0  0  0  0  0  0  0  0  0  0
   -2.2487   -3.6835    1.9201 H   0  0  0  0  0  0  0  0  0  0  0  0
   -0.8471   -3.1914    2.8847 H   0  0  0  0  0  0  0  0  0  0  0  0
   -1.0879   -2.7420   -0.8938 H   0  0  0  0  0  0  0  0  0  0  0  0
   -2.7222   -2.7156   -0.2117 H   0  0  0  0  0  0  0  0  0  0  0  0
   -1.9911   -1.2077   -0.7533 H   0  0  0  0  0  0  0  0  0  0  0  0
    2.5840    1.4807    0.1640 N   0  0  0  0  0  0  0  0  0  0  0  0
    3.7045    2.3542    0.5745 C   0  0  2  0  0  0  0  0  0  0  0  0
    4.9927    1.6214    1.0160 C   0  0  0  0  0  0  0  0  0  0  0  0
    6.0791    2.0300    0.6240 O   0  0  0  0  0  0  0  0  0  0  0  0
    3.2623    3.3657    1.6413 C   0  0  0  0  0  0  0  0  0  0  0  0
    2.5692    1.2053   -0.8185 H   0  0  0  0  0  0  0  0  0  0  0  0
    3.9828    2.9340   -0.3112 H   0  0  0  0  0  0  0  0  0  0  0  0
    3.0789    2.8761    2.6020 H   0  0  0  0  0  0  0  0  0  0  0  0
    4.0429    4.1187    1.7878 H   0  0  0  0  0  0  0  0  0  0  0  0
    2.3457    3.8734    1.3271 H   0  0  0  0  0  0  0  0  0  0  0  0
    4.9509    0.5452    1.8789 N   0  0  0  0  0  0  0  0  0  0  0  0
    6.1280   -0.1571    2.3679 C   0  0  0  0  0  0  0  0  0  0  0  0
    4.0239    0.2822    2.2236 H   0  0  0  0  0  0  0  0  0  0  0  0
    6.7067   -0.5608    1.5308 H   0  0  0  0  0  0  0  0  0  0  0  0
    6.7655    0.5209    2.9445 H   0  0  0  0  0  0  0  0  0  0  0  0
    5.8296   -0.9879    3.0141 H   0  0  0  0  0  0  0  0  0  0  0  0
  1  2  2  0  0  0  0
  1  3  1  0  0  0  0
  1  7  1  0  0  0  0
  3  4  1  0  0  0  0
  3  5  1  0  0  0  0
  3  6  1  0  0  0  0
  7  8  1  0  0  0  0
  7 12  1  0  0  0  0
  8  9  1  0  0  0  0
  8 11  1  0  0  0  0
  8 13  1  0  0  0  0
  9 10  2  0  0  0  0
  9 17  1  0  0  0  0
 11 14  1  0  0  0  0
 11 15  1  0  0  0  0
 11 16  1  0  0  0  0
 17 18  1  0  0  0  0
 17 25  1  0  0  0  0
 18 19  1  0  0  0  0
 18 21  1  0  0  0  0
 18 26  1  0  0  0  0
 19 20  2  0  0  0  0
 19 36  1  0  0  0  0
 21 22  1  0  0  0  0
 21 27  1  0  0  0  0
 21 28  1  0  0  0  0
 22 23  1  0  0  0  0
 22 24  1  0  0  0  0
 22 29  1  0  0  0  0
 23 30  1  0  0  0  0
 23 31  1  0  0  0  0
 23 32  1  0  0  0  0
 24 33  1  0  0  0  0
 24 34  1  0  0  0  0
 24 35  1  0  0  0  0
 36 37  1  0  0  0  0
 36 41  1  0  0  0  0
 37 38  1  0  0  0  0
 37 40  1  0  0  0  0
 37 42  1  0  0  0  0
 38 39  2  0  0  0  0
 38 46  1  0  0  0  0
 40 43  1  0  0  0  0
 40 44  1  0  0  0  0
 40 45  1  0  0  0  0
 46 47  1  0  0  0  0
 46 48  1  0  0  0  0
 47 49  1  0  0  0  0
 47 50  1  0  0  0  0
 47 51  1  0  0  0  0
M  END
$$$$

  -OEChem-05262216553D

 51 50  0     1  0  0  0  0  0999 V2000
    1.7551   -3.4695   -3.0530 C   0  0  0  0  0  0  0  0  0  0  0  0
    0.8244   -3.6417   -2.2831 O   0  0  0  0  0  0  0  0  0  0  0  0
    2.7346   -4.5983   -3.3129 C   0  0  0  0  0  0  0  0  0  0  0  0
    3.7327   -4.3108   -2.9728 H   0  0  0  0  0  0  0  0  0  0  0  0
    2.4249   -5.4979   -2.7731 H   0  0  0  0  0  0  0  0  0  0  0  0
    2.7709   -4.8244   -4.3812 H   0  0  0  0  0  0  0  0  0  0  0  0
    1.9402   -2.2492   -3.6749 N   0  0  0  0  0  0  0  0  0  0  0  0
    1.2098   -1.0179   -3.3254 C   0  0  2  0  0  0  0  0  0  0  0  0
    1.4532   -0.5923   -1.8563 C   0  0  0  0  0  0  0  0  0  0  0  0
    2.6075   -0.3903   -1.5139 O   0  0  0  0  0  0  0  0  0  0  0  0
   -0.2751   -1.1270   -3.7147 C   0  0  0  0  0  0  0  0  0  0  0  0
    2.8313   -2.1391   -4.1509 H   0  0  0  0  0  0  0  0  0  0  0  0
    1.6279   -0.2101   -3.9342 H   0  0  0  0  0  0  0  0  0  0  0  0
   -0.7970   -1.8731   -3.1098 H   0  0  0  0  0  0  0  0  0  0  0  0
   -0.7742   -0.1625   -3.5811 H   0  0  0  0  0  0  0  0  0  0  0  0
   -0.3654   -1.4160   -4.7663 H   0  0  0  0  0  0  0  0  0  0  0  0
    0.4052   -0.3523   -0.9775 N   0  0  0  0  0  0  0  0  0  0  0  0
    0.4862   -0.0366    0.4711 C   0  0  2  0  0  0  0  0  0  0  0  0
    1.7473    0.7288    0.9764 C   0  0  0  0  0  0  0  0  0  0  0  0
    2.2556    0.4765    2.0628 O   0  0  0  0  0  0  0  0  0  0  0  0
    0.2021   -1.3165    1.3054 C   0  0  0  0  0  0  0  0  0  0  0  0
   -1.2279   -1.9194    1.2314 C   0  0  0  0  0  0  0  0  0  0  0  0
   -1.2273   -3.2444    2.0060 C   0  0  0  0  0  0  0  0  0  0  0  0
   -1.7915   -2.1871   -0.1698 C   0  0  0  0  0  0  0  0  0  0  0  0
   -0.4845   -0.7187   -1.3031 H   0  0  0  0  0  0  0  0  0  0  0  0
   -0.3315    0.6587    0.6816 H   0  0  0  0  0  0  0  0  0  0  0  0
    0.3904   -1.1027    2.3625 H   0  0  0  0  0  0  0  0  0  0  0  0
    0.9269   -2.0784    0.9969 H   0  0  0  0  0  0  0  0  0  0  0  0
   -1.9110   -1.2266    1.7344 H   0  0  0  0  0  0  0  0  0  0  0  0
   -0.5712   -3.9748    1.5209 H   0  0  0  0  0  0  0  0  0  0  0  0
   -2.2375   -3.6630    2.0534 H   0  0  0  0  0  0  0  0  0  0  0  0
   -0.8763   -3.0887    3.0310 H   0  0  0  0  0  0  0  0  0  0  0  0
   -1.0794   -2.7618   -0.7667 H   0  0  0  0  0  0  0  0  0  0  0  0
   -2.7212   -2.7608   -0.1029 H   0  0  0  0  0  0  0  0  0  0  0  0
   -2.0253   -1.2496   -0.6805 H   0  0  0  0  0  0  0  0  0  0  0  0
    2.2068    1.8207    0.2563 N   0  0  0  0  0  0  0  0  0  0  0  0
    3.3415    2.7055    0.5952 C   0  0  2  0  0  0  0  0  0  0  0  0
    4.7317    2.0290    0.5673 C   0  0  0  0  0  0  0  0  0  0  0  0
    5.6631    2.5972    0.0095 O   0  0  0  0  0  0  0  0  0  0  0  0
    3.1138    3.4259    1.9314 C   0  0  0  0  0  0  0  0  0  0  0  0
    1.9497    1.7779   -0.7261 H   0  0  0  0  0  0  0  0  0  0  0  0
    3.3711    3.4803   -0.1774 H   0  0  0  0  0  0  0  0  0  0  0  0
    3.1941    2.7345    2.7751 H   0  0  0  0  0  0  0  0  0  0  0  0
    3.8649    4.2108    2.0644 H   0  0  0  0  0  0  0  0  0  0  0  0
    2.1220    3.8870    1.9505 H   0  0  0  0  0  0  0  0  0  0  0  0
    4.9534    0.8174    1.1894 N   0  0  0  0  0  0  0  0  0  0  0  0
    6.2209    0.1031    1.1622 C   0  0  0  0  0  0  0  0  0  0  0  0
    4.1385    0.3846    1.6320 H   0  0  0  0  0  0  0  0  0  0  0  0
    6.5034   -0.1336    0.1310 H   0  0  0  0  0  0  0  0  0  0  0  0
    7.0119    0.7090    1.6164 H   0  0  0  0  0  0  0  0  0  0  0  0
    6.1365   -0.8332    1.7220 H   0  0  0  0  0  0  0  0  0  0  0  0
  1  2  2  0  0  0  0
  1  3  1  0  0  0  0
  1  7  1  0  0  0  0
  3  4  1  0  0  0  0
  3  5  1  0  0  0  0
  3  6  1  0  0  0  0
  7  8  1  0  0  0  0
  7 12  1  0  0  0  0
  8  9  1  0  0  0  0
  8 11  1  0  0  0  0
  8 13  1  0  0  0  0
  9 10  2  0  0  0  0
  9 17  1  0  0  0  0
 11 14  1  0  0  0  0
 11 15  1  0  0  0  0
 11 16  1  0  0  0  0
 17 18  1  0  0  0  0
 17 25  1  0  0  0  0
 18 19  1  0  0  0  0
 18 21  1  0  0  0  0
 18 26  1  0  0  0  0
 19 20  2  0  0  0  0
 19 36  1  0  0  0  0
 21 22  1  0  0  0  0
 21 27  1  0  0  0  0
 21 28  1  0  0  0  0
 22 23  1  0  0  0  0
 22 24  1  0  0  0  0
 22 29  1  0  0  0  0
 23 30  1  0  0  0  0
 23 31  1  0  0  0  0
 23 32  1  0  0  0  0
 24 33  1  0  0  0  0
 24 34  1  0  0  0  0
 24 35  1  0  0  0  0
 36 37  1  0  0  0  0
 36 41  1  0  0  0  0
 37 38  1  0  0  0  0
 37 40  1  0  0  0  0
 37 42  1  0  0  0  0
 38 39  2  0  0  0  0
 38 46  1  0  0  0  0
 40 43  1  0  0  0  0
 40 44  1  0  0  0  0
 40 45  1  0  0  0  0
 46 47  1  0  0  0  0
 46 48  1  0  0  0  0
 47 49  1  0  0  0  0
 47 50  1  0  0  0  0
 47 51  1  0  0  0  0
M  END
$$$$

  -OEChem-05262216553D

 51 50  0     1  0  0  0  0  0999 V2000
    2.0453   -3.0904   -3.1466 C   0  0  0  0  0  0  0  0  0  0  0  0
    1.0508   -3.3370   -2.4843 O   0  0  0  0  0  0  0  0  0  0  0  0
    3.0559   -4.1866   -3.4259 C   0  0  0  0  0  0  0  0  0  0  0  0
    4.0212   -3.9248   -2.9853 H   0  0  0  0  0  0  0  0  0  0  0  0
    2.7165   -5.1315   -2.9919 H   0  0  0  0  0  0  0  0  0  0  0  0
    3.1771   -4.3182   -4.5039 H   0  0  0  0  0  0  0  0  0  0  0  0
    2.2733   -1.8150   -3.6280 N   0  0  0  0  0  0  0  0  0  0  0  0
    1.5003   -0.6260   -3.2272 C   0  0  2  0  0  0  0  0  0  0  0  0
    1.5947   -0.3551   -1.7052 C   0  0  0  0  0  0  0  0  0  0  0  0
    2.7106   -0.1900   -1.2337 O   0  0  0  0  0  0  0  0  0  0  0  0
    0.0610   -0.6978   -3.7677 C   0  0  0  0  0  0  0  0  0  0  0  0
    3.1994   -1.6585   -4.0161 H   0  0  0  0  0  0  0  0  0  0  0  0
    1.9661    0.2408   -3.7066 H   0  0  0  0  0  0  0  0  0  0  0  0
   -0.5070   -1.5038   -3.2962 H   0  0  0  0  0  0  0  0  0  0  0  0
   -0.4614    0.2462   -3.5851 H   0  0  0  0  0  0  0  0  0  0  0  0
    0.0756   -0.8775   -4.8470 H   0  0  0  0  0  0  0  0  0  0  0  0
    0.4612   -0.1902   -0.9193 N   0  0  0  0  0  0  0  0  0  0  0  0
    0.4040   -0.0829    0.5590 C   0  0  2  0  0  0  0  0  0  0  0  0
    1.6441    0.5457    1.2564 C   0  0  0  0  0  0  0  0  0  0  0  0
    2.2383   -0.0272    2.1593 O   0  0  0  0  0  0  0  0  0  0  0  0
    0.0181   -1.4489    1.1870 C   0  0  0  0  0  0  0  0  0  0  0  0
   -1.4078   -1.9936    0.9019 C   0  0  0  0  0  0  0  0  0  0  0  0
   -1.5058   -3.4066    1.4926 C   0  0  0  0  0  0  0  0  0  0  0  0
   -1.8306   -2.0653   -0.5708 C   0  0  0  0  0  0  0  0  0  0  0  0
   -0.3882   -0.5165   -1.3708 H   0  0  0  0  0  0  0  0  0  0  0  0
   -0.4107    0.6072    0.7959 H   0  0  0  0  0  0  0  0  0  0  0  0
    0.1133   -1.3723    2.2756 H   0  0  0  0  0  0  0  0  0  0  0  0
    0.7552   -2.1872    0.8507 H   0  0  0  0  0  0  0  0  0  0  0  0
   -2.1256   -1.3508    1.4227 H   0  0  0  0  0  0  0  0  0  0  0  0
   -0.8218   -4.0888    0.9771 H   0  0  0  0  0  0  0  0  0  0  0  0
   -2.5241   -3.7952    1.3935 H   0  0  0  0  0  0  0  0  0  0  0  0
   -1.2492   -3.3958    2.5565 H   0  0  0  0  0  0  0  0  0  0  0  0
   -1.0685   -2.5771   -1.1636 H   0  0  0  0  0  0  0  0  0  0  0  0
   -2.7691   -2.6197   -0.6711 H   0  0  0  0  0  0  0  0  0  0  0  0
   -2.0001   -1.0647   -0.9763 H   0  0  0  0  0  0  0  0  0  0  0  0
    2.0062    1.8420    0.9247 N   0  0  0  0  0  0  0  0  0  0  0  0
    3.1016    2.6254    1.5333 C   0  0  2  0  0  0  0  0  0  0  0  0
    4.5262    2.0438    1.3416 C   0  0  0  0  0  0  0  0  0  0  0  0
    5.4816    2.6045    1.8669 O   0  0  0  0  0  0  0  0  0  0  0  0
    2.7953    2.9014    3.0144 C   0  0  0  0  0  0  0  0  0  0  0  0
    1.5826    2.2032    0.0762 H   0  0  0  0  0  0  0  0  0  0  0  0
    3.1174    3.5938    1.0253 H   0  0  0  0  0  0  0  0  0  0  0  0
    2.8965    1.9913    3.6132 H   0  0  0  0  0  0  0  0  0  0  0  0
    3.4914    3.6472    3.4112 H   0  0  0  0  0  0  0  0  0  0  0  0
    1.7773    3.2850    3.1290 H   0  0  0  0  0  0  0  0  0  0  0  0
    4.7675    0.9697    0.5054 N   0  0  0  0  0  0  0  0  0  0  0  0
    6.0713    0.3397    0.3624 C   0  0  0  0  0  0  0  0  0  0  0  0
    3.9481    0.4832    0.1319 H   0  0  0  0  0  0  0  0  0  0  0  0
    6.4062   -0.0655    1.3229 H   0  0  0  0  0  0  0  0  0  0  0  0
    6.0138   -0.4804   -0.3597 H   0  0  0  0  0  0  0  0  0  0  0  0
    6.8107    1.0638    0.0053 H   0  0  0  0  0  0  0  0  0  0  0  0
  1  2  2  0  0  0  0
  1  3  1  0  0  0  0
  1  7  1  0  0  0  0
  3  4  1  0  0  0  0
  3  5  1  0  0  0  0
  3  6  1  0  0  0  0
  7  8  1  0  0  0  0
  7 12  1  0  0  0  0
  8  9  1  0  0  0  0
  8 11  1  0  0  0  0
  8 13  1  0  0  0  0
  9 10  2  0  0  0  0
  9 17  1  0  0  0  0
 11 14  1  0  0  0  0
 11 15  1  0  0  0  0
 11 16  1  0  0  0  0
 17 18  1  0  0  0  0
 17 25  1  0  0  0  0
 18 19  1  0  0  0  0
 18 21  1  0  0  0  0
 18 26  1  0  0  0  0
 19 20  2  0  0  0  0
 19 36  1  0  0  0  0
 21 22  1  0  0  0  0
 21 27  1  0  0  0  0
 21 28  1  0  0  0  0
 22 23  1  0  0  0  0
 22 24  1  0  0  0  0
 22 29  1  0  0  0  0
 23 30  1  0  0  0  0
 23 31  1  0  0  0  0
 23 32  1  0  0  0  0
 24 33  1  0  0  0  0
 24 34  1  0  0  0  0
 24 35  1  0  0  0  0
 36 37  1  0  0  0  0
 36 41  1  0  0  0  0
 37 38  1  0  0  0  0
 37 40  1  0  0  0  0
 37 42  1  0  0  0  0
 38 39  2  0  0  0  0
 38 46  1  0  0  0  0
 40 43  1  0  0  0  0
 40 44  1  0  0  0  0
 40 45  1  0  0  0  0
 46 47  1  0  0  0  0
 46 48  1  0  0  0  0
 47 49  1  0  0  0  0
 47 50  1  0  0  0  0
 47 51  1  0  0  0  0
M  END
$$$$

  -OEChem-05262216553D

 51 50  0     1  0  0  0  0  0999 V2000
    2.0038   -2.9556   -3.1941 C   0  0  0  0  0  0  0  0  0  0  0  0
    0.9975   -3.2244   -2.5582 O   0  0  0  0  0  0  0  0  0  0  0  0
    3.0359   -4.0345   -3.4603 C   0  0  0  0  0  0  0  0  0  0  0  0
    3.9946   -3.7494   -3.0197 H   0  0  0  0  0  0  0  0  0  0  0  0
    2.7144   -4.9813   -3.0176 H   0  0  0  0  0  0  0  0  0  0  0  0
    3.1625   -4.1738   -4.5365 H   0  0  0  0  0  0  0  0  0  0  0  0
    2.2303   -1.6712   -3.6517 N   0  0  0  0  0  0  0  0  0  0  0  0
    1.4581   -0.4928   -3.2193 C   0  0  2  0  0  0  0  0  0  0  0  0
    1.5632   -0.2614   -1.6913 C   0  0  0  0  0  0  0  0  0  0  0  0
    2.6838   -0.1224   -1.2246 O   0  0  0  0  0  0  0  0  0  0  0  0
    0.0161   -0.5505   -3.7546 C   0  0  0  0  0  0  0  0  0  0  0  0
    3.1683   -1.5018   -4.0042 H   0  0  0  0  0  0  0  0  0  0  0  0
    1.9219    0.3857   -3.6791 H   0  0  0  0  0  0  0  0  0  0  0  0
   -0.5518   -1.3647   -3.2975 H   0  0  0  0  0  0  0  0  0  0  0  0
   -0.5030    0.3908   -3.5502 H   0  0  0  0  0  0  0  0  0  0  0  0
    0.0255   -0.7079   -4.8375 H   0  0  0  0  0  0  0  0  0  0  0  0
    0.4332   -0.1166   -0.8954 N   0  0  0  0  0  0  0  0  0  0  0  0
    0.3887   -0.0659    0.5854 C   0  0  2  0  0  0  0  0  0  0  0  0
    1.6407    0.5232    1.2925 C   0  0  0  0  0  0  0  0  0  0  0  0
    2.3880   -0.1769    1.9652 O   0  0  0  0  0  0  0  0  0  0  0  0
    0.0027   -1.4467    1.1762 C   0  0  0  0  0  0  0  0  0  0  0  0
   -1.4290   -1.9744    0.8903 C   0  0  0  0  0  0  0  0  0  0  0  0
   -1.5292   -3.4037    1.4396 C   0  0  0  0  0  0  0  0  0  0  0  0
   -1.8647   -2.0000   -0.5801 C   0  0  0  0  0  0  0  0  0  0  0  0
   -0.4179   -0.4273   -1.3540 H   0  0  0  0  0  0  0  0  0  0  0  0
   -0.4210    0.6186    0.8531 H   0  0  0  0  0  0  0  0  0  0  0  0
    0.1182   -1.4022    2.2647 H   0  0  0  0  0  0  0  0  0  0  0  0
    0.7291   -2.1791    0.8051 H   0  0  0  0  0  0  0  0  0  0  0  0
   -2.1379   -1.3430    1.4362 H   0  0  0  0  0  0  0  0  0  0  0  0
   -0.8618   -4.0760    0.8900 H   0  0  0  0  0  0  0  0  0  0  0  0
   -2.5531   -3.7797    1.3480 H   0  0  0  0  0  0  0  0  0  0  0  0
   -1.2519   -3.4277    2.4984 H   0  0  0  0  0  0  0  0  0  0  0  0
   -1.1122   -2.5013   -1.1938 H   0  0  0  0  0  0  0  0  0  0  0  0
   -2.8095   -2.5424   -0.6883 H   0  0  0  0  0  0  0  0  0  0  0  0
   -2.0277   -0.9867   -0.9555 H   0  0  0  0  0  0  0  0  0  0  0  0
    1.8344    1.8957    1.2598 N   0  0  0  0  0  0  0  0  0  0  0  0
    2.9549    2.6486    1.8636 C   0  0  2  0  0  0  0  0  0  0  0  0
    4.3365    2.3833    1.2208 C   0  0  0  0  0  0  0  0  0  0  0  0
    5.0686    3.3338    0.9716 O   0  0  0  0  0  0  0  0  0  0  0  0
    3.0198    2.4528    3.3851 C   0  0  0  0  0  0  0  0  0  0  0  0
    1.2721    2.3861    0.5715 H   0  0  0  0  0  0  0  0  0  0  0  0
    2.7438    3.7092    1.6945 H   0  0  0  0  0  0  0  0  0  0  0  0
    3.3712    1.4492    3.6421 H   0  0  0  0  0  0  0  0  0  0  0  0
    3.7142    3.1759    3.8243 H   0  0  0  0  0  0  0  0  0  0  0  0
    2.0330    2.6036    3.8326 H   0  0  0  0  0  0  0  0  0  0  0  0
    4.7562    1.1056    0.9120 N   0  0  0  0  0  0  0  0  0  0  0  0
    5.9700    0.8069    0.1679 C   0  0  0  0  0  0  0  0  0  0  0  0
    4.0665    0.3617    1.0532 H   0  0  0  0  0  0  0  0  0  0  0  0
    6.8451    1.2266    0.6745 H   0  0  0  0  0  0  0  0  0  0  0  0
    6.1035   -0.2761    0.0885 H   0  0  0  0  0  0  0  0  0  0  0  0
    5.9098    1.2254   -0.8418 H   0  0  0  0  0  0  0  0  0  0  0  0
  1  2  2  0  0  0  0
  1  3  1  0  0  0  0
  1  7  1  0  0  0  0
  3  4  1  0  0  0  0
  3  5  1  0  0  0  0
  3  6  1  0  0  0  0
  7  8  1  0  0  0  0
  7 12  1  0  0  0  0
  8  9  1  0  0  0  0
  8 11  1  0  0  0  0
  8 13  1  0  0  0  0
  9 10  2  0  0  0  0
  9 17  1  0  0  0  0
 11 14  1  0  0  0  0
 11 15  1  0  0  0  0
 11 16  1  0  0  0  0
 17 18  1  0  0  0  0
 17 25  1  0  0  0  0
 18 19  1  0  0  0  0
 18 21  1  0  0  0  0
 18 26  1  0  0  0  0
 19 20  2  0  0  0  0
 19 36  1  0  0  0  0
 21 22  1  0  0  0  0
 21 27  1  0  0  0  0
 21 28  1  0  0  0  0
 22 23  1  0  0  0  0
 22 24  1  0  0  0  0
 22 29  1  0  0  0  0
 23 30  1  0  0  0  0
 23 31  1  0  0  0  0
 23 32  1  0  0  0  0
 24 33  1  0  0  0  0
 24 34  1  0  0  0  0
 24 35  1  0  0  0  0
 36 37  1  0  0  0  0
 36 41  1  0  0  0  0
 37 38  1  0  0  0  0
 37 40  1  0  0  0  0
 37 42  1  0  0  0  0
 38 39  2  0  0  0  0
 38 46  1  0  0  0  0
 40 43  1  0  0  0  0
 40 44  1  0  0  0  0
 40 45  1  0  0  0  0
 46 47  1  0  0  0  0
 46 48  1  0  0  0  0
 47 49  1  0  0  0  0
 47 50  1  0  0  0  0
 47 51  1  0  0  0  0
M  END
$$$$

  -OEChem-05262216553D

 51 50  0     1  0  0  0  0  0999 V2000
    2.2138   -3.2491   -2.7829 C   0  0  0  0  0  0  0  0  0  0  0  0
    1.2059   -3.4762   -2.1341 O   0  0  0  0  0  0  0  0  0  0  0  0
    3.3119   -4.2930   -2.8551 C   0  0  0  0  0  0  0  0  0  0  0  0
    4.2226   -3.9069   -2.3903 H   0  0  0  0  0  0  0  0  0  0  0  0
    3.0052   -5.2005   -2.3273 H   0  0  0  0  0  0  0  0  0  0  0  0
    3.5209   -4.5468   -3.8968 H   0  0  0  0  0  0  0  0  0  0  0  0
    2.3818   -2.0387   -3.4288 N   0  0  0  0  0  0  0  0  0  0  0  0
    1.5346   -0.8541   -3.2012 C   0  0  2  0  0  0  0  0  0  0  0  0
    1.5832   -0.3829   -1.7265 C   0  0  0  0  0  0  0  0  0  0  0  0
    2.6756   -0.0520   -1.2903 O   0  0  0  0  0  0  0  0  0  0  0  0
    0.1150   -1.0709   -3.7544 C   0  0  0  0  0  0  0  0  0  0  0  0
    3.3185   -1.8710   -3.7854 H   0  0  0  0  0  0  0  0  0  0  0  0
    1.9658   -0.0317   -3.7808 H   0  0  0  0  0  0  0  0  0  0  0  0
   -0.4208   -1.8464   -3.2018 H   0  0  0  0  0  0  0  0  0  0  0  0
   -0.4611   -0.1425   -3.6948 H   0  0  0  0  0  0  0  0  0  0  0  0
    0.1664   -1.3750   -4.8043 H   0  0  0  0  0  0  0  0  0  0  0  0
    0.4285   -0.2194   -0.9698 N   0  0  0  0  0  0  0  0  0  0  0  0
    0.3532   -0.0120    0.4962 C   0  0  2  0  0  0  0  0  0  0  0  0
    1.5494    0.7184    1.1642 C   0  0  0  0  0  0  0  0  0  0  0  0
    2.4335    0.0949    1.7386 O   0  0  0  0  0  0  0  0  0  0  0  0
    0.0379   -1.3379    1.2327 C   0  0  0  0  0  0  0  0  0  0  0  0
   -1.3556   -1.9786    0.9921 C   0  0  0  0  0  0  0  0  0  0  0  0
   -1.3812   -3.3416    1.6963 C   0  0  0  0  0  0  0  0  0  0  0  0
   -1.7721   -2.1870   -0.4687 C   0  0  0  0  0  0  0  0  0  0  0  0
   -0.3814   -0.6639   -1.3910 H   0  0  0  0  0  0  0  0  0  0  0  0
   -0.5031    0.6444    0.6736 H   0  0  0  0  0  0  0  0  0  0  0  0
    0.1370   -1.1659    2.3102 H   0  0  0  0  0  0  0  0  0  0  0  0
    0.8109   -2.0626    0.9511 H   0  0  0  0  0  0  0  0  0  0  0  0
   -2.1076   -1.3343    1.4601 H   0  0  0  0  0  0  0  0  0  0  0  0
   -0.6575   -4.0246    1.2391 H   0  0  0  0  0  0  0  0  0  0  0  0
   -2.3759   -3.7928    1.6264 H   0  0  0  0  0  0  0  0  0  0  0  0
   -1.1323   -3.2300    2.7563 H   0  0  0  0  0  0  0  0  0  0  0  0
   -0.9904   -2.7164   -1.0173 H   0  0  0  0  0  0  0  0  0  0  0  0
   -2.6886   -2.7832   -0.5217 H   0  0  0  0  0  0  0  0  0  0  0  0
   -1.9780   -1.2307   -0.9560 H   0  0  0  0  0  0  0  0  0  0  0  0
    1.5164    2.1006    1.2698 N   0  0  0  0  0  0  0  0  0  0  0  0
    2.5517    2.9651    1.8772 C   0  0  2  0  0  0  0  0  0  0  0  0
    3.9094    2.9769    1.1350 C   0  0  0  0  0  0  0  0  0  0  0  0
    4.5235    4.0330    1.0410 O   0  0  0  0  0  0  0  0  0  0  0  0
    2.7522    2.6526    3.3671 C   0  0  0  0  0  0  0  0  0  0  0  0
    0.8178    2.5585    0.6931 H   0  0  0  0  0  0  0  0  0  0  0  0
    2.1723    3.9903    1.8209 H   0  0  0  0  0  0  0  0  0  0  0  0
    3.2724    1.7004    3.5069 H   0  0  0  0  0  0  0  0  0  0  0  0
    3.3544    3.4377    3.8348 H   0  0  0  0  0  0  0  0  0  0  0  0
    1.7875    2.6038    3.8804 H   0  0  0  0  0  0  0  0  0  0  0  0
    4.4384    1.8372    0.5635 N   0  0  0  0  0  0  0  0  0  0  0  0
    5.6849    1.7980   -0.1848 C   0  0  0  0  0  0  0  0  0  0  0  0
    3.8864    0.9785    0.6548 H   0  0  0  0  0  0  0  0  0  0  0  0
    5.8631    0.7856   -0.5601 H   0  0  0  0  0  0  0  0  0  0  0  0
    5.6403    2.4813   -1.0390 H   0  0  0  0  0  0  0  0  0  0  0  0
    6.5248    2.0847    0.4562 H   0  0  0  0  0  0  0  0  0  0  0  0
  1  2  2  0  0  0  0
  1  3  1  0  0  0  0
  1  7  1  0  0  0  0
  3  4  1  0  0  0  0
  3  5  1  0  0  0  0
  3  6  1  0  0  0  0
  7  8  1  0  0  0  0
  7 12  1  0  0  0  0
  8  9  1  0  0  0  0
  8 11  1  0  0  0  0
  8 13  1  0  0  0  0
  9 10  2  0  0  0  0
  9 17  1  0  0  0  0
 11 14  1  0  0  0  0
 11 15  1  0  0  0  0
 11 16  1  0  0  0  0
 17 18  1  0  0  0  0
 17 25  1  0  0  0  0
 18 19  1  0  0  0  0
 18 21  1  0  0  0  0
 18 26  1  0  0  0  0
 19 20  2  0  0  0  0
 19 36  1  0  0  0  0
 21 22  1  0  0  0  0
 21 27  1  0  0  0  0
 21 28  1  0  0  0  0
 22 23  1  0  0  0  0
 22 24  1  0  0  0  0
 22 29  1  0  0  0  0
 23 30  1  0  0  0  0
 23 31  1  0  0  0  0
 23 32  1  0  0  0  0
 24 33  1  0  0  0  0
 24 34  1  0  0  0  0
 24 35  1  0  0  0  0
 36 37  1  0  0  0  0
 36 41  1  0  0  0  0
 37 38  1  0  0  0  0
 37 40  1  0  0  0  0
 37 42  1  0  0  0  0
 38 39  2  0  0  0  0
 38 46  1  0  0  0  0
 40 43  1  0  0  0  0
 40 44  1  0  0  0  0
 40 45  1  0  0  0  0
 46 47  1  0  0  0  0
 46 48  1  0  0  0  0
 47 49  1  0  0  0  0
 47 50  1  0  0  0  0
 47 51  1  0  0  0  0
M  END
$$$$

  -OEChem-05262216553D

 51 50  0     1  0  0  0  0  0999 V2000
    2.1876   -3.1883   -2.6639 C   0  0  0  0  0  0  0  0  0  0  0  0
    1.1944   -3.3635   -1.9778 O   0  0  0  0  0  0  0  0  0  0  0  0
    3.2568   -4.2626   -2.7262 C   0  0  0  0  0  0  0  0  0  0  0  0
    4.1996   -3.8730   -2.3343 H   0  0  0  0  0  0  0  0  0  0  0  0
    2.9585   -5.1275   -2.1266 H   0  0  0  0  0  0  0  0  0  0  0  0
    3.4036   -4.5851   -3.7597 H   0  0  0  0  0  0  0  0  0  0  0  0
    2.3584   -2.0139   -3.3722 N   0  0  0  0  0  0  0  0  0  0  0  0
    1.5206   -0.8125   -3.2083 C   0  0  2  0  0  0  0  0  0  0  0  0
    1.5712   -0.2609   -1.7625 C   0  0  0  0  0  0  0  0  0  0  0  0
    2.6373    0.2117   -1.3962 O   0  0  0  0  0  0  0  0  0  0  0  0
    0.1007   -1.0508   -3.7487 C   0  0  0  0  0  0  0  0  0  0  0  0
    3.2828   -1.8815   -3.7725 H   0  0  0  0  0  0  0  0  0  0  0  0
    1.9563   -0.0257   -3.8323 H   0  0  0  0  0  0  0  0  0  0  0  0
   -0.4300   -1.8103   -3.1704 H   0  0  0  0  0  0  0  0  0  0  0  0
   -0.4777   -0.1224   -3.7159 H   0  0  0  0  0  0  0  0  0  0  0  0
    0.1497   -1.3878   -4.7885 H   0  0  0  0  0  0  0  0  0  0  0  0
    0.4285   -0.1427   -0.9789 N   0  0  0  0  0  0  0  0  0  0  0  0
    0.3940   -0.0092    0.4981 C   0  0  2  0  0  0  0  0  0  0  0  0
    1.5962    0.6870    1.1888 C   0  0  0  0  0  0  0  0  0  0  0  0
    2.5816    0.0435    1.5272 O   0  0  0  0  0  0  0  0  0  0  0  0
    0.0812   -1.3577    1.1913 C   0  0  0  0  0  0  0  0  0  0  0  0
   -1.3284   -1.9694    0.9680 C   0  0  0  0  0  0  0  0  0  0  0  0
   -1.3558   -3.3589    1.6177 C   0  0  0  0  0  0  0  0  0  0  0  0
   -1.8066   -2.1030   -0.4814 C   0  0  0  0  0  0  0  0  0  0  0  0
   -0.3538   -0.6539   -1.3763 H   0  0  0  0  0  0  0  0  0  0  0  0
   -0.4579    0.6408    0.7147 H   0  0  0  0  0  0  0  0  0  0  0  0
    0.2177   -1.2304    2.2709 H   0  0  0  0  0  0  0  0  0  0  0  0
    0.8336   -2.0814    0.8568 H   0  0  0  0  0  0  0  0  0  0  0  0
   -2.0516   -1.3342    1.4902 H   0  0  0  0  0  0  0  0  0  0  0  0
   -0.6618   -4.0351    1.1075 H   0  0  0  0  0  0  0  0  0  0  0  0
   -2.3609   -3.7891    1.5647 H   0  0  0  0  0  0  0  0  0  0  0  0
   -1.0677   -3.2957    2.6718 H   0  0  0  0  0  0  0  0  0  0  0  0
   -1.0736   -2.6488   -1.0775 H   0  0  0  0  0  0  0  0  0  0  0  0
   -2.7518   -2.6538   -0.5182 H   0  0  0  0  0  0  0  0  0  0  0  0
   -1.9849   -1.1208   -0.9261 H   0  0  0  0  0  0  0  0  0  0  0  0
    1.4517    1.9830    1.6599 N   0  0  0  0  0  0  0  0  0  0  0  0
    2.4850    2.7856    2.3498 C   0  0  2  0  0  0  0  0  0  0  0  0
    3.7280    3.1210    1.4904 C   0  0  0  0  0  0  0  0  0  0  0  0
    4.2543    4.2198    1.6177 O   0  0  0  0  0  0  0  0  0  0  0  0
    2.8987    2.1531    3.6866 C   0  0  0  0  0  0  0  0  0  0  0  0
    0.6461    2.4856    1.3015 H   0  0  0  0  0  0  0  0  0  0  0  0
    2.0213    3.7476    2.5902 H   0  0  0  0  0  0  0  0  0  0  0  0
    3.5126    1.2613    3.5314 H   0  0  0  0  0  0  0  0  0  0  0  0
    3.4851    2.8679    4.2723 H   0  0  0  0  0  0  0  0  0  0  0  0
    2.0141    1.8724    4.2657 H   0  0  0  0  0  0  0  0  0  0  0  0
    4.2388    2.2348    0.5622 N   0  0  0  0  0  0  0  0  0  0  0  0
    5.3816    2.5143   -0.2936 C   0  0  0  0  0  0  0  0  0  0  0  0
    3.7893    1.3151    0.5037 H   0  0  0  0  0  0  0  0  0  0  0  0
    6.2655    2.7466    0.3093 H   0  0  0  0  0  0  0  0  0  0  0  0
    5.6052    1.6417   -0.9149 H   0  0  0  0  0  0  0  0  0  0  0  0
    5.1682    3.3630   -0.9513 H   0  0  0  0  0  0  0  0  0  0  0  0
  1  2  2  0  0  0  0
  1  3  1  0  0  0  0
  1  7  1  0  0  0  0
  3  4  1  0  0  0  0
  3  5  1  0  0  0  0
  3  6  1  0  0  0  0
  7  8  1  0  0  0  0
  7 12  1  0  0  0  0
  8  9  1  0  0  0  0
  8 11  1  0  0  0  0
  8 13  1  0  0  0  0
  9 10  2  0  0  0  0
  9 17  1  0  0  0  0
 11 14  1  0  0  0  0
 11 15  1  0  0  0  0
 11 16  1  0  0  0  0
 17 18  1  0  0  0  0
 17 25  1  0  0  0  0
 18 19  1  0  0  0  0
 18 21  1  0  0  0  0
 18 26  1  0  0  0  0
 19 20  2  0  0  0  0
 19 36  1  0  0  0  0
 21 22  1  0  0  0  0
 21 27  1  0  0  0  0
 21 28  1  0  0  0  0
 22 23  1  0  0  0  0
 22 24  1  0  0  0  0
 22 29  1  0  0  0  0
 23 30  1  0  0  0  0
 23 31  1  0  0  0  0
 23 32  1  0  0  0  0
 24 33  1  0  0  0  0
 24 34  1  0  0  0  0
 24 35  1  0  0  0  0
 36 37  1  0  0  0  0
 36 41  1  0  0  0  0
 37 38  1  0  0  0  0
 37 40  1  0  0  0  0
 37 42  1  0  0  0  0
 38 39  2  0  0  0  0
 38 46  1  0  0  0  0
 40 43  1  0  0  0  0
 40 44  1  0  0  0  0
 40 45  1  0  0  0  0
 46 47  1  0  0  0  0
 46 48  1  0  0  0  0
 47 49  1  0  0  0  0
 47 50  1  0  0  0  0
 47 51  1  0  0  0  0
M  END
$$$$

  -OEChem-05262216553D

 51 50  0     1  0  0  0  0  0999 V2000
    2.2072   -3.0865   -2.6706 C   0  0  0  0  0  0  0  0  0  0  0  0
    1.2348   -3.2873   -1.9611 O   0  0  0  0  0  0  0  0  0  0  0  0
    3.3277   -4.1077   -2.7188 C   0  0  0  0  0  0  0  0  0  0  0  0
    4.2676   -3.6438   -2.4093 H   0  0  0  0  0  0  0  0  0  0  0  0
    3.1090   -4.9402   -2.0442 H   0  0  0  0  0  0  0  0  0  0  0  0
    3.4363   -4.4960   -3.7344 H   0  0  0  0  0  0  0  0  0  0  0  0
    2.3107   -1.9292   -3.4190 N   0  0  0  0  0  0  0  0  0  0  0  0
    1.4302   -0.7584   -3.2625 C   0  0  2  0  0  0  0  0  0  0  0  0
    1.4973   -0.1753   -1.8300 C   0  0  0  0  0  0  0  0  0  0  0  0
    2.5426    0.3759   -1.5199 O   0  0  0  0  0  0  0  0  0  0  0  0
    0.0092   -1.0607   -3.7657 C   0  0  0  0  0  0  0  0  0  0  0  0
    3.2233   -1.7660   -3.8353 H   0  0  0  0  0  0  0  0  0  0  0  0
    1.8209    0.0306   -3.9129 H   0  0  0  0  0  0  0  0  0  0  0  0
   -0.4737   -1.8391   -3.1721 H   0  0  0  0  0  0  0  0  0  0  0  0
   -0.6080   -0.1581   -3.7227 H   0  0  0  0  0  0  0  0  0  0  0  0
    0.0466   -1.4019   -4.8047 H   0  0  0  0  0  0  0  0  0  0  0  0
    0.3757   -0.0808   -1.0141 N   0  0  0  0  0  0  0  0  0  0  0  0
    0.3799    0.0209    0.4665 C   0  0  2  0  0  0  0  0  0  0  0  0
    1.5886    0.7047    1.1600 C   0  0  0  0  0  0  0  0  0  0  0  0
    2.6335    0.0880    1.3298 O   0  0  0  0  0  0  0  0  0  0  0  0
    0.0995   -1.3436    1.1414 C   0  0  0  0  0  0  0  0  0  0  0  0
   -1.3085   -1.9679    0.9462 C   0  0  0  0  0  0  0  0  0  0  0  0
   -1.3004   -3.3693    1.5709 C   0  0  0  0  0  0  0  0  0  0  0  0
   -1.8198   -2.0860   -0.4934 C   0  0  0  0  0  0  0  0  0  0  0  0
   -0.4008   -0.6150   -1.3913 H   0  0  0  0  0  0  0  0  0  0  0  0
   -0.4727    0.6588    0.7130 H   0  0  0  0  0  0  0  0  0  0  0  0
    0.2659   -1.2363    2.2187 H   0  0  0  0  0  0  0  0  0  0  0  0
    0.8503   -2.0520    0.7720 H   0  0  0  0  0  0  0  0  0  0  0  0
   -2.0255   -1.3503    1.4976 H   0  0  0  0  0  0  0  0  0  0  0  0
   -0.6172   -4.0299    1.0267 H   0  0  0  0  0  0  0  0  0  0  0  0
   -2.3024   -3.8083    1.5438 H   0  0  0  0  0  0  0  0  0  0  0  0
   -0.9785   -3.3217    2.6160 H   0  0  0  0  0  0  0  0  0  0  0  0
   -1.0947   -2.6154   -1.1138 H   0  0  0  0  0  0  0  0  0  0  0  0
   -2.7593   -2.6473   -0.5170 H   0  0  0  0  0  0  0  0  0  0  0  0
   -2.0189   -1.0997   -0.9199 H   0  0  0  0  0  0  0  0  0  0  0  0
    1.3729    1.8352    1.9353 N   0  0  0  0  0  0  0  0  0  0  0  0
    2.3864    2.5654    2.7283 C   0  0  2  0  0  0  0  0  0  0  0  0
    3.5518    3.1611    1.9015 C   0  0  0  0  0  0  0  0  0  0  0  0
    3.8927    4.3199    2.1051 O   0  0  0  0  0  0  0  0  0  0  0  0
    2.9187    1.7147    3.8903 C   0  0  0  0  0  0  0  0  0  0  0  0
    0.4943    2.3147    1.7673 H   0  0  0  0  0  0  0  0  0  0  0  0
    1.8723    3.4208    3.1779 H   0  0  0  0  0  0  0  0  0  0  0  0
    3.5636    0.9074    3.5315 H   0  0  0  0  0  0  0  0  0  0  0  0
    3.5062    2.3391    4.5706 H   0  0  0  0  0  0  0  0  0  0  0  0
    2.0890    1.2749    4.4515 H   0  0  0  0  0  0  0  0  0  0  0  0
    4.1999    2.4294    0.9261 N   0  0  0  0  0  0  0  0  0  0  0  0
    5.2519    2.9538    0.0693 C   0  0  0  0  0  0  0  0  0  0  0  0
    3.8646    1.4721    0.7746 H   0  0  0  0  0  0  0  0  0  0  0  0
    6.1100    3.2746    0.6688 H   0  0  0  0  0  0  0  0  0  0  0  0
    5.5859    2.1801   -0.6288 H   0  0  0  0  0  0  0  0  0  0  0  0
    4.8839    3.8068   -0.5096 H   0  0  0  0  0  0  0  0  0  0  0  0
  1  2  2  0  0  0  0
  1  3  1  0  0  0  0
  1  7  1  0  0  0  0
  3  4  1  0  0  0  0
  3  5  1  0  0  0  0
  3  6  1  0  0  0  0
  7  8  1  0  0  0  0
  7 12  1  0  0  0  0
  8  9  1  0  0  0  0
  8 11  1  0  0  0  0
  8 13  1  0  0  0  0
  9 10  2  0  0  0  0
  9 17  1  0  0  0  0
 11 14  1  0  0  0  0
 11 15  1  0  0  0  0
 11 16  1  0  0  0  0
 17 18  1  0  0  0  0
 17 25  1  0  0  0  0
 18 19  1  0  0  0  0
 18 21  1  0  0  0  0
 18 26  1  0  0  0  0
 19 20  2  0  0  0  0
 19 36  1  0  0  0  0
 21 22  1  0  0  0  0
 21 27  1  0  0  0  0
 21 28  1  0  0  0  0
 22 23  1  0  0  0  0
 22 24  1  0  0  0  0
 22 29  1  0  0  0  0
 23 30  1  0  0  0  0
 23 31  1  0  0  0  0
 23 32  1  0  0  0  0
 24 33  1  0  0  0  0
 24 34  1  0  0  0  0
 24 35  1  0  0  0  0
 36 37  1  0  0  0  0
 36 41  1  0  0  0  0
 37 38  1  0  0  0  0
 37 40  1  0  0  0  0
 37 42  1  0  0  0  0
 38 39  2  0  0  0  0
 38 46  1  0  0  0  0
 40 43  1  0  0  0  0
 40 44  1  0  0  0  0
 40 45  1  0  0  0  0
 46 47  1  0  0  0  0
 46 48  1  0  0  0  0
 47 49  1  0  0  0  0
 47 50  1  0  0  0  0
 47 51  1  0  0  0  0
M  END
$$$$

  -OEChem-05262216553D

 51 50  0     1  0  0  0  0  0999 V2000
    2.1669   -3.0365   -2.6210 C   0  0  0  0  0  0  0  0  0  0  0  0
    1.2035   -3.2192   -1.8950 O   0  0  0  0  0  0  0  0  0  0  0  0
    3.3111   -4.0319   -2.6176 C   0  0  0  0  0  0  0  0  0  0  0  0
    4.2103   -3.5621   -2.2110 H   0  0  0  0  0  0  0  0  0  0  0  0
    3.0558   -4.8972   -1.9996 H   0  0  0  0  0  0  0  0  0  0  0  0
    3.5140   -4.3740   -3.6352 H   0  0  0  0  0  0  0  0  0  0  0  0
    2.2419   -1.9185   -3.4295 N   0  0  0  0  0  0  0  0  0  0  0  0
    1.3387   -0.7585   -3.3347 C   0  0  2  0  0  0  0  0  0  0  0  0
    1.4098   -0.0860   -1.9426 C   0  0  0  0  0  0  0  0  0  0  0  0
    2.3996    0.5956   -1.7261 O   0  0  0  0  0  0  0  0  0  0  0  0
   -0.0814   -1.1141   -3.8037 C   0  0  0  0  0  0  0  0  0  0  0  0
    3.1474   -1.7611   -3.8634 H   0  0  0  0  0  0  0  0  0  0  0  0
    1.7074   -0.0044   -4.0376 H   0  0  0  0  0  0  0  0  0  0  0  0
   -0.5412   -1.8711   -3.1664 H   0  0  0  0  0  0  0  0  0  0  0  0
   -0.7164   -0.2228   -3.7983 H   0  0  0  0  0  0  0  0  0  0  0  0
   -0.0480   -1.5057   -4.8250 H   0  0  0  0  0  0  0  0  0  0  0  0
    0.3199   -0.0257   -1.0830 N   0  0  0  0  0  0  0  0  0  0  0  0
    0.3882    0.0590    0.3977 C   0  0  2  0  0  0  0  0  0  0  0  0
    1.5995    0.7525    1.0794 C   0  0  0  0  0  0  0  0  0  0  0  0
    2.7096    0.2363    1.0465 O   0  0  0  0  0  0  0  0  0  0  0  0
    0.1441   -1.3106    1.0760 C   0  0  0  0  0  0  0  0  0  0  0  0
   -1.2688   -1.9398    0.9402 C   0  0  0  0  0  0  0  0  0  0  0  0
   -1.2275   -3.3449    1.5554 C   0  0  0  0  0  0  0  0  0  0  0  0
   -1.8490   -2.0527   -0.4735 C   0  0  0  0  0  0  0  0  0  0  0  0
   -0.4314   -0.6212   -1.4171 H   0  0  0  0  0  0  0  0  0  0  0  0
   -0.4631    0.6870    0.6725 H   0  0  0  0  0  0  0  0  0  0  0  0
    0.3575   -1.2115    2.1461 H   0  0  0  0  0  0  0  0  0  0  0  0
    0.8807   -2.0125    0.6685 H   0  0  0  0  0  0  0  0  0  0  0  0
   -1.9613   -1.3280    1.5280 H   0  0  0  0  0  0  0  0  0  0  0  0
   -0.5593   -3.9969    0.9828 H   0  0  0  0  0  0  0  0  0  0  0  0
   -2.2266   -3.7916    1.5616 H   0  0  0  0  0  0  0  0  0  0  0  0
   -0.8684   -3.3004    2.5885 H   0  0  0  0  0  0  0  0  0  0  0  0
   -1.1646   -2.5992   -1.1242 H   0  0  0  0  0  0  0  0  0  0  0  0
   -2.7987   -2.5964   -0.4484 H   0  0  0  0  0  0  0  0  0  0  0  0
   -2.0513   -1.0654   -0.8962 H   0  0  0  0  0  0  0  0  0  0  0  0
    1.3530    1.6427    2.1163 N   0  0  0  0  0  0  0  0  0  0  0  0
    2.3425    2.2260    3.0493 C   0  0  2  0  0  0  0  0  0  0  0  0
    3.4304    3.1054    2.3867 C   0  0  0  0  0  0  0  0  0  0  0  0
    3.6898    4.1983    2.8750 O   0  0  0  0  0  0  0  0  0  0  0  0
    2.9778    1.1482    3.9393 C   0  0  0  0  0  0  0  0  0  0  0  0
    0.4090    2.0124    2.1607 H   0  0  0  0  0  0  0  0  0  0  0  0
    1.7860    2.8936    3.7148 H   0  0  0  0  0  0  0  0  0  0  0  0
    3.6667    0.5171    3.3702 H   0  0  0  0  0  0  0  0  0  0  0  0
    3.5421    1.6185    4.7504 H   0  0  0  0  0  0  0  0  0  0  0  0
    2.2039    0.5119    4.3784 H   0  0  0  0  0  0  0  0  0  0  0  0
    4.1101    2.6932    1.2578 N   0  0  0  0  0  0  0  0  0  0  0  0
    5.1336    3.4777    0.5833 C   0  0  0  0  0  0  0  0  0  0  0  0
    3.8590    1.7706    0.8870 H   0  0  0  0  0  0  0  0  0  0  0  0
    5.9686    3.6822    1.2614 H   0  0  0  0  0  0  0  0  0  0  0  0
    5.5167    2.9289   -0.2823 H   0  0  0  0  0  0  0  0  0  0  0  0
    4.7194    4.4292    0.2340 H   0  0  0  0  0  0  0  0  0  0  0  0
  1  2  2  0  0  0  0
  1  3  1  0  0  0  0
  1  7  1  0  0  0  0
  3  4  1  0  0  0  0
  3  5  1  0  0  0  0
  3  6  1  0  0  0  0
  7  8  1  0  0  0  0
  7 12  1  0  0  0  0
  8  9  1  0  0  0  0
  8 11  1  0  0  0  0
  8 13  1  0  0  0  0
  9 10  2  0  0  0  0
  9 17  1  0  0  0  0
 11 14  1  0  0  0  0
 11 15  1  0  0  0  0
 11 16  1  0  0  0  0
 17 18  1  0  0  0  0
 17 25  1  0  0  0  0
 18 19  1  0  0  0  0
 18 21  1  0  0  0  0
 18 26  1  0  0  0  0
 19 20  2  0  0  0  0
 19 36  1  0  0  0  0
 21 22  1  0  0  0  0
 21 27  1  0  0  0  0
 21 28  1  0  0  0  0
 22 23  1  0  0  0  0
 22 24  1  0  0  0  0
 22 29  1  0  0  0  0
 23 30  1  0  0  0  0
 23 31  1  0  0  0  0
 23 32  1  0  0  0  0
 24 33  1  0  0  0  0
 24 34  1  0  0  0  0
 24 35  1  0  0  0  0
 36 37  1  0  0  0  0
 36 41  1  0  0  0  0
 37 38  1  0  0  0  0
 37 40  1  0  0  0  0
 37 42  1  0  0  0  0
 38 39  2  0  0  0  0
 38 46  1  0  0  0  0
 40 43  1  0  0  0  0
 40 44  1  0  0  0  0
 40 45  1  0  0  0  0
 46 47  1  0  0  0  0
 46 48  1  0  0  0  0
 47 49  1  0  0  0  0
 47 50  1  0  0  0  0
 47 51  1  0  0  0  0
M  END
$$$$

  -OEChem-05262216553D

 51 50  0     1  0  0  0  0  0999 V2000
    1.3650   -2.1070   -3.6920 C   0  0  0  0  0  0  0  0  0  0  0  0
    0.6675   -1.1920   -3.2806 O   0  0  0  0  0  0  0  0  0  0  0  0
    0.8724   -2.9662   -4.8414 C   0  0  0  0  0  0  0  0  0  0  0  0
    0.8269   -4.0140   -4.5339 H   0  0  0  0  0  0  0  0  0  0  0  0
   -0.1275   -2.6479   -5.1503 H   0  0  0  0  0  0  0  0  0  0  0  0
    1.5497   -2.8729   -5.6940 H   0  0  0  0  0  0  0  0  0  0  0  0
    2.5815   -2.3963   -3.1023 N   0  0  0  0  0  0  0  0  0  0  0  0
    3.2253   -1.6731   -1.9847 C   0  0  2  0  0  0  0  0  0  0  0  0
    2.4846   -1.7736   -0.6330 C   0  0  0  0  0  0  0  0  0  0  0  0
    3.0235   -2.3429    0.3062 O   0  0  0  0  0  0  0  0  0  0  0  0
    3.4841   -0.2038   -2.3485 C   0  0  0  0  0  0  0  0  0  0  0  0
    3.0671   -3.2116   -3.4664 H   0  0  0  0  0  0  0  0  0  0  0  0
    4.2046   -2.1364   -1.8240 H   0  0  0  0  0  0  0  0  0  0  0  0
    2.5489    0.3546   -2.4473 H   0  0  0  0  0  0  0  0  0  0  0  0
    4.0821    0.2741   -1.5656 H   0  0  0  0  0  0  0  0  0  0  0  0
    4.0320   -0.1363   -3.2931 H   0  0  0  0  0  0  0  0  0  0  0  0
    1.1613   -1.3937   -0.5130 N   0  0  0  0  0  0  0  0  0  0  0  0
    0.5871   -0.6719    0.6407 C   0  0  2  0  0  0  0  0  0  0  0  0
    1.4964    0.3081    1.4416 C   0  0  0  0  0  0  0  0  0  0  0  0
    2.7144    0.3479    1.3376 O   0  0  0  0  0  0  0  0  0  0  0  0
   -0.0310   -1.6754    1.6461 C   0  0  0  0  0  0  0  0  0  0  0  0
   -1.2728   -2.4793    1.1757 C   0  0  0  0  0  0  0  0  0  0  0  0
   -1.6200   -3.5054    2.2629 C   0  0  0  0  0  0  0  0  0  0  0  0
   -1.1066   -3.2382   -0.1496 C   0  0  0  0  0  0  0  0  0  0  0  0
    0.7737   -1.1228   -1.4207 H   0  0  0  0  0  0  0  0  0  0  0  0
   -0.2256   -0.0589    0.2408 H   0  0  0  0  0  0  0  0  0  0  0  0
   -0.3177   -1.1330    2.5533 H   0  0  0  0  0  0  0  0  0  0  0  0
    0.7563   -2.3823    1.9324 H   0  0  0  0  0  0  0  0  0  0  0  0
   -2.1129   -1.7857    1.0653 H   0  0  0  0  0  0  0  0  0  0  0  0
   -0.8126   -4.2361    2.3768 H   0  0  0  0  0  0  0  0  0  0  0  0
   -2.5389   -4.0413    2.0053 H   0  0  0  0  0  0  0  0  0  0  0  0
   -1.7754   -3.0071    3.2249 H   0  0  0  0  0  0  0  0  0  0  0  0
   -0.1817   -3.8241   -0.1446 H   0  0  0  0  0  0  0  0  0  0  0  0
   -1.9471   -3.9207   -0.3088 H   0  0  0  0  0  0  0  0  0  0  0  0
   -1.0858   -2.5434   -0.9936 H   0  0  0  0  0  0  0  0  0  0  0  0
    0.8765    1.3927    2.0482 N   0  0  0  0  0  0  0  0  0  0  0  0
    1.5183    2.5185    2.7626 C   0  0  2  0  0  0  0  0  0  0  0  0
    2.3001    3.5071    1.8655 C   0  0  0  0  0  0  0  0  0  0  0  0
    2.0564    4.7047    1.9393 O   0  0  0  0  0  0  0  0  0  0  0  0
    2.3943    2.0169    3.9194 C   0  0  0  0  0  0  0  0  0  0  0  0
   -0.1386    1.3892    2.0195 H   0  0  0  0  0  0  0  0  0  0  0  0
    0.7100    3.1035    3.2133 H   0  0  0  0  0  0  0  0  0  0  0  0
    3.2875    1.5051    3.5495 H   0  0  0  0  0  0  0  0  0  0  0  0
    2.7178    2.8608    4.5366 H   0  0  0  0  0  0  0  0  0  0  0  0
    1.8312    1.3222    4.5497 H   0  0  0  0  0  0  0  0  0  0  0  0
    3.2669    3.0702    0.9830 N   0  0  0  0  0  0  0  0  0  0  0  0
    4.0483    3.9445    0.1209 C   0  0  0  0  0  0  0  0  0  0  0  0
    3.4252    2.0584    0.9572 H   0  0  0  0  0  0  0  0  0  0  0  0
    4.6532    4.6316    0.7217 H   0  0  0  0  0  0  0  0  0  0  0  0
    4.7189    3.3512   -0.5081 H   0  0  0  0  0  0  0  0  0  0  0  0
    3.3902    4.5289   -0.5304 H   0  0  0  0  0  0  0  0  0  0  0  0
  1  2  2  0  0  0  0
  1  3  1  0  0  0  0
  1  7  1  0  0  0  0
  3  4  1  0  0  0  0
  3  5  1  0  0  0  0
  3  6  1  0  0  0  0
  7  8  1  0  0  0  0
  7 12  1  0  0  0  0
  8  9  1  0  0  0  0
  8 11  1  0  0  0  0
  8 13  1  0  0  0  0
  9 10  2  0  0  0  0
  9 17  1  0  0  0  0
 11 14  1  0  0  0  0
 11 15  1  0  0  0  0
 11 16  1  0  0  0  0
 17 18  1  0  0  0  0
 17 25  1  0  0  0  0
 18 19  1  0  0  0  0
 18 21  1  0  0  0  0
 18 26  1  0  0  0  0
 19 20  2  0  0  0  0
 19 36  1  0  0  0  0
 21 22  1  0  0  0  0
 21 27  1  0  0  0  0
 21 28  1  0  0  0  0
 22 23  1  0  0  0  0
 22 24  1  0  0  0  0
 22 29  1  0  0  0  0
 23 30  1  0  0  0  0
 23 31  1  0  0  0  0
 23 32  1  0  0  0  0
 24 33  1  0  0  0  0
 24 34  1  0  0  0  0
 24 35  1  0  0  0  0
 36 37  1  0  0  0  0
 36 41  1  0  0  0  0
 37 38  1  0  0  0  0
 37 40  1  0  0  0  0
 37 42  1  0  0  0  0
 38 39  2  0  0  0  0
 38 46  1  0  0  0  0
 40 43  1  0  0  0  0
 40 44  1  0  0  0  0
 40 45  1  0  0  0  0
 46 47  1  0  0  0  0
 46 48  1  0  0  0  0
 47 49  1  0  0  0  0
 47 50  1  0  0  0  0
 47 51  1  0  0  0  0
M  END
$$$$

  -OEChem-05262216553D

 51 50  0     1  0  0  0  0  0999 V2000
    1.1436   -2.0883   -3.7049 C   0  0  0  0  0  0  0  0  0  0  0  0
    0.5036   -1.1442   -3.2670 O   0  0  0  0  0  0  0  0  0  0  0  0
    0.5340   -2.9718   -4.7772 C   0  0  0  0  0  0  0  0  0  0  0  0
    0.3866   -3.9831   -4.3900 H   0  0  0  0  0  0  0  0  0  0  0  0
   -0.4340   -2.5711   -5.0912 H   0  0  0  0  0  0  0  0  0  0  0  0
    1.1944   -3.0142   -5.6467 H   0  0  0  0  0  0  0  0  0  0  0  0
    2.3978   -2.3921   -3.2078 N   0  0  0  0  0  0  0  0  0  0  0  0
    3.1458   -1.6589   -2.1634 C   0  0  2  0  0  0  0  0  0  0  0  0
    2.5139   -1.7136   -0.7550 C   0  0  0  0  0  0  0  0  0  0  0  0
    3.1265   -2.2507    0.1589 O   0  0  0  0  0  0  0  0  0  0  0  0
    3.4074   -0.2045   -2.5802 C   0  0  0  0  0  0  0  0  0  0  0  0
    2.8347   -3.2261   -3.5903 H   0  0  0  0  0  0  0  0  0  0  0  0
    4.1244   -2.1416   -2.0712 H   0  0  0  0  0  0  0  0  0  0  0  0
    2.4802    0.3746   -2.6137 H   0  0  0  0  0  0  0  0  0  0  0  0
    4.0789    0.2740   -1.8598 H   0  0  0  0  0  0  0  0  0  0  0  0
    3.8771   -0.1691   -3.5676 H   0  0  0  0  0  0  0  0  0  0  0  0
    1.2027   -1.3297   -0.5439 N   0  0  0  0  0  0  0  0  0  0  0  0
    0.6973   -0.6945    0.6894 C   0  0  2  0  0  0  0  0  0  0  0  0
    1.6743    0.2052    1.5055 C   0  0  0  0  0  0  0  0  0  0  0  0
    2.7902    0.5040    1.0978 O   0  0  0  0  0  0  0  0  0  0  0  0
    0.1123   -1.7784    1.6320 C   0  0  0  0  0  0  0  0  0  0  0  0
   -1.1612   -2.5266    1.1540 C   0  0  0  0  0  0  0  0  0  0  0  0
   -1.4666   -3.6401    2.1654 C   0  0  0  0  0  0  0  0  0  0  0  0
   -1.0724   -3.1698   -0.2388 C   0  0  0  0  0  0  0  0  0  0  0  0
    0.7509   -1.0297   -1.4118 H   0  0  0  0  0  0  0  0  0  0  0  0
   -0.1210   -0.0338    0.3889 H   0  0  0  0  0  0  0  0  0  0  0  0
   -0.1252   -1.3221    2.5979 H   0  0  0  0  0  0  0  0  0  0  0  0
    0.9025   -2.5154    1.8148 H   0  0  0  0  0  0  0  0  0  0  0  0
   -1.9967   -1.8187    1.1462 H   0  0  0  0  0  0  0  0  0  0  0  0
   -0.6638   -4.3846    2.1755 H   0  0  0  0  0  0  0  0  0  0  0  0
   -2.4040   -4.1441    1.9102 H   0  0  0  0  0  0  0  0  0  0  0  0
   -1.5677   -3.2252    3.1731 H   0  0  0  0  0  0  0  0  0  0  0  0
   -0.1574   -3.7636   -0.3319 H   0  0  0  0  0  0  0  0  0  0  0  0
   -1.9297   -3.8272   -0.4135 H   0  0  0  0  0  0  0  0  0  0  0  0
   -1.0837   -2.4049   -1.0201 H   0  0  0  0  0  0  0  0  0  0  0  0
    1.1205    1.0380    2.4696 N   0  0  0  0  0  0  0  0  0  0  0  0
    1.8074    2.0678    3.2804 C   0  0  2  0  0  0  0  0  0  0  0  0
    2.2072    3.3515    2.5159 C   0  0  0  0  0  0  0  0  0  0  0  0
    1.8980    4.4434    2.9754 O   0  0  0  0  0  0  0  0  0  0  0  0
    3.0134    1.4783    4.0261 C   0  0  0  0  0  0  0  0  0  0  0  0
    0.1456    0.8596    2.6901 H   0  0  0  0  0  0  0  0  0  0  0  0
    1.0931    2.3892    4.0454 H   0  0  0  0  0  0  0  0  0  0  0  0
    3.8236    1.2261    3.3355 H   0  0  0  0  0  0  0  0  0  0  0  0
    3.3972    2.2051    4.7489 H   0  0  0  0  0  0  0  0  0  0  0  0
    2.7224    0.5728    4.5668 H   0  0  0  0  0  0  0  0  0  0  0  0
    2.9088    3.2954    1.3293 N   0  0  0  0  0  0  0  0  0  0  0  0
    3.3317    4.4623    0.5688 C   0  0  0  0  0  0  0  0  0  0  0  0
    3.1441    2.3571    0.9924 H   0  0  0  0  0  0  0  0  0  0  0  0
    3.9923    5.0933    1.1725 H   0  0  0  0  0  0  0  0  0  0  0  0
    3.8753    4.1500   -0.3281 H   0  0  0  0  0  0  0  0  0  0  0  0
    2.4632    5.0531    0.2599 H   0  0  0  0  0  0  0  0  0  0  0  0
  1  2  2  0  0  0  0
  1  3  1  0  0  0  0
  1  7  1  0  0  0  0
  3  4  1  0  0  0  0
  3  5  1  0  0  0  0
  3  6  1  0  0  0  0
  7  8  1  0  0  0  0
  7 12  1  0  0  0  0
  8  9  1  0  0  0  0
  8 11  1  0  0  0  0
  8 13  1  0  0  0  0
  9 10  2  0  0  0  0
  9 17  1  0  0  0  0
 11 14  1  0  0  0  0
 11 15  1  0  0  0  0
 11 16  1  0  0  0  0
 17 18  1  0  0  0  0
 17 25  1  0  0  0  0
 18 19  1  0  0  0  0
 18 21  1  0  0  0  0
 18 26  1  0  0  0  0
 19 20  2  0  0  0  0
 19 36  1  0  0  0  0
 21 22  1  0  0  0  0
 21 27  1  0  0  0  0
 21 28  1  0  0  0  0
 22 23  1  0  0  0  0
 22 24  1  0  0  0  0
 22 29  1  0  0  0  0
 23 30  1  0  0  0  0
 23 31  1  0  0  0  0
 23 32  1  0  0  0  0
 24 33  1  0  0  0  0
 24 34  1  0  0  0  0
 24 35  1  0  0  0  0
 36 37  1  0  0  0  0
 36 41  1  0  0  0  0
 37 38  1  0  0  0  0
 37 40  1  0  0  0  0
 37 42  1  0  0  0  0
 38 39  2  0  0  0  0
 38 46  1  0  0  0  0
 40 43  1  0  0  0  0
 40 44  1  0  0  0  0
 40 45  1  0  0  0  0
 46 47  1  0  0  0  0
 46 48  1  0  0  0  0
 47 49  1  0  0  0  0
 47 50  1  0  0  0  0
 47 51  1  0  0  0  0
M  END
$$$$

  -OEChem-05262216553D

 51 50  0     1  0  0  0  0  0999 V2000
    0.9776   -2.1521   -3.6276 C   0  0  0  0  0  0  0  0  0  0  0  0
    0.2829   -1.2340   -3.2193 O   0  0  0  0  0  0  0  0  0  0  0  0
    0.3674   -3.2038   -4.5350 C   0  0  0  0  0  0  0  0  0  0  0  0
    0.4444   -4.1896   -4.0695 H   0  0  0  0  0  0  0  0  0  0  0  0
   -0.6886   -2.9819   -4.7139 H   0  0  0  0  0  0  0  0  0  0  0  0
    0.8902   -3.2188   -5.4945 H   0  0  0  0  0  0  0  0  0  0  0  0
    2.2993   -2.2782   -3.2405 N   0  0  0  0  0  0  0  0  0  0  0  0
    3.0588   -1.3718   -2.3525 C   0  0  2  0  0  0  0  0  0  0  0  0
    2.5719   -1.3454   -0.8865 C   0  0  0  0  0  0  0  0  0  0  0  0
    3.3449   -1.6660    0.0080 O   0  0  0  0  0  0  0  0  0  0  0  0
    3.1172    0.0505   -2.9270 C   0  0  0  0  0  0  0  0  0  0  0  0
    2.7867   -3.0972   -3.5926 H   0  0  0  0  0  0  0  0  0  0  0  0
    4.0887   -1.7425   -2.3206 H   0  0  0  0  0  0  0  0  0  0  0  0
    2.1345    0.5305   -2.9051 H   0  0  0  0  0  0  0  0  0  0  0  0
    3.8054    0.6635   -2.3357 H   0  0  0  0  0  0  0  0  0  0  0  0
    3.4732    0.0287   -3.9613 H   0  0  0  0  0  0  0  0  0  0  0  0
    1.2546   -1.0472   -0.5847 N   0  0  0  0  0  0  0  0  0  0  0  0
    0.7797   -0.5695    0.7268 C   0  0  2  0  0  0  0  0  0  0  0  0
    1.6526    0.5540    1.3585 C   0  0  0  0  0  0  0  0  0  0  0  0
    2.4299    1.2080    0.6705 O   0  0  0  0  0  0  0  0  0  0  0  0
    0.5901   -1.7534    1.7148 C   0  0  0  0  0  0  0  0  0  0  0  0
   -0.5269   -2.7771    1.3785 C   0  0  0  0  0  0  0  0  0  0  0  0
   -0.4422   -3.9283    2.3898 C   0  0  0  0  0  0  0  0  0  0  0  0
   -0.4646   -3.3856   -0.0308 C   0  0  0  0  0  0  0  0  0  0  0  0
    0.6892   -0.8173   -1.4066 H   0  0  0  0  0  0  0  0  0  0  0  0
   -0.2035   -0.1171    0.5683 H   0  0  0  0  0  0  0  0  0  0  0  0
    0.3682   -1.3575    2.7095 H   0  0  0  0  0  0  0  0  0  0  0  0
    1.5434   -2.2869    1.7915 H   0  0  0  0  0  0  0  0  0  0  0  0
   -1.4968   -2.2807    1.4890 H   0  0  0  0  0  0  0  0  0  0  0  0
    0.5022   -4.4710    2.2791 H   0  0  0  0  0  0  0  0  0  0  0  0
   -1.2666   -4.6322    2.2397 H   0  0  0  0  0  0  0  0  0  0  0  0
   -0.5048   -3.5453    3.4130 H   0  0  0  0  0  0  0  0  0  0  0  0
    0.5441   -3.7503   -0.2495 H   0  0  0  0  0  0  0  0  0  0  0  0
   -1.1615   -4.2251   -0.1170 H   0  0  0  0  0  0  0  0  0  0  0  0
   -0.7495   -2.6464   -0.7846 H   0  0  0  0  0  0  0  0  0  0  0  0
    1.2965    1.0741    2.5956 N   0  0  0  0  0  0  0  0  0  0  0  0
    1.9508    2.1792    3.3298 C   0  0  2  0  0  0  0  0  0  0  0  0
    1.7025    3.5921    2.7525 C   0  0  0  0  0  0  0  0  0  0  0  0
    1.3278    4.4873    3.4992 O   0  0  0  0  0  0  0  0  0  0  0  0
    3.4533    1.9167    3.5062 C   0  0  0  0  0  0  0  0  0  0  0  0
    0.5723    0.5629    3.0899 H   0  0  0  0  0  0  0  0  0  0  0  0
    1.5144    2.1880    4.3338 H   0  0  0  0  0  0  0  0  0  0  0  0
    3.9863    2.0013    2.5545 H   0  0  0  0  0  0  0  0  0  0  0  0
    3.8812    2.6460    4.2012 H   0  0  0  0  0  0  0  0  0  0  0  0
    3.6201    0.9135    3.9102 H   0  0  0  0  0  0  0  0  0  0  0  0
    1.8929    3.8675    1.4140 N   0  0  0  0  0  0  0  0  0  0  0  0
    1.6850    5.1743    0.8076 C   0  0  0  0  0  0  0  0  0  0  0  0
    2.2136    3.0849    0.8363 H   0  0  0  0  0  0  0  0  0  0  0  0
    2.3594    5.9136    1.2520 H   0  0  0  0  0  0  0  0  0  0  0  0
    1.8819    5.1267   -0.2678 H   0  0  0  0  0  0  0  0  0  0  0  0
    0.6514    5.5038    0.9555 H   0  0  0  0  0  0  0  0  0  0  0  0
  1  2  2  0  0  0  0
  1  3  1  0  0  0  0
  1  7  1  0  0  0  0
  3  4  1  0  0  0  0
  3  5  1  0  0  0  0
  3  6  1  0  0  0  0
  7  8  1  0  0  0  0
  7 12  1  0  0  0  0
  8  9  1  0  0  0  0
  8 11  1  0  0  0  0
  8 13  1  0  0  0  0
  9 10  2  0  0  0  0
  9 17  1  0  0  0  0
 11 14  1  0  0  0  0
 11 15  1  0  0  0  0
 11 16  1  0  0  0  0
 17 18  1  0  0  0  0
 17 25  1  0  0  0  0
 18 19  1  0  0  0  0
 18 21  1  0  0  0  0
 18 26  1  0  0  0  0
 19 20  2  0  0  0  0
 19 36  1  0  0  0  0
 21 22  1  0  0  0  0
 21 27  1  0  0  0  0
 21 28  1  0  0  0  0
 22 23  1  0  0  0  0
 22 24  1  0  0  0  0
 22 29  1  0  0  0  0
 23 30  1  0  0  0  0
 23 31  1  0  0  0  0
 23 32  1  0  0  0  0
 24 33  1  0  0  0  0
 24 34  1  0  0  0  0
 24 35  1  0  0  0  0
 36 37  1  0  0  0  0
 36 41  1  0  0  0  0
 37 38  1  0  0  0  0
 37 40  1  0  0  0  0
 37 42  1  0  0  0  0
 38 39  2  0  0  0  0
 38 46  1  0  0  0  0
 40 43  1  0  0  0  0
 40 44  1  0  0  0  0
 40 45  1  0  0  0  0
 46 47  1  0  0  0  0
 46 48  1  0  0  0  0
 47 49  1  0  0  0  0
 47 50  1  0  0  0  0
 47 51  1  0  0  0  0
M  END
$$$$

  -OEChem-05262216553D

 51 50  0     1  0  0  0  0  0999 V2000
    0.9243   -2.0838   -3.6655 C   0  0  0  0  0  0  0  0  0  0  0  0
    0.2423   -1.1772   -3.2131 O   0  0  0  0  0  0  0  0  0  0  0  0
    0.3151   -3.0513   -4.6626 C   0  0  0  0  0  0  0  0  0  0  0  0
    0.3366   -4.0672   -4.2602 H   0  0  0  0  0  0  0  0  0  0  0  0
   -0.7235   -2.7773   -4.8696 H   0  0  0  0  0  0  0  0  0  0  0  0
    0.8779   -3.0252   -5.5990 H   0  0  0  0  0  0  0  0  0  0  0  0
    2.2333   -2.2674   -3.2594 N   0  0  0  0  0  0  0  0  0  0  0  0
    3.0074   -1.4148   -2.3318 C   0  0  2  0  0  0  0  0  0  0  0  0
    2.5127   -1.4243   -0.8684 C   0  0  0  0  0  0  0  0  0  0  0  0
    3.2954   -1.7145    0.0284 O   0  0  0  0  0  0  0  0  0  0  0  0
    3.1052    0.0261   -2.8529 C   0  0  0  0  0  0  0  0  0  0  0  0
    2.7101   -3.0717   -3.6570 H   0  0  0  0  0  0  0  0  0  0  0  0
    4.0272   -1.8127   -2.3068 H   0  0  0  0  0  0  0  0  0  0  0  0
    2.1341    0.5288   -2.8193 H   0  0  0  0  0  0  0  0  0  0  0  0
    3.8026    0.6003   -2.2341 H   0  0  0  0  0  0  0  0  0  0  0  0
    3.4683    0.0352   -3.8847 H   0  0  0  0  0  0  0  0  0  0  0  0
    1.1948   -1.1332   -0.5639 N   0  0  0  0  0  0  0  0  0  0  0  0
    0.7368   -0.6463    0.7499 C   0  0  2  0  0  0  0  0  0  0  0  0
    1.6384    0.4844    1.3277 C   0  0  0  0  0  0  0  0  0  0  0  0
    2.2340    1.2389    0.5646 O   0  0  0  0  0  0  0  0  0  0  0  0
    0.5533   -1.8227    1.7499 C   0  0  0  0  0  0  0  0  0  0  0  0
   -0.5716   -2.8435    1.4327 C   0  0  0  0  0  0  0  0  0  0  0  0
   -0.4819   -3.9882    2.4514 C   0  0  0  0  0  0  0  0  0  0  0  0
   -0.5256   -3.4614    0.0268 C   0  0  0  0  0  0  0  0  0  0  0  0
    0.6357   -0.8766   -1.3825 H   0  0  0  0  0  0  0  0  0  0  0  0
   -0.2459   -0.1881    0.6067 H   0  0  0  0  0  0  0  0  0  0  0  0
    0.3361   -1.4204    2.7426 H   0  0  0  0  0  0  0  0  0  0  0  0
    1.5055   -2.3586    1.8230 H   0  0  0  0  0  0  0  0  0  0  0  0
   -1.5381   -2.3420    1.5501 H   0  0  0  0  0  0  0  0  0  0  0  0
    0.4648   -4.5278    2.3452 H   0  0  0  0  0  0  0  0  0  0  0  0
   -1.3035   -4.6967    2.3061 H   0  0  0  0  0  0  0  0  0  0  0  0
   -0.5470   -3.5983    3.4720 H   0  0  0  0  0  0  0  0  0  0  0  0
    0.4792   -3.8328   -0.1987 H   0  0  0  0  0  0  0  0  0  0  0  0
   -1.2277   -4.2976   -0.0482 H   0  0  0  0  0  0  0  0  0  0  0  0
   -0.8134   -2.7253   -0.7290 H   0  0  0  0  0  0  0  0  0  0  0  0
    1.5531    0.8434    2.6660 N   0  0  0  0  0  0  0  0  0  0  0  0
    2.3297    1.8894    3.3659 C   0  0  2  0  0  0  0  0  0  0  0  0
    1.9432    3.3468    3.0213 C   0  0  0  0  0  0  0  0  0  0  0  0
    1.7640    4.1497    3.9285 O   0  0  0  0  0  0  0  0  0  0  0  0
    3.8383    1.6691    3.1853 C   0  0  0  0  0  0  0  0  0  0  0  0
    0.9974    0.2235    3.2458 H   0  0  0  0  0  0  0  0  0  0  0  0
    2.1197    1.7719    4.4340 H   0  0  0  0  0  0  0  0  0  0  0  0
    4.1499    1.8789    2.1576 H   0  0  0  0  0  0  0  0  0  0  0  0
    4.3956    2.3342    3.8524 H   0  0  0  0  0  0  0  0  0  0  0  0
    4.1040    0.6349    3.4248 H   0  0  0  0  0  0  0  0  0  0  0  0
    1.8168    3.7697    1.7138 N   0  0  0  0  0  0  0  0  0  0  0  0
    1.5361    5.1427    1.3195 C   0  0  0  0  0  0  0  0  0  0  0  0
    2.0145    3.0668    0.9955 H   0  0  0  0  0  0  0  0  0  0  0  0
    2.3223    5.8131    1.6826 H   0  0  0  0  0  0  0  0  0  0  0  0
    1.4922    5.2188    0.2288 H   0  0  0  0  0  0  0  0  0  0  0  0
    0.5748    5.4703    1.7289 H   0  0  0  0  0  0  0  0  0  0  0  0
  1  2  2  0  0  0  0
  1  3  1  0  0  0  0
  1  7  1  0  0  0  0
  3  4  1  0  0  0  0
  3  5  1  0  0  0  0
  3  6  1  0  0  0  0
  7  8  1  0  0  0  0
  7 12  1  0  0  0  0
  8  9  1  0  0  0  0
  8 11  1  0  0  0  0
  8 13  1  0  0  0  0
  9 10  2  0  0  0  0
  9 17  1  0  0  0  0
 11 14  1  0  0  0  0
 11 15  1  0  0  0  0
 11 16  1  0  0  0  0
 17 18  1  0  0  0  0
 17 25  1  0  0  0  0
 18 19  1  0  0  0  0
 18 21  1  0  0  0  0
 18 26  1  0  0  0  0
 19 20  2  0  0  0  0
 19 36  1  0  0  0  0
 21 22  1  0  0  0  0
 21 27  1  0  0  0  0
 21 28  1  0  0  0  0
 22 23  1  0  0  0  0
 22 24  1  0  0  0  0
 22 29  1  0  0  0  0
 23 30  1  0  0  0  0
 23 31  1  0  0  0  0
 23 32  1  0  0  0  0
 24 33  1  0  0  0  0
 24 34  1  0  0  0  0
 24 35  1  0  0  0  0
 36 37  1  0  0  0  0
 36 41  1  0  0  0  0
 37 38  1  0  0  0  0
 37 40  1  0  0  0  0
 37 42  1  0  0  0  0
 38 39  2  0  0  0  0
 38 46  1  0  0  0  0
 40 43  1  0  0  0  0
 40 44  1  0  0  0  0
 40 45  1  0  0  0  0
 46 47  1  0  0  0  0
 46 48  1  0  0  0  0
 47 49  1  0  0  0  0
 47 50  1  0  0  0  0
 47 51  1  0  0  0  0
M  END
$$$$

  -OEChem-05262216553D

 51 50  0     1  0  0  0  0  0999 V2000
    0.9123   -2.1400   -3.6478 C   0  0  0  0  0  0  0  0  0  0  0  0
    0.2620   -1.1911   -3.2381 O   0  0  0  0  0  0  0  0  0  0  0  0
    0.2638   -3.1366   -4.5897 C   0  0  0  0  0  0  0  0  0  0  0  0
    0.1677   -4.1075   -4.0972 H   0  0  0  0  0  0  0  0  0  0  0  0
   -0.7320   -2.7892   -4.8802 H   0  0  0  0  0  0  0  0  0  0  0  0
    0.8715   -3.2505   -5.4908 H   0  0  0  0  0  0  0  0  0  0  0  0
    2.2149   -2.3494   -3.2332 N   0  0  0  0  0  0  0  0  0  0  0  0
    3.0180   -1.4845   -2.3419 C   0  0  2  0  0  0  0  0  0  0  0  0
    2.5246   -1.4183   -0.8796 C   0  0  0  0  0  0  0  0  0  0  0  0
    3.3065   -1.6681    0.0304 O   0  0  0  0  0  0  0  0  0  0  0  0
    3.1645   -0.0712   -2.9227 C   0  0  0  0  0  0  0  0  0  0  0  0
    2.6640   -3.1855   -3.5958 H   0  0  0  0  0  0  0  0  0  0  0  0
    4.0236   -1.9155   -2.2990 H   0  0  0  0  0  0  0  0  0  0  0  0
    2.2106    0.4644   -2.9143 H   0  0  0  0  0  0  0  0  0  0  0  0
    3.8798    0.5052   -2.3268 H   0  0  0  0  0  0  0  0  0  0  0  0
    3.5298   -0.1186   -3.9527 H   0  0  0  0  0  0  0  0  0  0  0  0
    1.2055   -1.1211   -0.5884 N   0  0  0  0  0  0  0  0  0  0  0  0
    0.7292   -0.6497    0.7232 C   0  0  2  0  0  0  0  0  0  0  0  0
    1.6460    0.4637    1.3073 C   0  0  0  0  0  0  0  0  0  0  0  0
    2.0693    1.3359    0.5547 O   0  0  0  0  0  0  0  0  0  0  0  0
    0.5167   -1.8371    1.7030 C   0  0  0  0  0  0  0  0  0  0  0  0
   -0.6118   -2.8419    1.3500 C   0  0  0  0  0  0  0  0  0  0  0  0
   -0.5516   -4.0013    2.3542 C   0  0  0  0  0  0  0  0  0  0  0  0
   -0.5424   -3.4411   -0.0634 C   0  0  0  0  0  0  0  0  0  0  0  0
    0.6461   -0.8795   -1.4115 H   0  0  0  0  0  0  0  0  0  0  0  0
   -0.2454   -0.1762    0.5741 H   0  0  0  0  0  0  0  0  0  0  0  0
    0.2757   -1.4408    2.6932 H   0  0  0  0  0  0  0  0  0  0  0  0
    1.4625   -2.3824    1.7913 H   0  0  0  0  0  0  0  0  0  0  0  0
   -1.5758   -2.3328    1.4547 H   0  0  0  0  0  0  0  0  0  0  0  0
    0.3889   -4.5529    2.2532 H   0  0  0  0  0  0  0  0  0  0  0  0
   -1.3808   -4.6964    2.1890 H   0  0  0  0  0  0  0  0  0  0  0  0
   -0.6245   -3.6241    3.3791 H   0  0  0  0  0  0  0  0  0  0  0  0
    0.4651   -3.8125   -0.2763 H   0  0  0  0  0  0  0  0  0  0  0  0
   -1.2454   -4.2739   -0.1628 H   0  0  0  0  0  0  0  0  0  0  0  0
   -0.8143   -2.6935   -0.8137 H   0  0  0  0  0  0  0  0  0  0  0  0
    1.8074    0.6310    2.6756 N   0  0  0  0  0  0  0  0  0  0  0  0
    2.6756    1.6151    3.3574 C   0  0  2  0  0  0  0  0  0  0  0  0
    2.1883    3.0818    3.2964 C   0  0  0  0  0  0  0  0  0  0  0  0
    2.1426    3.7424    4.3266 O   0  0  0  0  0  0  0  0  0  0  0  0
    4.1274    1.4988    2.8708 C   0  0  0  0  0  0  0  0  0  0  0  0
    1.4445   -0.1263    3.2453 H   0  0  0  0  0  0  0  0  0  0  0  0
    2.6763    1.3476    4.4190 H   0  0  0  0  0  0  0  0  0  0  0  0
    4.2331    1.8637    1.8451 H   0  0  0  0  0  0  0  0  0  0  0  0
    4.7862    2.0922    3.5121 H   0  0  0  0  0  0  0  0  0  0  0  0
    4.4581    0.4562    2.9039 H   0  0  0  0  0  0  0  0  0  0  0  0
    1.8122    3.6685    2.1053 N   0  0  0  0  0  0  0  0  0  0  0  0
    1.3785    5.0517    1.9716 C   0  0  0  0  0  0  0  0  0  0  0  0
    1.8880    3.0784    1.2718 H   0  0  0  0  0  0  0  0  0  0  0  0
    1.1224    5.2665    0.9297 H   0  0  0  0  0  0  0  0  0  0  0  0
    0.4947    5.2376    2.5904 H   0  0  0  0  0  0  0  0  0  0  0  0
    2.1767    5.7346    2.2807 H   0  0  0  0  0  0  0  0  0  0  0  0
  1  2  2  0  0  0  0
  1  3  1  0  0  0  0
  1  7  1  0  0  0  0
  3  4  1  0  0  0  0
  3  5  1  0  0  0  0
  3  6  1  0  0  0  0
  7  8  1  0  0  0  0
  7 12  1  0  0  0  0
  8  9  1  0  0  0  0
  8 11  1  0  0  0  0
  8 13  1  0  0  0  0
  9 10  2  0  0  0  0
  9 17  1  0  0  0  0
 11 14  1  0  0  0  0
 11 15  1  0  0  0  0
 11 16  1  0  0  0  0
 17 18  1  0  0  0  0
 17 25  1  0  0  0  0
 18 19  1  0  0  0  0
 18 21  1  0  0  0  0
 18 26  1  0  0  0  0
 19 20  2  0  0  0  0
 19 36  1  0  0  0  0
 21 22  1  0  0  0  0
 21 27  1  0  0  0  0
 21 28  1  0  0  0  0
 22 23  1  0  0  0  0
 22 24  1  0  0  0  0
 22 29  1  0  0  0  0
 23 30  1  0  0  0  0
 23 31  1  0  0  0  0
 23 32  1  0  0  0  0
 24 33  1  0  0  0  0
 24 34  1  0  0  0  0
 24 35  1  0  0  0  0
 36 37  1  0  0  0  0
 36 41  1  0  0  0  0
 37 38  1  0  0  0  0
 37 40  1  0  0  0  0
 37 42  1  0  0  0  0
 38 39  2  0  0  0  0
 38 46  1  0  0  0  0
 40 43  1  0  0  0  0
 40 44  1  0  0  0  0
 40 45  1  0  0  0  0
 46 47  1  0  0  0  0
 46 48  1  0  0  0  0
 47 49  1  0  0  0  0
 47 50  1  0  0  0  0
 47 51  1  0  0  0  0
M  END
$$$$

  -OEChem-05262216553D

 51 50  0     1  0  0  0  0  0999 V2000
    0.7887   -2.2169   -3.6532 C   0  0  0  0  0  0  0  0  0  0  0  0
    0.1290   -1.2780   -3.2359 O   0  0  0  0  0  0  0  0  0  0  0  0
    0.1268   -3.2638   -4.5290 C   0  0  0  0  0  0  0  0  0  0  0  0
    0.2316   -4.2521   -4.0746 H   0  0  0  0  0  0  0  0  0  0  0  0
   -0.9382   -3.0420   -4.6430 H   0  0  0  0  0  0  0  0  0  0  0  0
    0.5918   -3.2724   -5.5180 H   0  0  0  0  0  0  0  0  0  0  0  0
    2.1176   -2.3698   -3.3018 N   0  0  0  0  0  0  0  0  0  0  0  0
    2.9305   -1.4560   -2.4702 C   0  0  2  0  0  0  0  0  0  0  0  0
    2.5041   -1.3687   -0.9874 C   0  0  0  0  0  0  0  0  0  0  0  0
    3.3337   -1.5801   -0.1107 O   0  0  0  0  0  0  0  0  0  0  0  0
    3.0003   -0.0540   -3.0912 C   0  0  0  0  0  0  0  0  0  0  0  0
    2.5778   -3.1995   -3.6659 H   0  0  0  0  0  0  0  0  0  0  0  0
    3.9511   -1.8527   -2.4665 H   0  0  0  0  0  0  0  0  0  0  0  0
    2.0326    0.4536   -3.0373 H   0  0  0  0  0  0  0  0  0  0  0  0
    3.7322    0.5567   -2.5527 H   0  0  0  0  0  0  0  0  0  0  0  0
    3.3054   -0.1153   -4.1401 H   0  0  0  0  0  0  0  0  0  0  0  0
    1.1945   -1.0941   -0.6386 N   0  0  0  0  0  0  0  0  0  0  0  0
    0.7564   -0.6632    0.6993 C   0  0  2  0  0  0  0  0  0  0  0  0
    1.6808    0.4438    1.2776 C   0  0  0  0  0  0  0  0  0  0  0  0
    1.8836    1.4459    0.6000 O   0  0  0  0  0  0  0  0  0  0  0  0
    0.5828   -1.8708    1.6592 C   0  0  0  0  0  0  0  0  0  0  0  0
   -0.5490   -2.8761    1.3218 C   0  0  0  0  0  0  0  0  0  0  0  0
   -0.4486   -4.0547    2.2992 C   0  0  0  0  0  0  0  0  0  0  0  0
   -0.5238   -3.4437   -0.1056 C   0  0  0  0  0  0  0  0  0  0  0  0
    0.5832   -0.8863   -1.4336 H   0  0  0  0  0  0  0  0  0  0  0  0
   -0.2263   -0.1938    0.5930 H   0  0  0  0  0  0  0  0  0  0  0  0
    0.3716   -1.4911    2.6635 H   0  0  0  0  0  0  0  0  0  0  0  0
    1.5344   -2.4112    1.7043 H   0  0  0  0  0  0  0  0  0  0  0  0
   -1.5124   -2.3765    1.4699 H   0  0  0  0  0  0  0  0  0  0  0  0
    0.4923   -4.5964    2.1575 H   0  0  0  0  0  0  0  0  0  0  0  0
   -1.2779   -4.7524    2.1454 H   0  0  0  0  0  0  0  0  0  0  0  0
   -0.4925   -3.6984    3.3331 H   0  0  0  0  0  0  0  0  0  0  0  0
    0.4776   -3.8047   -0.3604 H   0  0  0  0  0  0  0  0  0  0  0  0
   -1.2262   -4.2777   -0.1995 H   0  0  0  0  0  0  0  0  0  0  0  0
   -0.8249   -2.6813   -0.8293 H   0  0  0  0  0  0  0  0  0  0  0  0
    2.1377    0.4073    2.5873 N   0  0  0  0  0  0  0  0  0  0  0  0
    3.0823    1.3481    3.2261 C   0  0  2  0  0  0  0  0  0  0  0  0
    2.5185    2.7583    3.5173 C   0  0  0  0  0  0  0  0  0  0  0  0
    2.7040    3.2635    4.6173 O   0  0  0  0  0  0  0  0  0  0  0  0
    4.3919    1.4359    2.4297 C   0  0  0  0  0  0  0  0  0  0  0  0
    1.9904   -0.4788    3.0602 H   0  0  0  0  0  0  0  0  0  0  0  0
    3.3343    0.9231    4.2029 H   0  0  0  0  0  0  0  0  0  0  0  0
    4.2445    1.9569    1.4793 H   0  0  0  0  0  0  0  0  0  0  0  0
    5.1441    1.9843    3.0052 H   0  0  0  0  0  0  0  0  0  0  0  0
    4.7779    0.4334    2.2199 H   0  0  0  0  0  0  0  0  0  0  0  0
    1.8212    3.4694    2.5619 N   0  0  0  0  0  0  0  0  0  0  0  0
    1.3178    4.8219    2.7533 C   0  0  0  0  0  0  0  0  0  0  0  0
    1.7375    3.0230    1.6441 H   0  0  0  0  0  0  0  0  0  0  0  0
    0.7701    5.1497    1.8647 H   0  0  0  0  0  0  0  0  0  0  0  0
    0.6386    4.8595    3.6112 H   0  0  0  0  0  0  0  0  0  0  0  0
    2.1460    5.5163    2.9272 H   0  0  0  0  0  0  0  0  0  0  0  0
  1  2  2  0  0  0  0
  1  3  1  0  0  0  0
  1  7  1  0  0  0  0
  3  4  1  0  0  0  0
  3  5  1  0  0  0  0
  3  6  1  0  0  0  0
  7  8  1  0  0  0  0
  7 12  1  0  0  0  0
  8  9  1  0  0  0  0
  8 11  1  0  0  0  0
  8 13  1  0  0  0  0
  9 10  2  0  0  0  0
  9 17  1  0  0  0  0
 11 14  1  0  0  0  0
 11 15  1  0  0  0  0
 11 16  1  0  0  0  0
 17 18  1  0  0  0  0
 17 25  1  0  0  0  0
 18 19  1  0  0  0  0
 18 21  1  0  0  0  0
 18 26  1  0  0  0  0
 19 20  2  0  0  0  0
 19 36  1  0  0  0  0
 21 22  1  0  0  0  0
 21 27  1  0  0  0  0
 21 28  1  0  0  0  0
 22 23  1  0  0  0  0
 22 24  1  0  0  0  0
 22 29  1  0  0  0  0
 23 30  1  0  0  0  0
 23 31  1  0  0  0  0
 23 32  1  0  0  0  0
 24 33  1  0  0  0  0
 24 34  1  0  0  0  0
 24 35  1  0  0  0  0
 36 37  1  0  0  0  0
 36 41  1  0  0  0  0
 37 38  1  0  0  0  0
 37 40  1  0  0  0  0
 37 42  1  0  0  0  0
 38 39  2  0  0  0  0
 38 46  1  0  0  0  0
 40 43  1  0  0  0  0
 40 44  1  0  0  0  0
 40 45  1  0  0  0  0
 46 47  1  0  0  0  0
 46 48  1  0  0  0  0
 47 49  1  0  0  0  0
 47 50  1  0  0  0  0
 47 51  1  0  0  0  0
M  END
$$$$

  -OEChem-05262216553D

 51 50  0     1  0  0  0  0  0999 V2000
    0.6226   -2.2668   -3.6537 C   0  0  0  0  0  0  0  0  0  0  0  0
   -0.0268   -1.3265   -3.2236 O   0  0  0  0  0  0  0  0  0  0  0  0
   -0.0672   -3.3378   -4.4777 C   0  0  0  0  0  0  0  0  0  0  0  0
   -0.0630   -4.2866   -3.9354 H   0  0  0  0  0  0  0  0  0  0  0  0
   -1.1036   -3.0512   -4.6777 H   0  0  0  0  0  0  0  0  0  0  0  0
    0.4500   -3.4682   -5.4314 H   0  0  0  0  0  0  0  0  0  0  0  0
    1.9676   -2.3992   -3.3603 N   0  0  0  0  0  0  0  0  0  0  0  0
    2.8110   -1.4551   -2.5959 C   0  0  2  0  0  0  0  0  0  0  0  0
    2.4606   -1.3345   -1.0956 C   0  0  0  0  0  0  0  0  0  0  0  0
    3.3378   -1.5104   -0.2583 O   0  0  0  0  0  0  0  0  0  0  0  0
    2.8328   -0.0700   -3.2573 C   0  0  0  0  0  0  0  0  0  0  0  0
    2.4197   -3.2305   -3.7306 H   0  0  0  0  0  0  0  0  0  0  0  0
    3.8349   -1.8408   -2.6351 H   0  0  0  0  0  0  0  0  0  0  0  0
    1.8634    0.4297   -3.1690 H   0  0  0  0  0  0  0  0  0  0  0  0
    3.5843    0.5629   -2.7743 H   0  0  0  0  0  0  0  0  0  0  0  0
    3.0844   -0.1582   -4.3184 H   0  0  0  0  0  0  0  0  0  0  0  0
    1.1658   -1.0774   -0.6847 N   0  0  0  0  0  0  0  0  0  0  0  0
    0.7749   -0.6738    0.6755 C   0  0  2  0  0  0  0  0  0  0  0  0
    1.7069    0.4312    1.2398 C   0  0  0  0  0  0  0  0  0  0  0  0
    1.6974    1.5328    0.7019 O   0  0  0  0  0  0  0  0  0  0  0  0
    0.6545   -1.8960    1.6247 C   0  0  0  0  0  0  0  0  0  0  0  0
   -0.4762   -2.9134    1.3208 C   0  0  0  0  0  0  0  0  0  0  0  0
   -0.3213   -4.1027    2.2783 C   0  0  0  0  0  0  0  0  0  0  0  0
   -0.4984   -3.4629   -0.1137 C   0  0  0  0  0  0  0  0  0  0  0  0
    0.5042   -0.9064   -1.4477 H   0  0  0  0  0  0  0  0  0  0  0  0
   -0.2166   -0.2151    0.6153 H   0  0  0  0  0  0  0  0  0  0  0  0
    0.4881   -1.5284    2.6430 H   0  0  0  0  0  0  0  0  0  0  0  0
    1.6122   -2.4275    1.6188 H   0  0  0  0  0  0  0  0  0  0  0  0
   -1.4397   -2.4290    1.5129 H   0  0  0  0  0  0  0  0  0  0  0  0
    0.6176   -4.6332    2.0891 H   0  0  0  0  0  0  0  0  0  0  0  0
   -1.1495   -4.8070    2.1526 H   0  0  0  0  0  0  0  0  0  0  0  0
   -0.3231   -3.7593    3.3174 H   0  0  0  0  0  0  0  0  0  0  0  0
    0.4977   -3.8043   -0.4127 H   0  0  0  0  0  0  0  0  0  0  0  0
   -1.1904   -4.3074   -0.1909 H   0  0  0  0  0  0  0  0  0  0  0  0
   -0.8401   -2.6963   -0.8144 H   0  0  0  0  0  0  0  0  0  0  0  0
    2.4495    0.2358    2.3946 N   0  0  0  0  0  0  0  0  0  0  0  0
    3.4598    1.1501    2.9664 C   0  0  2  0  0  0  0  0  0  0  0  0
    2.9006    2.4466    3.5972 C   0  0  0  0  0  0  0  0  0  0  0  0
    3.2789    2.7847    4.7119 O   0  0  0  0  0  0  0  0  0  0  0  0
    4.5542    1.4690    1.9384 C   0  0  0  0  0  0  0  0  0  0  0  0
    2.4999   -0.7343    2.6915 H   0  0  0  0  0  0  0  0  0  0  0  0
    3.9427    0.6069    3.7849 H   0  0  0  0  0  0  0  0  0  0  0  0
    4.1744    2.1168    1.1431 H   0  0  0  0  0  0  0  0  0  0  0  0
    5.3885    1.9820    2.4266 H   0  0  0  0  0  0  0  0  0  0  0  0
    4.9311    0.5466    1.4855 H   0  0  0  0  0  0  0  0  0  0  0  0
    1.9955    3.2434    2.9259 N   0  0  0  0  0  0  0  0  0  0  0  0
    1.4644    4.4961    3.4440 C   0  0  0  0  0  0  0  0  0  0  0  0
    1.7371    2.9337    1.9847 H   0  0  0  0  0  0  0  0  0  0  0  0
    2.2711    5.2223    3.5881 H   0  0  0  0  0  0  0  0  0  0  0  0
    0.7394    4.9173    2.7409 H   0  0  0  0  0  0  0  0  0  0  0  0
    0.9610    4.3313    4.4024 H   0  0  0  0  0  0  0  0  0  0  0  0
  1  2  2  0  0  0  0
  1  3  1  0  0  0  0
  1  7  1  0  0  0  0
  3  4  1  0  0  0  0
  3  5  1  0  0  0  0
  3  6  1  0  0  0  0
  7  8  1  0  0  0  0
  7 12  1  0  0  0  0
  8  9  1  0  0  0  0
  8 11  1  0  0  0  0
  8 13  1  0  0  0  0
  9 10  2  0  0  0  0
  9 17  1  0  0  0  0
 11 14  1  0  0  0  0
 11 15  1  0  0  0  0
 11 16  1  0  0  0  0
 17 18  1  0  0  0  0
 17 25  1  0  0  0  0
 18 19  1  0  0  0  0
 18 21  1  0  0  0  0
 18 26  1  0  0  0  0
 19 20  2  0  0  0  0
 19 36  1  0  0  0  0
 21 22  1  0  0  0  0
 21 27  1  0  0  0  0
 21 28  1  0  0  0  0
 22 23  1  0  0  0  0
 22 24  1  0  0  0  0
 22 29  1  0  0  0  0
 23 30  1  0  0  0  0
 23 31  1  0  0  0  0
 23 32  1  0  0  0  0
 24 33  1  0  0  0  0
 24 34  1  0  0  0  0
 24 35  1  0  0  0  0
 36 37  1  0  0  0  0
 36 41  1  0  0  0  0
 37 38  1  0  0  0  0
 37 40  1  0  0  0  0
 37 42  1  0  0  0  0
 38 39  2  0  0  0  0
 38 46  1  0  0  0  0
 40 43  1  0  0  0  0
 40 44  1  0  0  0  0
 40 45  1  0  0  0  0
 46 47  1  0  0  0  0
 46 48  1  0  0  0  0
 47 49  1  0  0  0  0
 47 50  1  0  0  0  0
 47 51  1  0  0  0  0
M  END
$$$$

  -OEChem-05262216553D

 51 50  0     1  0  0  0  0  0999 V2000
    0.4888   -2.3457   -3.6662 C   0  0  0  0  0  0  0  0  0  0  0  0
   -0.1498   -1.4060   -3.2192 O   0  0  0  0  0  0  0  0  0  0  0  0
   -0.2276   -3.4362   -4.4395 C   0  0  0  0  0  0  0  0  0  0  0  0
   -0.1506   -4.3856   -3.9039 H   0  0  0  0  0  0  0  0  0  0  0  0
   -1.2855   -3.1836   -4.5567 H   0  0  0  0  0  0  0  0  0  0  0  0
    0.2178   -3.5467   -5.4313 H   0  0  0  0  0  0  0  0  0  0  0  0
    1.8477   -2.4585   -3.4357 N   0  0  0  0  0  0  0  0  0  0  0  0
    2.7152   -1.4897   -2.7315 C   0  0  2  0  0  0  0  0  0  0  0  0
    2.4357   -1.3416   -1.2185 C   0  0  0  0  0  0  0  0  0  0  0  0
    3.3566   -1.4828   -0.4224 O   0  0  0  0  0  0  0  0  0  0  0  0
    2.6885   -0.1189   -3.4213 C   0  0  0  0  0  0  0  0  0  0  0  0
    2.2920   -3.2899   -3.8155 H   0  0  0  0  0  0  0  0  0  0  0  0
    3.7410   -1.8647   -2.8117 H   0  0  0  0  0  0  0  0  0  0  0  0
    1.7194    0.3730   -3.2943 H   0  0  0  0  0  0  0  0  0  0  0  0
    3.4572    0.5307   -2.9906 H   0  0  0  0  0  0  0  0  0  0  0  0
    2.8870   -0.2271   -4.4918 H   0  0  0  0  0  0  0  0  0  0  0  0
    1.1586   -1.1008   -0.7465 N   0  0  0  0  0  0  0  0  0  0  0  0
    0.8211   -0.6938    0.6275 C   0  0  2  0  0  0  0  0  0  0  0  0
    1.7496    0.4288    1.1566 C   0  0  0  0  0  0  0  0  0  0  0  0
    1.5139    1.5845    0.8252 O   0  0  0  0  0  0  0  0  0  0  0  0
    0.7663   -1.9041    1.5950 C   0  0  0  0  0  0  0  0  0  0  0  0
   -0.3571   -2.9457    1.3550 C   0  0  0  0  0  0  0  0  0  0  0  0
   -0.1365   -4.1190    2.3194 C   0  0  0  0  0  0  0  0  0  0  0  0
   -0.4348   -3.5119   -0.0706 C   0  0  0  0  0  0  0  0  0  0  0  0
    0.4515   -0.9692   -1.4763 H   0  0  0  0  0  0  0  0  0  0  0  0
   -0.1825   -0.2573    0.6049 H   0  0  0  0  0  0  0  0  0  0  0  0
    0.6464   -1.5222    2.6147 H   0  0  0  0  0  0  0  0  0  0  0  0
    1.7311   -2.4201    1.5509 H   0  0  0  0  0  0  0  0  0  0  0  0
   -1.3195   -2.4764    1.5858 H   0  0  0  0  0  0  0  0  0  0  0  0
    0.8043   -4.6330    2.0969 H   0  0  0  0  0  0  0  0  0  0  0  0
   -0.9544   -4.8417    2.2384 H   0  0  0  0  0  0  0  0  0  0  0  0
   -0.1011   -3.7615    3.3533 H   0  0  0  0  0  0  0  0  0  0  0  0
    0.5522   -3.8409   -0.4107 H   0  0  0  0  0  0  0  0  0  0  0  0
   -1.1163   -4.3675   -0.1066 H   0  0  0  0  0  0  0  0  0  0  0  0
   -0.8205   -2.7588   -0.7630 H   0  0  0  0  0  0  0  0  0  0  0  0
    2.7504    0.1597    2.0770 N   0  0  0  0  0  0  0  0  0  0  0  0
    3.7632    1.1050    2.5900 C   0  0  2  0  0  0  0  0  0  0  0  0
    3.2273    2.2043    3.5365 C   0  0  0  0  0  0  0  0  0  0  0  0
    3.8181    2.4371    4.5839 O   0  0  0  0  0  0  0  0  0  0  0  0
    4.5715    1.7212    1.4399 C   0  0  0  0  0  0  0  0  0  0  0  0
    2.9972   -0.8264    2.1170 H   0  0  0  0  0  0  0  0  0  0  0  0
    4.4630    0.5147    3.1902 H   0  0  0  0  0  0  0  0  0  0  0  0
    3.9619    2.4162    0.8551 H   0  0  0  0  0  0  0  0  0  0  0  0
    5.4288    2.2724    1.8386 H   0  0  0  0  0  0  0  0  0  0  0  0
    4.9431    0.9368    0.7733 H   0  0  0  0  0  0  0  0  0  0  0  0
    2.1101    2.9493    3.2176 N   0  0  0  0  0  0  0  0  0  0  0  0
    1.5899    4.0360    4.0344 C   0  0  0  0  0  0  0  0  0  0  0  0
    1.6802    2.7462    2.3107 H   0  0  0  0  0  0  0  0  0  0  0  0
    2.3273    4.8415    4.1141 H   0  0  0  0  0  0  0  0  0  0  0  0
    0.6789    4.4417    3.5842 H   0  0  0  0  0  0  0  0  0  0  0  0
    1.3488    3.6769    5.0403 H   0  0  0  0  0  0  0  0  0  0  0  0
  1  2  2  0  0  0  0
  1  3  1  0  0  0  0
  1  7  1  0  0  0  0
  3  4  1  0  0  0  0
  3  5  1  0  0  0  0
  3  6  1  0  0  0  0
  7  8  1  0  0  0  0
  7 12  1  0  0  0  0
  8  9  1  0  0  0  0
  8 11  1  0  0  0  0
  8 13  1  0  0  0  0
  9 10  2  0  0  0  0
  9 17  1  0  0  0  0
 11 14  1  0  0  0  0
 11 15  1  0  0  0  0
 11 16  1  0  0  0  0
 17 18  1  0  0  0  0
 17 25  1  0  0  0  0
 18 19  1  0  0  0  0
 18 21  1  0  0  0  0
 18 26  1  0  0  0  0
 19 20  2  0  0  0  0
 19 36  1  0  0  0  0
 21 22  1  0  0  0  0
 21 27  1  0  0  0  0
 21 28  1  0  0  0  0
 22 23  1  0  0  0  0
 22 24  1  0  0  0  0
 22 29  1  0  0  0  0
 23 30  1  0  0  0  0
 23 31  1  0  0  0  0
 23 32  1  0  0  0  0
 24 33  1  0  0  0  0
 24 34  1  0  0  0  0
 24 35  1  0  0  0  0
 36 37  1  0  0  0  0
 36 41  1  0  0  0  0
 37 38  1  0  0  0  0
 37 40  1  0  0  0  0
 37 42  1  0  0  0  0
 38 39  2  0  0  0  0
 38 46  1  0  0  0  0
 40 43  1  0  0  0  0
 40 44  1  0  0  0  0
 40 45  1  0  0  0  0
 46 47  1  0  0  0  0
 46 48  1  0  0  0  0
 47 49  1  0  0  0  0
 47 50  1  0  0  0  0
 47 51  1  0  0  0  0
M  END
$$$$

  -OEChem-05262216553D

 51 50  0     1  0  0  0  0  0999 V2000
    0.3693   -2.4158   -3.6940 C   0  0  0  0  0  0  0  0  0  0  0  0
   -0.2518   -1.4684   -3.2388 O   0  0  0  0  0  0  0  0  0  0  0  0
   -0.3780   -3.5287   -4.4039 C   0  0  0  0  0  0  0  0  0  0  0  0
   -0.2895   -4.4588   -3.8373 H   0  0  0  0  0  0  0  0  0  0  0  0
   -1.4374   -3.2726   -4.4958 H   0  0  0  0  0  0  0  0  0  0  0  0
    0.0340   -3.6783   -5.4049 H   0  0  0  0  0  0  0  0  0  0  0  0
    1.7383   -2.5151   -3.5241 N   0  0  0  0  0  0  0  0  0  0  0  0
    2.6316   -1.5234   -2.8867 C   0  0  2  0  0  0  0  0  0  0  0  0
    2.4243   -1.3394   -1.3655 C   0  0  0  0  0  0  0  0  0  0  0  0
    3.3860   -1.4473   -0.6136 O   0  0  0  0  0  0  0  0  0  0  0  0
    2.5625   -0.1706   -3.6090 C   0  0  0  0  0  0  0  0  0  0  0  0
    2.1698   -3.3533   -3.9043 H   0  0  0  0  0  0  0  0  0  0  0  0
    3.6544   -1.8950   -3.0085 H   0  0  0  0  0  0  0  0  0  0  0  0
    1.5951    0.3156   -3.4521 H   0  0  0  0  0  0  0  0  0  0  0  0
    3.3428    0.4970   -3.2301 H   0  0  0  0  0  0  0  0  0  0  0  0
    2.7154   -0.3047   -4.6841 H   0  0  0  0  0  0  0  0  0  0  0  0
    1.1666   -1.1172   -0.8355 N   0  0  0  0  0  0  0  0  0  0  0  0
    0.8678   -0.6970    0.5448 C   0  0  2  0  0  0  0  0  0  0  0  0
    1.7708    0.4548    1.0519 C   0  0  0  0  0  0  0  0  0  0  0  0
    1.3423    1.6011    0.9973 O   0  0  0  0  0  0  0  0  0  0  0  0
    0.8893   -1.8892    1.5348 C   0  0  0  0  0  0  0  0  0  0  0  0
   -0.2068   -2.9710    1.3579 C   0  0  0  0  0  0  0  0  0  0  0  0
    0.0906   -4.1166    2.3345 C   0  0  0  0  0  0  0  0  0  0  0  0
   -0.3209   -3.5678   -0.0525 C   0  0  0  0  0  0  0  0  0  0  0  0
    0.4224   -1.0260   -1.5339 H   0  0  0  0  0  0  0  0  0  0  0  0
   -0.1510   -0.2960    0.5487 H   0  0  0  0  0  0  0  0  0  0  0  0
    0.8001   -1.4907    2.5516 H   0  0  0  0  0  0  0  0  0  0  0  0
    1.8674   -2.3763    1.4623 H   0  0  0  0  0  0  0  0  0  0  0  0
   -1.1746   -2.5290    1.6178 H   0  0  0  0  0  0  0  0  0  0  0  0
    1.0365   -4.6058    2.0800 H   0  0  0  0  0  0  0  0  0  0  0  0
   -0.7072   -4.8653    2.3032 H   0  0  0  0  0  0  0  0  0  0  0  0
    0.1602   -3.7370    3.3588 H   0  0  0  0  0  0  0  0  0  0  0  0
    0.6625   -3.8712   -0.4248 H   0  0  0  0  0  0  0  0  0  0  0  0
   -0.9740   -4.4461   -0.0453 H   0  0  0  0  0  0  0  0  0  0  0  0
   -0.7581   -2.8416   -0.7430 H   0  0  0  0  0  0  0  0  0  0  0  0
    2.9694    0.1897    1.6933 N   0  0  0  0  0  0  0  0  0  0  0  0
    3.9533    1.1774    2.1820 C   0  0  2  0  0  0  0  0  0  0  0  0
    3.5101    2.0106    3.4077 C   0  0  0  0  0  0  0  0  0  0  0  0
    4.2988    2.1952    4.3263 O   0  0  0  0  0  0  0  0  0  0  0  0
    4.4231    2.0899    1.0411 C   0  0  0  0  0  0  0  0  0  0  0  0
    3.3398   -0.7301    1.4484 H   0  0  0  0  0  0  0  0  0  0  0  0
    4.8262    0.6062    2.5142 H   0  0  0  0  0  0  0  0  0  0  0  0
    3.6283    2.7723    0.7264 H   0  0  0  0  0  0  0  0  0  0  0  0
    5.2771    2.6902    1.3697 H   0  0  0  0  0  0  0  0  0  0  0  0
    4.7311    1.4909    0.1789 H   0  0  0  0  0  0  0  0  0  0  0  0
    2.2553    2.5815    3.4786 N   0  0  0  0  0  0  0  0  0  0  0  0
    1.8108    3.4502    4.5590 C   0  0  0  0  0  0  0  0  0  0  0  0
    1.6660    2.4658    2.6499 H   0  0  0  0  0  0  0  0  0  0  0  0
    2.4040    4.3703    4.5787 H   0  0  0  0  0  0  0  0  0  0  0  0
    0.7590    3.7175    4.4187 H   0  0  0  0  0  0  0  0  0  0  0  0
    1.9117    2.9434    5.5245 H   0  0  0  0  0  0  0  0  0  0  0  0
  1  2  2  0  0  0  0
  1  3  1  0  0  0  0
  1  7  1  0  0  0  0
  3  4  1  0  0  0  0
  3  5  1  0  0  0  0
  3  6  1  0  0  0  0
  7  8  1  0  0  0  0
  7 12  1  0  0  0  0
  8  9  1  0  0  0  0
  8 11  1  0  0  0  0
  8 13  1  0  0  0  0
  9 10  2  0  0  0  0
  9 17  1  0  0  0  0
 11 14  1  0  0  0  0
 11 15  1  0  0  0  0
 11 16  1  0  0  0  0
 17 18  1  0  0  0  0
 17 25  1  0  0  0  0
 18 19  1  0  0  0  0
 18 21  1  0  0  0  0
 18 26  1  0  0  0  0
 19 20  2  0  0  0  0
 19 36  1  0  0  0  0
 21 22  1  0  0  0  0
 21 27  1  0  0  0  0
 21 28  1  0  0  0  0
 22 23  1  0  0  0  0
 22 24  1  0  0  0  0
 22 29  1  0  0  0  0
 23 30  1  0  0  0  0
 23 31  1  0  0  0  0
 23 32  1  0  0  0  0
 24 33  1  0  0  0  0
 24 34  1  0  0  0  0
 24 35  1  0  0  0  0
 36 37  1  0  0  0  0
 36 41  1  0  0  0  0
 37 38  1  0  0  0  0
 37 40  1  0  0  0  0
 37 42  1  0  0  0  0
 38 39  2  0  0  0  0
 38 46  1  0  0  0  0
 40 43  1  0  0  0  0
 40 44  1  0  0  0  0
 40 45  1  0  0  0  0
 46 47  1  0  0  0  0
 46 48  1  0  0  0  0
 47 49  1  0  0  0  0
 47 50  1  0  0  0  0
 47 51  1  0  0  0  0
M  END
$$$$

  -OEChem-05262216553D

 51 50  0     1  0  0  0  0  0999 V2000
    0.3429   -2.5662   -3.7195 C   0  0  0  0  0  0  0  0  0  0  0  0
   -0.2924   -1.6151   -3.2923 O   0  0  0  0  0  0  0  0  0  0  0  0
   -0.3891   -3.7375   -4.3471 C   0  0  0  0  0  0  0  0  0  0  0  0
   -0.1924   -4.6507   -3.7798 H   0  0  0  0  0  0  0  0  0  0  0  0
   -1.4670   -3.5512   -4.3498 H   0  0  0  0  0  0  0  0  0  0  0  0
   -0.0550   -3.8781   -5.3781 H   0  0  0  0  0  0  0  0  0  0  0  0
    1.7186   -2.6147   -3.5898 N   0  0  0  0  0  0  0  0  0  0  0  0
    2.5974   -1.5681   -3.0251 C   0  0  2  0  0  0  0  0  0  0  0  0
    2.4340   -1.3293   -1.5063 C   0  0  0  0  0  0  0  0  0  0  0  0
    3.4170   -1.4268   -0.7825 O   0  0  0  0  0  0  0  0  0  0  0  0
    2.4601   -0.2489   -3.7989 C   0  0  0  0  0  0  0  0  0  0  0  0
    2.1646   -3.4604   -3.9350 H   0  0  0  0  0  0  0  0  0  0  0  0
    3.6280   -1.9110   -3.1662 H   0  0  0  0  0  0  0  0  0  0  0  0
    1.4818    0.2117   -3.6322 H   0  0  0  0  0  0  0  0  0  0  0  0
    3.2282    0.4589   -3.4715 H   0  0  0  0  0  0  0  0  0  0  0  0
    2.5853   -0.4214   -4.8720 H   0  0  0  0  0  0  0  0  0  0  0  0
    1.1917   -1.0809   -0.9514 N   0  0  0  0  0  0  0  0  0  0  0  0
    0.8935   -0.6319    0.4233 C   0  0  2  0  0  0  0  0  0  0  0  0
    1.7784    0.5243    0.9533 C   0  0  0  0  0  0  0  0  0  0  0  0
    1.2519    1.6095    1.1665 O   0  0  0  0  0  0  0  0  0  0  0  0
    0.9244   -1.8042    1.4346 C   0  0  0  0  0  0  0  0  0  0  0  0
   -0.1654   -2.8961    1.2828 C   0  0  0  0  0  0  0  0  0  0  0  0
    0.1412   -4.0211    2.2799 C   0  0  0  0  0  0  0  0  0  0  0  0
   -0.2834   -3.5206   -0.1148 C   0  0  0  0  0  0  0  0  0  0  0  0
    0.4272   -1.0494   -1.6334 H   0  0  0  0  0  0  0  0  0  0  0  0
   -0.1290   -0.2398    0.4151 H   0  0  0  0  0  0  0  0  0  0  0  0
    0.8353   -1.3869    2.4438 H   0  0  0  0  0  0  0  0  0  0  0  0
    1.9073   -2.2831    1.3702 H   0  0  0  0  0  0  0  0  0  0  0  0
   -1.1344   -2.4541    1.5386 H   0  0  0  0  0  0  0  0  0  0  0  0
    1.0902   -4.5089    2.0342 H   0  0  0  0  0  0  0  0  0  0  0  0
   -0.6520   -4.7752    2.2631 H   0  0  0  0  0  0  0  0  0  0  0  0
    0.2087   -3.6218    3.2969 H   0  0  0  0  0  0  0  0  0  0  0  0
    0.6998   -3.8255   -0.4871 H   0  0  0  0  0  0  0  0  0  0  0  0
   -0.9315   -4.4022   -0.0873 H   0  0  0  0  0  0  0  0  0  0  0  0
   -0.7297   -2.8100   -0.8151 H   0  0  0  0  0  0  0  0  0  0  0  0
    3.0888    0.3075    1.3425 N   0  0  0  0  0  0  0  0  0  0  0  0
    4.0581    1.3089    1.8310 C   0  0  2  0  0  0  0  0  0  0  0  0
    3.7711    1.8756    3.2410 C   0  0  0  0  0  0  0  0  0  0  0  0
    4.6999    2.0467    4.0210 O   0  0  0  0  0  0  0  0  0  0  0  0
    4.2366    2.4422    0.8116 C   0  0  0  0  0  0  0  0  0  0  0  0
    3.4797   -0.5514    0.9448 H   0  0  0  0  0  0  0  0  0  0  0  0
    5.0216    0.7949    1.9098 H   0  0  0  0  0  0  0  0  0  0  0  0
    3.3416    3.0685    0.7549 H   0  0  0  0  0  0  0  0  0  0  0  0
    5.0789    3.0778    1.1025 H   0  0  0  0  0  0  0  0  0  0  0  0
    4.4393    2.0308   -0.1818 H   0  0  0  0  0  0  0  0  0  0  0  0
    2.4937    2.2224    3.6335 N   0  0  0  0  0  0  0  0  0  0  0  0
    2.1741    2.8510    4.9072 C   0  0  0  0  0  0  0  0  0  0  0  0
    1.7748    2.1613    2.9076 H   0  0  0  0  0  0  0  0  0  0  0  0
    1.0917    2.9796    5.0025 H   0  0  0  0  0  0  0  0  0  0  0  0
    2.5225    2.2300    5.7393 H   0  0  0  0  0  0  0  0  0  0  0  0
    2.6493    3.8348    4.9772 H   0  0  0  0  0  0  0  0  0  0  0  0
  1  2  2  0  0  0  0
  1  3  1  0  0  0  0
  1  7  1  0  0  0  0
  3  4  1  0  0  0  0
  3  5  1  0  0  0  0
  3  6  1  0  0  0  0
  7  8  1  0  0  0  0
  7 12  1  0  0  0  0
  8  9  1  0  0  0  0
  8 11  1  0  0  0  0
  8 13  1  0  0  0  0
  9 10  2  0  0  0  0
  9 17  1  0  0  0  0
 11 14  1  0  0  0  0
 11 15  1  0  0  0  0
 11 16  1  0  0  0  0
 17 18  1  0  0  0  0
 17 25  1  0  0  0  0
 18 19  1  0  0  0  0
 18 21  1  0  0  0  0
 18 26  1  0  0  0  0
 19 20  2  0  0  0  0
 19 36  1  0  0  0  0
 21 22  1  0  0  0  0
 21 27  1  0  0  0  0
 21 28  1  0  0  0  0
 22 23  1  0  0  0  0
 22 24  1  0  0  0  0
 22 29  1  0  0  0  0
 23 30  1  0  0  0  0
 23 31  1  0  0  0  0
 23 32  1  0  0  0  0
 24 33  1  0  0  0  0
 24 34  1  0  0  0  0
 24 35  1  0  0  0  0
 36 37  1  0  0  0  0
 36 41  1  0  0  0  0
 37 38  1  0  0  0  0
 37 40  1  0  0  0  0
 37 42  1  0  0  0  0
 38 39  2  0  0  0  0
 38 46  1  0  0  0  0
 40 43  1  0  0  0  0
 40 44  1  0  0  0  0
 40 45  1  0  0  0  0
 46 47  1  0  0  0  0
 46 48  1  0  0  0  0
 47 49  1  0  0  0  0
 47 50  1  0  0  0  0
 47 51  1  0  0  0  0
M  END
$$$$

  -OEChem-05262216553D

 51 50  0     1  0  0  0  0  0999 V2000
    0.2967   -2.4806   -3.8002 C   0  0  0  0  0  0  0  0  0  0  0  0
   -0.2906   -1.5129   -3.3431 O   0  0  0  0  0  0  0  0  0  0  0  0
   -0.4920   -3.5901   -4.4694 C   0  0  0  0  0  0  0  0  0  0  0  0
   -0.3544   -4.5279   -3.9256 H   0  0  0  0  0  0  0  0  0  0  0  0
   -1.5577   -3.3432   -4.4790 H   0  0  0  0  0  0  0  0  0  0  0  0
   -0.1529   -3.7203   -5.5000 H   0  0  0  0  0  0  0  0  0  0  0  0
    1.6675   -2.6036   -3.6679 N   0  0  0  0  0  0  0  0  0  0  0  0
    2.5976   -1.6200   -3.0729 C   0  0  2  0  0  0  0  0  0  0  0  0
    2.4427   -1.4104   -1.5488 C   0  0  0  0  0  0  0  0  0  0  0  0
    3.4253   -1.5512   -0.8333 O   0  0  0  0  0  0  0  0  0  0  0  0
    2.5320   -0.2753   -3.8107 C   0  0  0  0  0  0  0  0  0  0  0  0
    2.0716   -3.4553   -4.0483 H   0  0  0  0  0  0  0  0  0  0  0  0
    3.6091   -2.0126   -3.2218 H   0  0  0  0  0  0  0  0  0  0  0  0
    1.5807    0.2337   -3.6291 H   0  0  0  0  0  0  0  0  0  0  0  0
    3.3381    0.3802   -3.4661 H   0  0  0  0  0  0  0  0  0  0  0  0
    2.6464   -0.4257   -4.8885 H   0  0  0  0  0  0  0  0  0  0  0  0
    1.2081   -1.1371   -0.9883 N   0  0  0  0  0  0  0  0  0  0  0  0
    0.8939   -0.6757    0.3813 C   0  0  2  0  0  0  0  0  0  0  0  0
    1.7657    0.4743    0.9496 C   0  0  0  0  0  0  0  0  0  0  0  0
    1.1990    1.4820    1.3538 O   0  0  0  0  0  0  0  0  0  0  0  0
    0.9101   -1.8486    1.3921 C   0  0  0  0  0  0  0  0  0  0  0  0
   -0.1808   -2.9391    1.2280 C   0  0  0  0  0  0  0  0  0  0  0  0
    0.1113   -4.0657    2.2282 C   0  0  0  0  0  0  0  0  0  0  0  0
   -0.2822   -3.5652   -0.1705 C   0  0  0  0  0  0  0  0  0  0  0  0
    0.4522   -1.0761   -1.6778 H   0  0  0  0  0  0  0  0  0  0  0  0
   -0.1279   -0.2830    0.3548 H   0  0  0  0  0  0  0  0  0  0  0  0
    0.8087   -1.4324    2.4006 H   0  0  0  0  0  0  0  0  0  0  0  0
    1.8941   -2.3275    1.3393 H   0  0  0  0  0  0  0  0  0  0  0  0
   -1.1521   -2.4951    1.4710 H   0  0  0  0  0  0  0  0  0  0  0  0
    1.0660   -4.5497    1.9985 H   0  0  0  0  0  0  0  0  0  0  0  0
   -0.6784   -4.8228    2.1951 H   0  0  0  0  0  0  0  0  0  0  0  0
    0.1592   -3.6691    3.2473 H   0  0  0  0  0  0  0  0  0  0  0  0
    0.7055   -3.8704   -0.5299 H   0  0  0  0  0  0  0  0  0  0  0  0
   -0.9299   -4.4471   -0.1496 H   0  0  0  0  0  0  0  0  0  0  0  0
   -0.7194   -2.8561   -0.8781 H   0  0  0  0  0  0  0  0  0  0  0  0
    3.1361    0.3622    1.1011 N   0  0  0  0  0  0  0  0  0  0  0  0
    4.0912    1.4137    1.5058 C   0  0  2  0  0  0  0  0  0  0  0  0
    4.0120    1.8546    2.9855 C   0  0  0  0  0  0  0  0  0  0  0  0
    5.0467    2.0750    3.6028 O   0  0  0  0  0  0  0  0  0  0  0  0
    3.9959    2.6278    0.5719 C   0  0  0  0  0  0  0  0  0  0  0  0
    3.5288   -0.4709    0.6527 H   0  0  0  0  0  0  0  0  0  0  0  0
    5.0918    0.9887    1.3772 H   0  0  0  0  0  0  0  0  0  0  0  0
    3.0612    3.1748    0.7281 H   0  0  0  0  0  0  0  0  0  0  0  0
    4.8276    3.3130    0.7637 H   0  0  0  0  0  0  0  0  0  0  0  0
    4.0439    2.3083   -0.4733 H   0  0  0  0  0  0  0  0  0  0  0  0
    2.8003    2.0486    3.6178 N   0  0  0  0  0  0  0  0  0  0  0  0
    2.6621    2.5724    4.9690 C   0  0  0  0  0  0  0  0  0  0  0  0
    1.9714    1.9630    3.0235 H   0  0  0  0  0  0  0  0  0  0  0  0
    3.2114    1.9467    5.6801 H   0  0  0  0  0  0  0  0  0  0  0  0
    3.0505    3.5944    5.0245 H   0  0  0  0  0  0  0  0  0  0  0  0
    1.6082    2.5839    5.2624 H   0  0  0  0  0  0  0  0  0  0  0  0
  1  2  2  0  0  0  0
  1  3  1  0  0  0  0
  1  7  1  0  0  0  0
  3  4  1  0  0  0  0
  3  5  1  0  0  0  0
  3  6  1  0  0  0  0
  7  8  1  0  0  0  0
  7 12  1  0  0  0  0
  8  9  1  0  0  0  0
  8 11  1  0  0  0  0
  8 13  1  0  0  0  0
  9 10  2  0  0  0  0
  9 17  1  0  0  0  0
 11 14  1  0  0  0  0
 11 15  1  0  0  0  0
 11 16  1  0  0  0  0
 17 18  1  0  0  0  0
 17 25  1  0  0  0  0
 18 19  1  0  0  0  0
 18 21  1  0  0  0  0
 18 26  1  0  0  0  0
 19 20  2  0  0  0  0
 19 36  1  0  0  0  0
 21 22  1  0  0  0  0
 21 27  1  0  0  0  0
 21 28  1  0  0  0  0
 22 23  1  0  0  0  0
 22 24  1  0  0  0  0
 22 29  1  0  0  0  0
 23 30  1  0  0  0  0
 23 31  1  0  0  0  0
 23 32  1  0  0  0  0
 24 33  1  0  0  0  0
 24 34  1  0  0  0  0
 24 35  1  0  0  0  0
 36 37  1  0  0  0  0
 36 41  1  0  0  0  0
 37 38  1  0  0  0  0
 37 40  1  0  0  0  0
 37 42  1  0  0  0  0
 38 39  2  0  0  0  0
 38 46  1  0  0  0  0
 40 43  1  0  0  0  0
 40 44  1  0  0  0  0
 40 45  1  0  0  0  0
 46 47  1  0  0  0  0
 46 48  1  0  0  0  0
 47 49  1  0  0  0  0
 47 50  1  0  0  0  0
 47 51  1  0  0  0  0
M  END
$$$$

  -OEChem-05262216553D

 51 50  0     1  0  0  0  0  0999 V2000
    3.7675   -0.2433   -2.8698 C   0  0  0  0  0  0  0  0  0  0  0  0
    2.9487    0.6315   -3.1104 O   0  0  0  0  0  0  0  0  0  0  0  0
    5.2537    0.0526   -2.9300 C   0  0  0  0  0  0  0  0  0  0  0  0
    5.4231    1.1328   -2.9022 H   0  0  0  0  0  0  0  0  0  0  0  0
    5.7643   -0.3990   -2.0760 H   0  0  0  0  0  0  0  0  0  0  0  0
    5.6776   -0.3513   -3.8522 H   0  0  0  0  0  0  0  0  0  0  0  0
    3.3219   -1.5007   -2.5170 N   0  0  0  0  0  0  0  0  0  0  0  0
    1.9005   -1.8123   -2.3113 C   0  0  2  0  0  0  0  0  0  0  0  0
    1.4141   -1.4278   -0.8983 C   0  0  0  0  0  0  0  0  0  0  0  0
    2.0551   -1.7870    0.0805 O   0  0  0  0  0  0  0  0  0  0  0  0
    1.7043   -3.3095   -2.5590 C   0  0  0  0  0  0  0  0  0  0  0  0
    4.0139   -2.1347   -2.1263 H   0  0  0  0  0  0  0  0  0  0  0  0
    1.2954   -1.2672   -3.0434 H   0  0  0  0  0  0  0  0  0  0  0  0
    2.2921   -3.8980   -1.8469 H   0  0  0  0  0  0  0  0  0  0  0  0
    0.6497   -3.5784   -2.4433 H   0  0  0  0  0  0  0  0  0  0  0  0
    2.0191   -3.5720   -3.5739 H   0  0  0  0  0  0  0  0  0  0  0  0
    0.1733   -0.8449   -0.7212 N   0  0  0  0  0  0  0  0  0  0  0  0
   -0.3038   -0.1295    0.4840 C   0  0  2  0  0  0  0  0  0  0  0  0
    0.6196    0.9179    1.1797 C   0  0  0  0  0  0  0  0  0  0  0  0
    0.0822    1.7585    1.8837 O   0  0  0  0  0  0  0  0  0  0  0  0
   -0.7879   -1.1372    1.5616 C   0  0  0  0  0  0  0  0  0  0  0  0
   -2.0465   -1.9827    1.2317 C   0  0  0  0  0  0  0  0  0  0  0  0
   -2.2499   -3.0010    2.3619 C   0  0  0  0  0  0  0  0  0  0  0  0
   -1.9935   -2.7594   -0.0923 C   0  0  0  0  0  0  0  0  0  0  0  0
   -0.2999   -0.6080   -1.5888 H   0  0  0  0  0  0  0  0  0  0  0  0
   -1.1797    0.4480    0.1720 H   0  0  0  0  0  0  0  0  0  0  0  0
   -1.0072   -0.5828    2.4807 H   0  0  0  0  0  0  0  0  0  0  0  0
    0.0415   -1.8140    1.7908 H   0  0  0  0  0  0  0  0  0  0  0  0
   -2.9130   -1.3137    1.1994 H   0  0  0  0  0  0  0  0  0  0  0  0
   -1.4136   -3.7064    2.4037 H   0  0  0  0  0  0  0  0  0  0  0  0
   -3.1741   -3.5667    2.2073 H   0  0  0  0  0  0  0  0  0  0  0  0
   -2.3220   -2.4906    3.3275 H   0  0  0  0  0  0  0  0  0  0  0  0
   -1.0602   -3.3262   -0.1696 H   0  0  0  0  0  0  0  0  0  0  0  0
   -2.8301   -3.4621   -0.1573 H   0  0  0  0  0  0  0  0  0  0  0  0
   -2.0726   -2.0786   -0.9438 H   0  0  0  0  0  0  0  0  0  0  0  0
    1.9577    0.8296    1.4854 N   0  0  0  0  0  0  0  0  0  0  0  0
    2.9431    1.2315    0.4647 C   0  0  2  0  0  0  0  0  0  0  0  0
    4.3179    0.5404    0.6441 C   0  0  0  0  0  0  0  0  0  0  0  0
    5.3517    1.0663    0.2486 O   0  0  0  0  0  0  0  0  0  0  0  0
    3.0718    2.7620    0.5074 C   0  0  0  0  0  0  0  0  0  0  0  0
    2.1111    1.3016    2.3730 H   0  0  0  0  0  0  0  0  0  0  0  0
    2.5779    0.9577   -0.5267 H   0  0  0  0  0  0  0  0  0  0  0  0
    3.4774    3.0863    1.4708 H   0  0  0  0  0  0  0  0  0  0  0  0
    3.7407    3.1113   -0.2859 H   0  0  0  0  0  0  0  0  0  0  0  0
    2.0971    3.2376    0.3606 H   0  0  0  0  0  0  0  0  0  0  0  0
    4.3960   -0.7075    1.2281 N   0  0  0  0  0  0  0  0  0  0  0  0
    5.6284   -1.4761    1.3291 C   0  0  0  0  0  0  0  0  0  0  0  0
    3.5013   -1.2003    1.3042 H   0  0  0  0  0  0  0  0  0  0  0  0
    6.0143   -1.7139    0.3328 H   0  0  0  0  0  0  0  0  0  0  0  0
    6.3891   -0.9104    1.8772 H   0  0  0  0  0  0  0  0  0  0  0  0
    5.4442   -2.4122    1.8647 H   0  0  0  0  0  0  0  0  0  0  0  0
  1  2  2  0  0  0  0
  1  3  1  0  0  0  0
  1  7  1  0  0  0  0
  3  4  1  0  0  0  0
  3  5  1  0  0  0  0
  3  6  1  0  0  0  0
  7  8  1  0  0  0  0
  7 12  1  0  0  0  0
  8  9  1  0  0  0  0
  8 11  1  0  0  0  0
  8 13  1  0  0  0  0
  9 10  2  0  0  0  0
  9 17  1  0  0  0  0
 11 14  1  0  0  0  0
 11 15  1  0  0  0  0
 11 16  1  0  0  0  0
 17 18  1  0  0  0  0
 17 25  1  0  0  0  0
 18 19  1  0  0  0  0
 18 21  1  0  0  0  0
 18 26  1  0  0  0  0
 19 20  2  0  0  0  0
 19 36  1  0  0  0  0
 21 22  1  0  0  0  0
 21 27  1  0  0  0  0
 21 28  1  0  0  0  0
 22 23  1  0  0  0  0
 22 24  1  0  0  0  0
 22 29  1  0  0  0  0
 23 30  1  0  0  0  0
 23 31  1  0  0  0  0
 23 32  1  0  0  0  0
 24 33  1  0  0  0  0
 24 34  1  0  0  0  0
 24 35  1  0  0  0  0
 36 37  1  0  0  0  0
 36 41  1  0  0  0  0
 37 38  1  0  0  0  0
 37 40  1  0  0  0  0
 37 42  1  0  0  0  0
 38 39  2  0  0  0  0
 38 46  1  0  0  0  0
 40 43  1  0  0  0  0
 40 44  1  0  0  0  0
 40 45  1  0  0  0  0
 46 47  1  0  0  0  0
 46 48  1  0  0  0  0
 47 49  1  0  0  0  0
 47 50  1  0  0  0  0
 47 51  1  0  0  0  0
M  END
$$$$

  -OEChem-05262216553D

 51 50  0     1  0  0  0  0  0999 V2000
    3.2573   -0.7308   -4.4267 C   0  0  0  0  0  0  0  0  0  0  0  0
    2.7312    0.2031   -5.0091 O   0  0  0  0  0  0  0  0  0  0  0  0
    4.7389   -0.9941   -4.6199 C   0  0  0  0  0  0  0  0  0  0  0  0
    5.3114   -0.1023   -4.3518 H   0  0  0  0  0  0  0  0  0  0  0  0
    5.0678   -1.8249   -3.9910 H   0  0  0  0  0  0  0  0  0  0  0  0
    4.9361   -1.2444   -5.6653 H   0  0  0  0  0  0  0  0  0  0  0  0
    2.5163   -1.5331   -3.5836 N   0  0  0  0  0  0  0  0  0  0  0  0
    1.1555   -1.2139   -3.1276 C   0  0  2  0  0  0  0  0  0  0  0  0
    1.0709   -1.1795   -1.5873 C   0  0  0  0  0  0  0  0  0  0  0  0
    1.9294   -1.7463   -0.9235 O   0  0  0  0  0  0  0  0  0  0  0  0
    0.2108   -2.2724   -3.7026 C   0  0  0  0  0  0  0  0  0  0  0  0
    3.0446   -2.1776   -2.9986 H   0  0  0  0  0  0  0  0  0  0  0  0
    0.8478   -0.2279   -3.4919 H   0  0  0  0  0  0  0  0  0  0  0  0
    0.4746   -3.2666   -3.3277 H   0  0  0  0  0  0  0  0  0  0  0  0
   -0.8251   -2.0581   -3.4230 H   0  0  0  0  0  0  0  0  0  0  0  0
    0.2769   -2.2826   -4.7953 H   0  0  0  0  0  0  0  0  0  0  0  0
   -0.0689   -0.7131   -0.9619 N   0  0  0  0  0  0  0  0  0  0  0  0
   -0.1549   -0.0265    0.3477 C   0  0  2  0  0  0  0  0  0  0  0  0
    0.8569    1.1135    0.6733 C   0  0  0  0  0  0  0  0  0  0  0  0
    0.3795    2.1625    1.0705 O   0  0  0  0  0  0  0  0  0  0  0  0
   -0.1167   -1.0368    1.5230 C   0  0  0  0  0  0  0  0  0  0  0  0
   -1.3172   -2.0091    1.6602 C   0  0  0  0  0  0  0  0  0  0  0  0
   -1.0020   -3.0042    2.7853 C   0  0  0  0  0  0  0  0  0  0  0  0
   -1.6498   -2.8216    0.3998 C   0  0  0  0  0  0  0  0  0  0  0  0
   -0.7764   -0.4114   -1.6260 H   0  0  0  0  0  0  0  0  0  0  0  0
   -1.1395    0.4519    0.3773 H   0  0  0  0  0  0  0  0  0  0  0  0
   -0.0499   -0.4698    2.4583 H   0  0  0  0  0  0  0  0  0  0  0  0
    0.8006   -1.6273    1.4407 H   0  0  0  0  0  0  0  0  0  0  0  0
   -2.2045   -1.4298    1.9374 H   0  0  0  0  0  0  0  0  0  0  0  0
   -0.1374   -3.6233    2.5242 H   0  0  0  0  0  0  0  0  0  0  0  0
   -1.8578   -3.6620    2.9671 H   0  0  0  0  0  0  0  0  0  0  0  0
   -0.7803   -2.4717    3.7153 H   0  0  0  0  0  0  0  0  0  0  0  0
   -0.7477   -3.2916   -0.0052 H   0  0  0  0  0  0  0  0  0  0  0  0
   -2.3745   -3.6086    0.6310 H   0  0  0  0  0  0  0  0  0  0  0  0
   -2.0957   -2.1822   -0.3665 H   0  0  0  0  0  0  0  0  0  0  0  0
    2.1544    1.3014    0.2548 N   0  0  0  0  0  0  0  0  0  0  0  0
    3.2346    0.4206    0.7152 C   0  0  2  0  0  0  0  0  0  0  0  0
    3.9020    0.9387    2.0059 C   0  0  0  0  0  0  0  0  0  0  0  0
    3.9953    2.1414    2.2138 O   0  0  0  0  0  0  0  0  0  0  0  0
    4.2838    0.3482   -0.4003 C   0  0  0  0  0  0  0  0  0  0  0  0
    2.3874    2.2868    0.3862 H   0  0  0  0  0  0  0  0  0  0  0  0
    2.8529   -0.5778    0.9326 H   0  0  0  0  0  0  0  0  0  0  0  0
    4.7407    1.3307   -0.5583 H   0  0  0  0  0  0  0  0  0  0  0  0
    5.0714   -0.3640   -0.1368 H   0  0  0  0  0  0  0  0  0  0  0  0
    3.8287    0.0290   -1.3414 H   0  0  0  0  0  0  0  0  0  0  0  0
    4.4331    0.0489    2.9216 N   0  0  0  0  0  0  0  0  0  0  0  0
    5.0804    0.4694    4.1584 C   0  0  0  0  0  0  0  0  0  0  0  0
    4.3472   -0.9431    2.7215 H   0  0  0  0  0  0  0  0  0  0  0  0
    5.9516    1.0960    3.9405 H   0  0  0  0  0  0  0  0  0  0  0  0
    4.3828    1.0399    4.7808 H   0  0  0  0  0  0  0  0  0  0  0  0
    5.4156   -0.4035    4.7266 H   0  0  0  0  0  0  0  0  0  0  0  0
  1  2  2  0  0  0  0
  1  3  1  0  0  0  0
  1  7  1  0  0  0  0
  3  4  1  0  0  0  0
  3  5  1  0  0  0  0
  3  6  1  0  0  0  0
  7  8  1  0  0  0  0
  7 12  1  0  0  0  0
  8  9  1  0  0  0  0
  8 11  1  0  0  0  0
  8 13  1  0  0  0  0
  9 10  2  0  0  0  0
  9 17  1  0  0  0  0
 11 14  1  0  0  0  0
 11 15  1  0  0  0  0
 11 16  1  0  0  0  0
 17 18  1  0  0  0  0
 17 25  1  0  0  0  0
 18 19  1  0  0  0  0
 18 21  1  0  0  0  0
 18 26  1  0  0  0  0
 19 20  2  0  0  0  0
 19 36  1  0  0  0  0
 21 22  1  0  0  0  0
 21 27  1  0  0  0  0
 21 28  1  0  0  0  0
 22 23  1  0  0  0  0
 22 24  1  0  0  0  0
 22 29  1  0  0  0  0
 23 30  1  0  0  0  0
 23 31  1  0  0  0  0
 23 32  1  0  0  0  0
 24 33  1  0  0  0  0
 24 34  1  0  0  0  0
 24 35  1  0  0  0  0
 36 37  1  0  0  0  0
 36 41  1  0  0  0  0
 37 38  1  0  0  0  0
 37 40  1  0  0  0  0
 37 42  1  0  0  0  0
 38 39  2  0  0  0  0
 38 46  1  0  0  0  0
 40 43  1  0  0  0  0
 40 44  1  0  0  0  0
 40 45  1  0  0  0  0
 46 47  1  0  0  0  0
 46 48  1  0  0  0  0
 47 49  1  0  0  0  0
 47 50  1  0  0  0  0
 47 51  1  0  0  0  0
M  END
$$$$

  -OEChem-05262216553D

 51 50  0     1  0  0  0  0  0999 V2000
    1.7404   -3.5204   -3.6502 C   0  0  0  0  0  0  0  0  0  0  0  0
    0.7490   -3.8089   -3.0010 O   0  0  0  0  0  0  0  0  0  0  0  0
    2.7229   -4.6083   -4.0403 C   0  0  0  0  0  0  0  0  0  0  0  0
    3.7065   -4.3915   -3.6163 H   0  0  0  0  0  0  0  0  0  0  0  0
    2.3833   -5.5765   -3.6614 H   0  0  0  0  0  0  0  0  0  0  0  0
    2.8056   -4.6657   -5.1282 H   0  0  0  0  0  0  0  0  0  0  0  0
    1.9968   -2.2122   -4.0166 N   0  0  0  0  0  0  0  0  0  0  0  0
    1.2880   -1.0382   -3.4736 C   0  0  2  0  0  0  0  0  0  0  0  0
    1.5333   -0.8506   -1.9549 C   0  0  0  0  0  0  0  0  0  0  0  0
    2.6719   -0.9876   -1.5284 O   0  0  0  0  0  0  0  0  0  0  0  0
   -0.2004   -1.0494   -3.8679 C   0  0  0  0  0  0  0  0  0  0  0  0
    2.9254   -2.0525   -4.3970 H   0  0  0  0  0  0  0  0  0  0  0  0
    1.7222   -0.1546   -3.9508 H   0  0  0  0  0  0  0  0  0  0  0  0
   -0.7567   -1.8128   -3.3162 H   0  0  0  0  0  0  0  0  0  0  0  0
   -0.6562   -0.0760   -3.6621 H   0  0  0  0  0  0  0  0  0  0  0  0
   -0.3035   -1.2550   -4.9378 H   0  0  0  0  0  0  0  0  0  0  0  0
    0.5152   -0.4544   -1.1012 N   0  0  0  0  0  0  0  0  0  0  0  0
    0.5806   -0.0742    0.3322 C   0  0  2  0  0  0  0  0  0  0  0  0
    1.7003    0.8874    0.8275 C   0  0  0  0  0  0  0  0  0  0  0  0
    1.5216    1.4512    1.9007 O   0  0  0  0  0  0  0  0  0  0  0  0
    0.6063   -1.3444    1.2221 C   0  0  0  0  0  0  0  0  0  0  0  0
   -0.6634   -2.2368    1.2329 C   0  0  0  0  0  0  0  0  0  0  0  0
   -0.3556   -3.4961    2.0538 C   0  0  0  0  0  0  0  0  0  0  0  0
   -1.1782   -2.6872   -0.1402 C   0  0  0  0  0  0  0  0  0  0  0  0
   -0.4119   -0.4882   -1.5149 H   0  0  0  0  0  0  0  0  0  0  0  0
   -0.3485    0.4600    0.5536 H   0  0  0  0  0  0  0  0  0  0  0  0
    0.7941   -1.0429    2.2587 H   0  0  0  0  0  0  0  0  0  0  0  0
    1.4608   -1.9536    0.9072 H   0  0  0  0  0  0  0  0  0  0  0  0
   -1.4678   -1.6830    1.7288 H   0  0  0  0  0  0  0  0  0  0  0  0
    0.4220   -4.0944    1.5676 H   0  0  0  0  0  0  0  0  0  0  0  0
   -1.2527   -4.1141    2.1602 H   0  0  0  0  0  0  0  0  0  0  0  0
   -0.0095   -3.2241    3.0558 H   0  0  0  0  0  0  0  0  0  0  0  0
   -0.3643   -3.1173   -0.7298 H   0  0  0  0  0  0  0  0  0  0  0  0
   -1.9581   -3.4469   -0.0270 H   0  0  0  0  0  0  0  0  0  0  0  0
   -1.6170   -1.8484   -0.6860 H   0  0  0  0  0  0  0  0  0  0  0  0
    2.8353    1.1991    0.1000 N   0  0  0  0  0  0  0  0  0  0  0  0
    3.9228    2.1320    0.4623 C   0  0  2  0  0  0  0  0  0  0  0  0
    4.7757    1.7075    1.6802 C   0  0  0  0  0  0  0  0  0  0  0  0
    5.9957    1.7952    1.6203 O   0  0  0  0  0  0  0  0  0  0  0  0
    3.3930    3.5614    0.6398 C   0  0  0  0  0  0  0  0  0  0  0  0
    3.0293    0.5379   -0.6555 H   0  0  0  0  0  0  0  0  0  0  0  0
    4.6096    2.1533   -0.3901 H   0  0  0  0  0  0  0  0  0  0  0  0
    2.7850    3.6503    1.5444 H   0  0  0  0  0  0  0  0  0  0  0  0
    4.2301    4.2616    0.7234 H   0  0  0  0  0  0  0  0  0  0  0  0
    2.7832    3.8506   -0.2210 H   0  0  0  0  0  0  0  0  0  0  0  0
    4.1904    1.2624    2.8486 N   0  0  0  0  0  0  0  0  0  0  0  0
    4.9318    0.8970    4.0467 C   0  0  0  0  0  0  0  0  0  0  0  0
    3.1675    1.2760    2.8709 H   0  0  0  0  0  0  0  0  0  0  0  0
    5.6276    0.0794    3.8315 H   0  0  0  0  0  0  0  0  0  0  0  0
    5.4997    1.7545    4.4217 H   0  0  0  0  0  0  0  0  0  0  0  0
    4.2431    0.5673    4.8303 H   0  0  0  0  0  0  0  0  0  0  0  0
  1  2  2  0  0  0  0
  1  3  1  0  0  0  0
  1  7  1  0  0  0  0
  3  4  1  0  0  0  0
  3  5  1  0  0  0  0
  3  6  1  0  0  0  0
  7  8  1  0  0  0  0
  7 12  1  0  0  0  0
  8  9  1  0  0  0  0
  8 11  1  0  0  0  0
  8 13  1  0  0  0  0
  9 10  2  0  0  0  0
  9 17  1  0  0  0  0
 11 14  1  0  0  0  0
 11 15  1  0  0  0  0
 11 16  1  0  0  0  0
 17 18  1  0  0  0  0
 17 25  1  0  0  0  0
 18 19  1  0  0  0  0
 18 21  1  0  0  0  0
 18 26  1  0  0  0  0
 19 20  2  0  0  0  0
 19 36  1  0  0  0  0
 21 22  1  0  0  0  0
 21 27  1  0  0  0  0
 21 28  1  0  0  0  0
 22 23  1  0  0  0  0
 22 24  1  0  0  0  0
 22 29  1  0  0  0  0
 23 30  1  0  0  0  0
 23 31  1  0  0  0  0
 23 32  1  0  0  0  0
 24 33  1  0  0  0  0
 24 34  1  0  0  0  0
 24 35  1  0  0  0  0
 36 37  1  0  0  0  0
 36 41  1  0  0  0  0
 37 38  1  0  0  0  0
 37 40  1  0  0  0  0
 37 42  1  0  0  0  0
 38 39  2  0  0  0  0
 38 46  1  0  0  0  0
 40 43  1  0  0  0  0
 40 44  1  0  0  0  0
 40 45  1  0  0  0  0
 46 47  1  0  0  0  0
 46 48  1  0  0  0  0
 47 49  1  0  0  0  0
 47 50  1  0  0  0  0
 47 51  1  0  0  0  0
M  END
$$$$

  -OEChem-05262216553D

 51 50  0     1  0  0  0  0  0999 V2000
    1.7004   -3.5501   -3.6112 C   0  0  0  0  0  0  0  0  0  0  0  0
    0.7132   -3.8182   -2.9476 O   0  0  0  0  0  0  0  0  0  0  0  0
    2.6421   -4.6604   -4.0369 C   0  0  0  0  0  0  0  0  0  0  0  0
    3.6354   -4.4891   -3.6145 H   0  0  0  0  0  0  0  0  0  0  0  0
    2.2712   -5.6264   -3.6823 H   0  0  0  0  0  0  0  0  0  0  0  0
    2.7160   -4.6913   -5.1266 H   0  0  0  0  0  0  0  0  0  0  0  0
    1.9816   -2.2459   -3.9723 N   0  0  0  0  0  0  0  0  0  0  0  0
    1.2846   -1.0570   -3.4473 C   0  0  2  0  0  0  0  0  0  0  0  0
    1.5261   -0.8426   -1.9314 C   0  0  0  0  0  0  0  0  0  0  0  0
    2.6723   -0.9082   -1.5095 O   0  0  0  0  0  0  0  0  0  0  0  0
   -0.2029   -1.0585   -3.8446 C   0  0  0  0  0  0  0  0  0  0  0  0
    2.9041   -2.1014   -4.3732 H   0  0  0  0  0  0  0  0  0  0  0  0
    1.7295   -0.1864   -3.9390 H   0  0  0  0  0  0  0  0  0  0  0  0
   -0.7687   -1.8047   -3.2794 H   0  0  0  0  0  0  0  0  0  0  0  0
   -0.6471   -0.0762   -3.6576 H   0  0  0  0  0  0  0  0  0  0  0  0
   -0.3074   -1.2831   -4.9105 H   0  0  0  0  0  0  0  0  0  0  0  0
    0.5034   -0.4471   -1.0825 N   0  0  0  0  0  0  0  0  0  0  0  0
    0.5750   -0.0693    0.3517 C   0  0  2  0  0  0  0  0  0  0  0  0
    1.7062    0.8898    0.8265 C   0  0  0  0  0  0  0  0  0  0  0  0
    1.6469    1.3248    1.9708 O   0  0  0  0  0  0  0  0  0  0  0  0
    0.5942   -1.3431    1.2387 C   0  0  0  0  0  0  0  0  0  0  0  0
   -0.6812   -2.2269    1.2506 C   0  0  0  0  0  0  0  0  0  0  0  0
   -0.3787   -3.4904    2.0676 C   0  0  0  0  0  0  0  0  0  0  0  0
   -1.2044   -2.6707   -0.1210 C   0  0  0  0  0  0  0  0  0  0  0  0
   -0.4268   -0.5256   -1.4830 H   0  0  0  0  0  0  0  0  0  0  0  0
   -0.3479    0.4732    0.5793 H   0  0  0  0  0  0  0  0  0  0  0  0
    0.7859   -1.0506    2.2766 H   0  0  0  0  0  0  0  0  0  0  0  0
    1.4447   -1.9561    0.9193 H   0  0  0  0  0  0  0  0  0  0  0  0
   -1.4795   -1.6687    1.7513 H   0  0  0  0  0  0  0  0  0  0  0  0
    0.3986   -4.0889    1.5809 H   0  0  0  0  0  0  0  0  0  0  0  0
   -1.2778   -4.1063    2.1693 H   0  0  0  0  0  0  0  0  0  0  0  0
   -0.0344   -3.2234    3.0717 H   0  0  0  0  0  0  0  0  0  0  0  0
   -0.3958   -3.1069   -0.7129 H   0  0  0  0  0  0  0  0  0  0  0  0
   -1.9900   -3.4241   -0.0063 H   0  0  0  0  0  0  0  0  0  0  0  0
   -1.6381   -1.8281   -0.6647 H   0  0  0  0  0  0  0  0  0  0  0  0
    2.6604    1.4120   -0.0294 N   0  0  0  0  0  0  0  0  0  0  0  0
    3.6898    2.4292    0.2717 C   0  0  2  0  0  0  0  0  0  0  0  0
    4.7681    2.0053    1.2966 C   0  0  0  0  0  0  0  0  0  0  0  0
    5.9440    2.2640    1.0723 O   0  0  0  0  0  0  0  0  0  0  0  0
    3.0472    3.7616    0.6812 C   0  0  0  0  0  0  0  0  0  0  0  0
    2.8329    0.8121   -0.8387 H   0  0  0  0  0  0  0  0  0  0  0  0
    4.2256    2.6120   -0.6651 H   0  0  0  0  0  0  0  0  0  0  0  0
    2.5773    3.6906    1.6664 H   0  0  0  0  0  0  0  0  0  0  0  0
    3.8092    4.5460    0.7242 H   0  0  0  0  0  0  0  0  0  0  0  0
    2.2870    4.0566   -0.0480 H   0  0  0  0  0  0  0  0  0  0  0  0
    4.4312    1.3869    2.4838 N   0  0  0  0  0  0  0  0  0  0  0  0
    5.3869    1.0447    3.5272 C   0  0  0  0  0  0  0  0  0  0  0  0
    3.4298    1.2645    2.6564 H   0  0  0  0  0  0  0  0  0  0  0  0
    6.1418    0.3513    3.1425 H   0  0  0  0  0  0  0  0  0  0  0  0
    5.8890    1.9447    3.8967 H   0  0  0  0  0  0  0  0  0  0  0  0
    4.8730    0.5655    4.3657 H   0  0  0  0  0  0  0  0  0  0  0  0
  1  2  2  0  0  0  0
  1  3  1  0  0  0  0
  1  7  1  0  0  0  0
  3  4  1  0  0  0  0
  3  5  1  0  0  0  0
  3  6  1  0  0  0  0
  7  8  1  0  0  0  0
  7 12  1  0  0  0  0
  8  9  1  0  0  0  0
  8 11  1  0  0  0  0
  8 13  1  0  0  0  0
  9 10  2  0  0  0  0
  9 17  1  0  0  0  0
 11 14  1  0  0  0  0
 11 15  1  0  0  0  0
 11 16  1  0  0  0  0
 17 18  1  0  0  0  0
 17 25  1  0  0  0  0
 18 19  1  0  0  0  0
 18 21  1  0  0  0  0
 18 26  1  0  0  0  0
 19 20  2  0  0  0  0
 19 36  1  0  0  0  0
 21 22  1  0  0  0  0
 21 27  1  0  0  0  0
 21 28  1  0  0  0  0
 22 23  1  0  0  0  0
 22 24  1  0  0  0  0
 22 29  1  0  0  0  0
 23 30  1  0  0  0  0
 23 31  1  0  0  0  0
 23 32  1  0  0  0  0
 24 33  1  0  0  0  0
 24 34  1  0  0  0  0
 24 35  1  0  0  0  0
 36 37  1  0  0  0  0
 36 41  1  0  0  0  0
 37 38  1  0  0  0  0
 37 40  1  0  0  0  0
 37 42  1  0  0  0  0
 38 39  2  0  0  0  0
 38 46  1  0  0  0  0
 40 43  1  0  0  0  0
 40 44  1  0  0  0  0
 40 45  1  0  0  0  0
 46 47  1  0  0  0  0
 46 48  1  0  0  0  0
 47 49  1  0  0  0  0
 47 50  1  0  0  0  0
 47 51  1  0  0  0  0
M  END
$$$$

  -OEChem-05262216553D

 51 50  0     1  0  0  0  0  0999 V2000
    1.8608   -3.5574   -3.3985 C   0  0  0  0  0  0  0  0  0  0  0  0
    0.9132   -3.8598   -2.6931 O   0  0  0  0  0  0  0  0  0  0  0  0
    2.8928   -4.6097   -3.7587 C   0  0  0  0  0  0  0  0  0  0  0  0
    3.8567   -4.3536   -3.3118 H   0  0  0  0  0  0  0  0  0  0  0  0
    2.5799   -5.5884   -3.3838 H   0  0  0  0  0  0  0  0  0  0  0  0
    3.0051   -4.6697   -4.8439 H   0  0  0  0  0  0  0  0  0  0  0  0
    2.0173   -2.2644   -3.8616 N   0  0  0  0  0  0  0  0  0  0  0  0
    1.2278   -1.1056   -3.4048 C   0  0  2  0  0  0  0  0  0  0  0  0
    1.4678   -0.7733   -1.9102 C   0  0  0  0  0  0  0  0  0  0  0  0
    2.6207   -0.7075   -1.5089 O   0  0  0  0  0  0  0  0  0  0  0  0
   -0.2575   -1.2588   -3.7785 C   0  0  0  0  0  0  0  0  0  0  0  0
    2.9184   -2.0697   -4.2891 H   0  0  0  0  0  0  0  0  0  0  0  0
    1.5930   -0.2355   -3.9590 H   0  0  0  0  0  0  0  0  0  0  0  0
   -0.7496   -2.0198   -3.1663 H   0  0  0  0  0  0  0  0  0  0  0  0
   -0.7849   -0.3105   -3.6380 H   0  0  0  0  0  0  0  0  0  0  0  0
   -0.3521   -1.5503   -4.8291 H   0  0  0  0  0  0  0  0  0  0  0  0
    0.4328   -0.3867   -1.0718 N   0  0  0  0  0  0  0  0  0  0  0  0
    0.5139   -0.0040    0.3608 C   0  0  2  0  0  0  0  0  0  0  0  0
    1.6520    0.9671    0.7969 C   0  0  0  0  0  0  0  0  0  0  0  0
    1.7787    1.2425    1.9845 O   0  0  0  0  0  0  0  0  0  0  0  0
    0.5260   -1.2770    1.2517 C   0  0  0  0  0  0  0  0  0  0  0  0
   -0.7568   -2.1501    1.2721 C   0  0  0  0  0  0  0  0  0  0  0  0
   -0.4596   -3.4137    2.0909 C   0  0  0  0  0  0  0  0  0  0  0  0
   -1.2985   -2.5886   -0.0938 C   0  0  0  0  0  0  0  0  0  0  0  0
   -0.4956   -0.5751   -1.4386 H   0  0  0  0  0  0  0  0  0  0  0  0
   -0.4035    0.5454    0.5923 H   0  0  0  0  0  0  0  0  0  0  0  0
    0.7206   -0.9862    2.2890 H   0  0  0  0  0  0  0  0  0  0  0  0
    1.3703   -1.8975    0.9309 H   0  0  0  0  0  0  0  0  0  0  0  0
   -1.5454   -1.5842    1.7792 H   0  0  0  0  0  0  0  0  0  0  0  0
    0.3049   -4.0230    1.5974 H   0  0  0  0  0  0  0  0  0  0  0  0
   -1.3645   -4.0185    2.2061 H   0  0  0  0  0  0  0  0  0  0  0  0
   -0.0999   -3.1470    3.0898 H   0  0  0  0  0  0  0  0  0  0  0  0
   -0.5010   -3.0312   -0.6950 H   0  0  0  0  0  0  0  0  0  0  0  0
   -2.0886   -3.3359    0.0295 H   0  0  0  0  0  0  0  0  0  0  0  0
   -1.7317   -1.7418   -0.6315 H   0  0  0  0  0  0  0  0  0  0  0  0
    2.3706    1.6995   -0.1329 N   0  0  0  0  0  0  0  0  0  0  0  0
    3.3603    2.7657    0.1292 C   0  0  2  0  0  0  0  0  0  0  0  0
    4.6523    2.3097    0.8464 C   0  0  0  0  0  0  0  0  0  0  0  0
    5.7365    2.7078    0.4388 O   0  0  0  0  0  0  0  0  0  0  0  0
    2.7207    3.9516    0.8644 C   0  0  0  0  0  0  0  0  0  0  0  0
    2.4686    1.1996   -1.0170 H   0  0  0  0  0  0  0  0  0  0  0  0
    3.6788    3.1377   -0.8494 H   0  0  0  0  0  0  0  0  0  0  0  0
    2.4811    3.6942    1.9000 H   0  0  0  0  0  0  0  0  0  0  0  0
    3.4120    4.8001    0.8765 H   0  0  0  0  0  0  0  0  0  0  0  0
    1.8010    4.2607    0.3594 H   0  0  0  0  0  0  0  0  0  0  0  0
    4.6097    1.4981    1.9621 N   0  0  0  0  0  0  0  0  0  0  0  0
    5.7832    1.0794    2.7151 C   0  0  0  0  0  0  0  0  0  0  0  0
    3.6767    1.2442    2.2969 H   0  0  0  0  0  0  0  0  0  0  0  0
    6.4753    0.5292    2.0695 H   0  0  0  0  0  0  0  0  0  0  0  0
    6.3027    1.9492    3.1299 H   0  0  0  0  0  0  0  0  0  0  0  0
    5.4876    0.4257    3.5413 H   0  0  0  0  0  0  0  0  0  0  0  0
  1  2  2  0  0  0  0
  1  3  1  0  0  0  0
  1  7  1  0  0  0  0
  3  4  1  0  0  0  0
  3  5  1  0  0  0  0
  3  6  1  0  0  0  0
  7  8  1  0  0  0  0
  7 12  1  0  0  0  0
  8  9  1  0  0  0  0
  8 11  1  0  0  0  0
  8 13  1  0  0  0  0
  9 10  2  0  0  0  0
  9 17  1  0  0  0  0
 11 14  1  0  0  0  0
 11 15  1  0  0  0  0
 11 16  1  0  0  0  0
 17 18  1  0  0  0  0
 17 25  1  0  0  0  0
 18 19  1  0  0  0  0
 18 21  1  0  0  0  0
 18 26  1  0  0  0  0
 19 20  2  0  0  0  0
 19 36  1  0  0  0  0
 21 22  1  0  0  0  0
 21 27  1  0  0  0  0
 21 28  1  0  0  0  0
 22 23  1  0  0  0  0
 22 24  1  0  0  0  0
 22 29  1  0  0  0  0
 23 30  1  0  0  0  0
 23 31  1  0  0  0  0
 23 32  1  0  0  0  0
 24 33  1  0  0  0  0
 24 34  1  0  0  0  0
 24 35  1  0  0  0  0
 36 37  1  0  0  0  0
 36 41  1  0  0  0  0
 37 38  1  0  0  0  0
 37 40  1  0  0  0  0
 37 42  1  0  0  0  0
 38 39  2  0  0  0  0
 38 46  1  0  0  0  0
 40 43  1  0  0  0  0
 40 44  1  0  0  0  0
 40 45  1  0  0  0  0
 46 47  1  0  0  0  0
 46 48  1  0  0  0  0
 47 49  1  0  0  0  0
 47 50  1  0  0  0  0
 47 51  1  0  0  0  0
M  END
$$$$

  -OEChem-05262216553D

 51 50  0     1  0  0  0  0  0999 V2000
    2.1556   -3.4656   -3.1426 C   0  0  0  0  0  0  0  0  0  0  0  0
    1.2258   -3.8170   -2.4358 O   0  0  0  0  0  0  0  0  0  0  0  0
    3.2964   -4.4279   -3.4154 C   0  0  0  0  0  0  0  0  0  0  0  0
    4.2263   -4.0303   -3.0007 H   0  0  0  0  0  0  0  0  0  0  0  0
    3.0905   -5.3974   -2.9528 H   0  0  0  0  0  0  0  0  0  0  0  0
    3.4169   -4.5713   -4.4920 H   0  0  0  0  0  0  0  0  0  0  0  0
    2.1923   -2.1964   -3.6885 N   0  0  0  0  0  0  0  0  0  0  0  0
    1.2845   -1.0973   -3.3114 C   0  0  2  0  0  0  0  0  0  0  0  0
    1.4478   -0.6769   -1.8291 C   0  0  0  0  0  0  0  0  0  0  0  0
    2.5780   -0.5009   -1.3994 O   0  0  0  0  0  0  0  0  0  0  0  0
   -0.1675   -1.4090   -3.7154 C   0  0  0  0  0  0  0  0  0  0  0  0
    3.0824   -1.9369   -4.1048 H   0  0  0  0  0  0  0  0  0  0  0  0
    1.5833   -0.2229   -3.8972 H   0  0  0  0  0  0  0  0  0  0  0  0
   -0.6007   -2.1904   -3.0850 H   0  0  0  0  0  0  0  0  0  0  0  0
   -0.7879   -0.5122   -3.6274 H   0  0  0  0  0  0  0  0  0  0  0  0
   -0.2031   -1.7480   -4.7553 H   0  0  0  0  0  0  0  0  0  0  0  0
    0.3584   -0.3375   -1.0388 N   0  0  0  0  0  0  0  0  0  0  0  0
    0.3887    0.0483    0.3937 C   0  0  2  0  0  0  0  0  0  0  0  0
    1.4901    1.0677    0.8129 C   0  0  0  0  0  0  0  0  0  0  0  0
    1.8401    1.1654    1.9834 O   0  0  0  0  0  0  0  0  0  0  0  0
    0.4146   -1.2219    1.2885 C   0  0  0  0  0  0  0  0  0  0  0  0
   -0.8433   -2.1320    1.2744 C   0  0  0  0  0  0  0  0  0  0  0  0
   -0.5340   -3.3857    2.1039 C   0  0  0  0  0  0  0  0  0  0  0  0
   -1.3384   -2.5863   -0.1045 C   0  0  0  0  0  0  0  0  0  0  0  0
   -0.5379   -0.6387   -1.4098 H   0  0  0  0  0  0  0  0  0  0  0  0
   -0.5492    0.5701    0.6055 H   0  0  0  0  0  0  0  0  0  0  0  0
    0.5681   -0.9223    2.3303 H   0  0  0  0  0  0  0  0  0  0  0  0
    1.2868   -1.8169    0.9950 H   0  0  0  0  0  0  0  0  0  0  0  0
   -1.6610   -1.5885    1.7596 H   0  0  0  0  0  0  0  0  0  0  0  0
    0.2587   -3.9756    1.6318 H   0  0  0  0  0  0  0  0  0  0  0  0
   -1.4250   -4.0143    2.1983 H   0  0  0  0  0  0  0  0  0  0  0  0
   -0.2069   -3.1073    3.1107 H   0  0  0  0  0  0  0  0  0  0  0  0
   -0.5145   -3.0058   -0.6867 H   0  0  0  0  0  0  0  0  0  0  0  0
   -2.1091   -3.3564   -0.0000 H   0  0  0  0  0  0  0  0  0  0  0  0
   -1.7840   -1.7525   -0.6525 H   0  0  0  0  0  0  0  0  0  0  0  0
    1.9409    2.0062   -0.1019 N   0  0  0  0  0  0  0  0  0  0  0  0
    2.9194    3.0892    0.1325 C   0  0  2  0  0  0  0  0  0  0  0  0
    4.3550    2.6137    0.4555 C   0  0  0  0  0  0  0  0  0  0  0  0
    5.3015    3.1198   -0.1351 O   0  0  0  0  0  0  0  0  0  0  0  0
    2.4201    4.0786    1.1947 C   0  0  0  0  0  0  0  0  0  0  0  0
    1.8406    1.6910   -1.0629 H   0  0  0  0  0  0  0  0  0  0  0  0
    2.9936    3.6483   -0.8056 H   0  0  0  0  0  0  0  0  0  0  0  0
    2.4343    3.6322    2.1931 H   0  0  0  0  0  0  0  0  0  0  0  0
    3.0630    4.9643    1.2108 H   0  0  0  0  0  0  0  0  0  0  0  0
    1.3978    4.3957    0.9685 H   0  0  0  0  0  0  0  0  0  0  0  0
    4.5932    1.6473    1.4116 N   0  0  0  0  0  0  0  0  0  0  0  0
    5.9103    1.1138    1.7254 C   0  0  0  0  0  0  0  0  0  0  0  0
    3.7660    1.2503    1.8648 H   0  0  0  0  0  0  0  0  0  0  0  0
    6.3437    0.6246    0.8469 H   0  0  0  0  0  0  0  0  0  0  0  0
    6.5810    1.9155    2.0512 H   0  0  0  0  0  0  0  0  0  0  0  0
    5.8350    0.3772    2.5308 H   0  0  0  0  0  0  0  0  0  0  0  0
  1  2  2  0  0  0  0
  1  3  1  0  0  0  0
  1  7  1  0  0  0  0
  3  4  1  0  0  0  0
  3  5  1  0  0  0  0
  3  6  1  0  0  0  0
  7  8  1  0  0  0  0
  7 12  1  0  0  0  0
  8  9  1  0  0  0  0
  8 11  1  0  0  0  0
  8 13  1  0  0  0  0
  9 10  2  0  0  0  0
  9 17  1  0  0  0  0
 11 14  1  0  0  0  0
 11 15  1  0  0  0  0
 11 16  1  0  0  0  0
 17 18  1  0  0  0  0
 17 25  1  0  0  0  0
 18 19  1  0  0  0  0
 18 21  1  0  0  0  0
 18 26  1  0  0  0  0
 19 20  2  0  0  0  0
 19 36  1  0  0  0  0
 21 22  1  0  0  0  0
 21 27  1  0  0  0  0
 21 28  1  0  0  0  0
 22 23  1  0  0  0  0
 22 24  1  0  0  0  0
 22 29  1  0  0  0  0
 23 30  1  0  0  0  0
 23 31  1  0  0  0  0
 23 32  1  0  0  0  0
 24 33  1  0  0  0  0
 24 34  1  0  0  0  0
 24 35  1  0  0  0  0
 36 37  1  0  0  0  0
 36 41  1  0  0  0  0
 37 38  1  0  0  0  0
 37 40  1  0  0  0  0
 37 42  1  0  0  0  0
 38 39  2  0  0  0  0
 38 46  1  0  0  0  0
 40 43  1  0  0  0  0
 40 44  1  0  0  0  0
 40 45  1  0  0  0  0
 46 47  1  0  0  0  0
 46 48  1  0  0  0  0
 47 49  1  0  0  0  0
 47 50  1  0  0  0  0
 47 51  1  0  0  0  0
M  END
$$$$

  -OEChem-05262216553D

 51 50  0     1  0  0  0  0  0999 V2000
    2.2995   -3.2486   -3.1460 C   0  0  0  0  0  0  0  0  0  0  0  0
    1.1991   -3.5906   -2.7460 O   0  0  0  0  0  0  0  0  0  0  0  0
    3.3955   -4.2858   -3.3046 C   0  0  0  0  0  0  0  0  0  0  0  0
    4.2166   -4.0681   -2.6170 H   0  0  0  0  0  0  0  0  0  0  0  0
    3.0065   -5.2837   -3.0830 H   0  0  0  0  0  0  0  0  0  0  0  0
    3.7746   -4.2770   -4.3294 H   0  0  0  0  0  0  0  0  0  0  0  0
    2.5709   -1.9256   -3.4378 N   0  0  0  0  0  0  0  0  0  0  0  0
    1.6977   -0.7894   -3.0914 C   0  0  2  0  0  0  0  0  0  0  0  0
    1.6096   -0.5593   -1.5631 C   0  0  0  0  0  0  0  0  0  0  0  0
    2.6542   -0.4586   -0.9367 O   0  0  0  0  0  0  0  0  0  0  0  0
    0.3280   -0.8844   -3.7881 C   0  0  0  0  0  0  0  0  0  0  0  0
    3.5548   -1.7152   -3.5834 H   0  0  0  0  0  0  0  0  0  0  0  0
    2.1787    0.1087   -3.4916 H   0  0  0  0  0  0  0  0  0  0  0  0
   -0.2971   -1.6646   -3.3445 H   0  0  0  0  0  0  0  0  0  0  0  0
   -0.2033    0.0688   -3.7073 H   0  0  0  0  0  0  0  0  0  0  0  0
    0.4619   -1.1133   -4.8500 H   0  0  0  0  0  0  0  0  0  0  0  0
    0.3979   -0.3418   -0.9193 N   0  0  0  0  0  0  0  0  0  0  0  0
    0.2252    0.0075    0.5106 C   0  0  2  0  0  0  0  0  0  0  0  0
    1.2027    1.1129    1.0003 C   0  0  0  0  0  0  0  0  0  0  0  0
    1.7844    1.0400    2.0759 O   0  0  0  0  0  0  0  0  0  0  0  0
    0.2655   -1.2531    1.4152 C   0  0  0  0  0  0  0  0  0  0  0  0
   -0.8915   -2.2749    1.2580 C   0  0  0  0  0  0  0  0  0  0  0  0
   -0.5734   -3.4972    2.1297 C   0  0  0  0  0  0  0  0  0  0  0  0
   -1.1500   -2.7718   -0.1698 C   0  0  0  0  0  0  0  0  0  0  0  0
   -0.4236   -0.6442   -1.4354 H   0  0  0  0  0  0  0  0  0  0  0  0
   -0.7704    0.4456    0.6245 H   0  0  0  0  0  0  0  0  0  0  0  0
    0.2649   -0.9328    2.4625 H   0  0  0  0  0  0  0  0  0  0  0  0
    1.2184   -1.7635    1.2356 H   0  0  0  0  0  0  0  0  0  0  0  0
   -1.8130   -1.8115    1.6269 H   0  0  0  0  0  0  0  0  0  0  0  0
    0.3254   -4.0071    1.7673 H   0  0  0  0  0  0  0  0  0  0  0  0
   -1.4060   -4.2075    2.1137 H   0  0  0  0  0  0  0  0  0  0  0  0
   -0.4059   -3.1936    3.1678 H   0  0  0  0  0  0  0  0  0  0  0  0
   -0.2161   -3.1036   -0.6304 H   0  0  0  0  0  0  0  0  0  0  0  0
   -1.8471   -3.6155   -0.1627 H   0  0  0  0  0  0  0  0  0  0  0  0
   -1.5971   -1.9854   -0.7824 H   0  0  0  0  0  0  0  0  0  0  0  0
    1.3834    2.2290    0.1972 N   0  0  0  0  0  0  0  0  0  0  0  0
    2.3836    3.3008    0.3801 C   0  0  2  0  0  0  0  0  0  0  0  0
    3.8420    2.8237    0.1980 C   0  0  0  0  0  0  0  0  0  0  0  0
    4.5473    3.3659   -0.6448 O   0  0  0  0  0  0  0  0  0  0  0  0
    2.2050    4.0400    1.7141 C   0  0  0  0  0  0  0  0  0  0  0  0
    0.9817    2.1371   -0.7300 H   0  0  0  0  0  0  0  0  0  0  0  0
    2.2028    4.0374   -0.4094 H   0  0  0  0  0  0  0  0  0  0  0  0
    2.5110    3.4178    2.5599 H   0  0  0  0  0  0  0  0  0  0  0  0
    2.8185    4.9461    1.7223 H   0  0  0  0  0  0  0  0  0  0  0  0
    1.1587    4.3277    1.8525 H   0  0  0  0  0  0  0  0  0  0  0  0
    4.3423    1.7718    0.9382 N   0  0  0  0  0  0  0  0  0  0  0  0
    5.6058    1.1159    0.6371 C   0  0  0  0  0  0  0  0  0  0  0  0
    3.6516    1.2696    1.5030 H   0  0  0  0  0  0  0  0  0  0  0  0
    5.5752    0.6719   -0.3633 H   0  0  0  0  0  0  0  0  0  0  0  0
    6.4313    1.8336    0.6819 H   0  0  0  0  0  0  0  0  0  0  0  0
    5.7994    0.3214    1.3640 H   0  0  0  0  0  0  0  0  0  0  0  0
  1  2  2  0  0  0  0
  1  3  1  0  0  0  0
  1  7  1  0  0  0  0
  3  4  1  0  0  0  0
  3  5  1  0  0  0  0
  3  6  1  0  0  0  0
  7  8  1  0  0  0  0
  7 12  1  0  0  0  0
  8  9  1  0  0  0  0
  8 11  1  0  0  0  0
  8 13  1  0  0  0  0
  9 10  2  0  0  0  0
  9 17  1  0  0  0  0
 11 14  1  0  0  0  0
 11 15  1  0  0  0  0
 11 16  1  0  0  0  0
 17 18  1  0  0  0  0
 17 25  1  0  0  0  0
 18 19  1  0  0  0  0
 18 21  1  0  0  0  0
 18 26  1  0  0  0  0
 19 20  2  0  0  0  0
 19 36  1  0  0  0  0
 21 22  1  0  0  0  0
 21 27  1  0  0  0  0
 21 28  1  0  0  0  0
 22 23  1  0  0  0  0
 22 24  1  0  0  0  0
 22 29  1  0  0  0  0
 23 30  1  0  0  0  0
 23 31  1  0  0  0  0
 23 32  1  0  0  0  0
 24 33  1  0  0  0  0
 24 34  1  0  0  0  0
 24 35  1  0  0  0  0
 36 37  1  0  0  0  0
 36 41  1  0  0  0  0
 37 38  1  0  0  0  0
 37 40  1  0  0  0  0
 37 42  1  0  0  0  0
 38 39  2  0  0  0  0
 38 46  1  0  0  0  0
 40 43  1  0  0  0  0
 40 44  1  0  0  0  0
 40 45  1  0  0  0  0
 46 47  1  0  0  0  0
 46 48  1  0  0  0  0
 47 49  1  0  0  0  0
 47 50  1  0  0  0  0
 47 51  1  0  0  0  0
M  END
$$$$

  -OEChem-05262216553D

 51 50  0     1  0  0  0  0  0999 V2000
    2.5200   -3.1996   -2.9636 C   0  0  0  0  0  0  0  0  0  0  0  0
    1.5080   -3.6366   -2.4410 O   0  0  0  0  0  0  0  0  0  0  0  0
    3.7381   -4.0931   -3.1002 C   0  0  0  0  0  0  0  0  0  0  0  0
    4.5746   -3.6720   -2.5366 H   0  0  0  0  0  0  0  0  0  0  0  0
    3.5198   -5.0914   -2.7110 H   0  0  0  0  0  0  0  0  0  0  0  0
    4.0217   -4.1808   -4.1515 H   0  0  0  0  0  0  0  0  0  0  0  0
    2.5824   -1.8963   -3.4202 N   0  0  0  0  0  0  0  0  0  0  0  0
    1.5900   -0.8523   -3.1052 C   0  0  2  0  0  0  0  0  0  0  0  0
    1.5543   -0.5115   -1.5947 C   0  0  0  0  0  0  0  0  0  0  0  0
    2.6190   -0.3376   -1.0195 O   0  0  0  0  0  0  0  0  0  0  0  0
    0.2110   -1.1859   -3.7027 C   0  0  0  0  0  0  0  0  0  0  0  0
    3.5168   -1.5775   -3.6616 H   0  0  0  0  0  0  0  0  0  0  0  0
    1.9244    0.0637   -3.6018 H   0  0  0  0  0  0  0  0  0  0  0  0
   -0.2710   -2.0085   -3.1670 H   0  0  0  0  0  0  0  0  0  0  0  0
   -0.4457   -0.3122   -3.6538 H   0  0  0  0  0  0  0  0  0  0  0  0
    0.3170   -1.4757   -4.7526 H   0  0  0  0  0  0  0  0  0  0  0  0
    0.3573   -0.2758   -0.9296 N   0  0  0  0  0  0  0  0  0  0  0  0
    0.2129    0.0427    0.5092 C   0  0  2  0  0  0  0  0  0  0  0  0
    1.2246    1.1046    1.0200 C   0  0  0  0  0  0  0  0  0  0  0  0
    1.9653    0.8962    1.9736 O   0  0  0  0  0  0  0  0  0  0  0  0
    0.2308   -1.2438    1.3746 C   0  0  0  0  0  0  0  0  0  0  0  0
   -0.9553   -2.2299    1.2061 C   0  0  0  0  0  0  0  0  0  0  0  0
   -0.6559   -3.4849    2.0367 C   0  0  0  0  0  0  0  0  0  0  0  0
   -1.2629   -2.6736   -0.2296 C   0  0  0  0  0  0  0  0  0  0  0  0
   -0.4675   -0.6175   -1.4140 H   0  0  0  0  0  0  0  0  0  0  0  0
   -0.7700    0.5012    0.6489 H   0  0  0  0  0  0  0  0  0  0  0  0
    0.2584   -0.9526    2.4303 H   0  0  0  0  0  0  0  0  0  0  0  0
    1.1660   -1.7744    1.1629 H   0  0  0  0  0  0  0  0  0  0  0  0
   -1.8551   -1.7533    1.6091 H   0  0  0  0  0  0  0  0  0  0  0  0
    0.2190   -4.0104    1.6401 H   0  0  0  0  0  0  0  0  0  0  0  0
   -1.5091   -4.1703    2.0189 H   0  0  0  0  0  0  0  0  0  0  0  0
   -0.4568   -3.2163    3.0789 H   0  0  0  0  0  0  0  0  0  0  0  0
   -0.3521   -3.0166   -0.7265 H   0  0  0  0  0  0  0  0  0  0  0  0
   -1.9836   -3.4975   -0.2293 H   0  0  0  0  0  0  0  0  0  0  0  0
   -1.7038   -1.8553   -0.8040 H   0  0  0  0  0  0  0  0  0  0  0  0
    1.2018    2.3591    0.4301 N   0  0  0  0  0  0  0  0  0  0  0  0
    2.1436    3.4702    0.6798 C   0  0  2  0  0  0  0  0  0  0  0  0
    3.5932    3.1751    0.2311 C   0  0  0  0  0  0  0  0  0  0  0  0
    4.1424    3.9414   -0.5517 O   0  0  0  0  0  0  0  0  0  0  0  0
    2.1017    3.9446    2.1398 C   0  0  0  0  0  0  0  0  0  0  0  0
    0.6569    2.4078   -0.4248 H   0  0  0  0  0  0  0  0  0  0  0  0
    1.8035    4.3134    0.0700 H   0  0  0  0  0  0  0  0  0  0  0  0
    2.5550    3.2107    2.8123 H   0  0  0  0  0  0  0  0  0  0  0  0
    2.6552    4.8831    2.2425 H   0  0  0  0  0  0  0  0  0  0  0  0
    1.0680    4.1150    2.4547 H   0  0  0  0  0  0  0  0  0  0  0  0
    4.2586    2.0450    0.6611 N   0  0  0  0  0  0  0  0  0  0  0  0
    5.5249    1.5975    0.1018 C   0  0  0  0  0  0  0  0  0  0  0  0
    3.6897    1.3725    1.1838 H   0  0  0  0  0  0  0  0  0  0  0  0
    5.4026    1.3348   -0.9539 H   0  0  0  0  0  0  0  0  0  0  0  0
    6.2823    2.3836    0.1874 H   0  0  0  0  0  0  0  0  0  0  0  0
    5.8817    0.7148    0.6410 H   0  0  0  0  0  0  0  0  0  0  0  0
  1  2  2  0  0  0  0
  1  3  1  0  0  0  0
  1  7  1  0  0  0  0
  3  4  1  0  0  0  0
  3  5  1  0  0  0  0
  3  6  1  0  0  0  0
  7  8  1  0  0  0  0
  7 12  1  0  0  0  0
  8  9  1  0  0  0  0
  8 11  1  0  0  0  0
  8 13  1  0  0  0  0
  9 10  2  0  0  0  0
  9 17  1  0  0  0  0
 11 14  1  0  0  0  0
 11 15  1  0  0  0  0
 11 16  1  0  0  0  0
 17 18  1  0  0  0  0
 17 25  1  0  0  0  0
 18 19  1  0  0  0  0
 18 21  1  0  0  0  0
 18 26  1  0  0  0  0
 19 20  2  0  0  0  0
 19 36  1  0  0  0  0
 21 22  1  0  0  0  0
 21 27  1  0  0  0  0
 21 28  1  0  0  0  0
 22 23  1  0  0  0  0
 22 24  1  0  0  0  0
 22 29  1  0  0  0  0
 23 30  1  0  0  0  0
 23 31  1  0  0  0  0
 23 32  1  0  0  0  0
 24 33  1  0  0  0  0
 24 34  1  0  0  0  0
 24 35  1  0  0  0  0
 36 37  1  0  0  0  0
 36 41  1  0  0  0  0
 37 38  1  0  0  0  0
 37 40  1  0  0  0  0
 37 42  1  0  0  0  0
 38 39  2  0  0  0  0
 38 46  1  0  0  0  0
 40 43  1  0  0  0  0
 40 44  1  0  0  0  0
 40 45  1  0  0  0  0
 46 47  1  0  0  0  0
 46 48  1  0  0  0  0
 47 49  1  0  0  0  0
 47 50  1  0  0  0  0
 47 51  1  0  0  0  0
M  END
$$$$

  -OEChem-05262216553D

 51 50  0     1  0  0  0  0  0999 V2000
    2.5706   -3.1150   -2.9549 C   0  0  0  0  0  0  0  0  0  0  0  0
    1.5704   -3.5799   -2.4336 O   0  0  0  0  0  0  0  0  0  0  0  0
    3.8180   -3.9689   -3.0771 C   0  0  0  0  0  0  0  0  0  0  0  0
    4.6363   -3.5126   -2.5144 H   0  0  0  0  0  0  0  0  0  0  0  0
    3.6305   -4.9693   -2.6769 H   0  0  0  0  0  0  0  0  0  0  0  0
    4.1100   -4.0584   -4.1260 H   0  0  0  0  0  0  0  0  0  0  0  0
    2.5959   -1.8118   -3.4147 N   0  0  0  0  0  0  0  0  0  0  0  0
    1.5818   -0.7946   -3.0815 C   0  0  2  0  0  0  0  0  0  0  0  0
    1.5494   -0.4751   -1.5659 C   0  0  0  0  0  0  0  0  0  0  0  0
    2.6172   -0.3022   -0.9963 O   0  0  0  0  0  0  0  0  0  0  0  0
    0.2084   -1.1545   -3.6767 C   0  0  0  0  0  0  0  0  0  0  0  0
    3.5223   -1.4675   -3.6507 H   0  0  0  0  0  0  0  0  0  0  0  0
    1.8915    0.1355   -3.5683 H   0  0  0  0  0  0  0  0  0  0  0  0
   -0.2510   -1.9939   -3.1476 H   0  0  0  0  0  0  0  0  0  0  0  0
   -0.4690   -0.2976   -3.6168 H   0  0  0  0  0  0  0  0  0  0  0  0
    0.3172   -1.4306   -4.7301 H   0  0  0  0  0  0  0  0  0  0  0  0
    0.3531   -0.2410   -0.8995 N   0  0  0  0  0  0  0  0  0  0  0  0
    0.1996    0.0477    0.5443 C   0  0  2  0  0  0  0  0  0  0  0  0
    1.2166    1.0864    1.0887 C   0  0  0  0  0  0  0  0  0  0  0  0
    2.0967    0.7768    1.8824 O   0  0  0  0  0  0  0  0  0  0  0  0
    0.2123   -1.2531    1.3886 C   0  0  0  0  0  0  0  0  0  0  0  0
   -0.9705   -2.2385    1.1985 C   0  0  0  0  0  0  0  0  0  0  0  0
   -0.6729   -3.5053    2.0119 C   0  0  0  0  0  0  0  0  0  0  0  0
   -1.2624   -2.6624   -0.2464 C   0  0  0  0  0  0  0  0  0  0  0  0
   -0.4716   -0.5651   -1.3955 H   0  0  0  0  0  0  0  0  0  0  0  0
   -0.7833    0.5045    0.6876 H   0  0  0  0  0  0  0  0  0  0  0  0
    0.2380   -0.9764    2.4482 H   0  0  0  0  0  0  0  0  0  0  0  0
    1.1487   -1.7804    1.1721 H   0  0  0  0  0  0  0  0  0  0  0  0
   -1.8749   -1.7704    1.6012 H   0  0  0  0  0  0  0  0  0  0  0  0
    0.2128   -4.0169    1.6207 H   0  0  0  0  0  0  0  0  0  0  0  0
   -1.5197   -4.1976    1.9692 H   0  0  0  0  0  0  0  0  0  0  0  0
   -0.4924   -3.2529    3.0616 H   0  0  0  0  0  0  0  0  0  0  0  0
   -0.3462   -2.9998   -0.7380 H   0  0  0  0  0  0  0  0  0  0  0  0
   -1.9835   -3.4857   -0.2649 H   0  0  0  0  0  0  0  0  0  0  0  0
   -1.6961   -1.8362   -0.8147 H   0  0  0  0  0  0  0  0  0  0  0  0
    1.0260    2.4234    0.7748 N   0  0  0  0  0  0  0  0  0  0  0  0
    1.9471    3.5365    1.0901 C   0  0  2  0  0  0  0  0  0  0  0  0
    3.3228    3.4357    0.3891 C   0  0  0  0  0  0  0  0  0  0  0  0
    3.7372    4.3951   -0.2499 O   0  0  0  0  0  0  0  0  0  0  0  0
    2.1126    3.7357    2.6037 C   0  0  0  0  0  0  0  0  0  0  0  0
    0.3399    2.5940    0.0467 H   0  0  0  0  0  0  0  0  0  0  0  0
    1.4786    4.4486    0.7068 H   0  0  0  0  0  0  0  0  0  0  0  0
    2.7056    2.9324    3.0503 H   0  0  0  0  0  0  0  0  0  0  0  0
    2.6246    4.6825    2.8014 H   0  0  0  0  0  0  0  0  0  0  0  0
    1.1347    3.7617    3.0932 H   0  0  0  0  0  0  0  0  0  0  0  0
    4.0662    2.2732    0.4240 N   0  0  0  0  0  0  0  0  0  0  0  0
    5.2739    2.0539   -0.3567 C   0  0  0  0  0  0  0  0  0  0  0  0
    3.6185    1.4677    0.8729 H   0  0  0  0  0  0  0  0  0  0  0  0
    6.0402    2.7904   -0.0945 H   0  0  0  0  0  0  0  0  0  0  0  0
    5.6709    1.0543   -0.1561 H   0  0  0  0  0  0  0  0  0  0  0  0
    5.0569    2.1320   -1.4267 H   0  0  0  0  0  0  0  0  0  0  0  0
  1  2  2  0  0  0  0
  1  3  1  0  0  0  0
  1  7  1  0  0  0  0
  3  4  1  0  0  0  0
  3  5  1  0  0  0  0
  3  6  1  0  0  0  0
  7  8  1  0  0  0  0
  7 12  1  0  0  0  0
  8  9  1  0  0  0  0
  8 11  1  0  0  0  0
  8 13  1  0  0  0  0
  9 10  2  0  0  0  0
  9 17  1  0  0  0  0
 11 14  1  0  0  0  0
 11 15  1  0  0  0  0
 11 16  1  0  0  0  0
 17 18  1  0  0  0  0
 17 25  1  0  0  0  0
 18 19  1  0  0  0  0
 18 21  1  0  0  0  0
 18 26  1  0  0  0  0
 19 20  2  0  0  0  0
 19 36  1  0  0  0  0
 21 22  1  0  0  0  0
 21 27  1  0  0  0  0
 21 28  1  0  0  0  0
 22 23  1  0  0  0  0
 22 24  1  0  0  0  0
 22 29  1  0  0  0  0
 23 30  1  0  0  0  0
 23 31  1  0  0  0  0
 23 32  1  0  0  0  0
 24 33  1  0  0  0  0
 24 34  1  0  0  0  0
 24 35  1  0  0  0  0
 36 37  1  0  0  0  0
 36 41  1  0  0  0  0
 37 38  1  0  0  0  0
 37 40  1  0  0  0  0
 37 42  1  0  0  0  0
 38 39  2  0  0  0  0
 38 46  1  0  0  0  0
 40 43  1  0  0  0  0
 40 44  1  0  0  0  0
 40 45  1  0  0  0  0
 46 47  1  0  0  0  0
 46 48  1  0  0  0  0
 47 49  1  0  0  0  0
 47 50  1  0  0  0  0
 47 51  1  0  0  0  0
M  END
$$$$

  -OEChem-05262216553D

 51 50  0     1  0  0  0  0  0999 V2000
    2.5618   -3.1159   -2.9645 C   0  0  0  0  0  0  0  0  0  0  0  0
    1.5540   -3.5790   -2.4565 O   0  0  0  0  0  0  0  0  0  0  0  0
    3.8045   -3.9780   -3.0826 C   0  0  0  0  0  0  0  0  0  0  0  0
    4.5855   -3.5941   -2.4214 H   0  0  0  0  0  0  0  0  0  0  0  0
    3.5772   -5.0093   -2.7979 H   0  0  0  0  0  0  0  0  0  0  0  0
    4.1709   -3.9701   -4.1119 H   0  0  0  0  0  0  0  0  0  0  0  0
    2.6019   -1.8089   -3.4124 N   0  0  0  0  0  0  0  0  0  0  0  0
    1.5968   -0.7826   -3.0790 C   0  0  2  0  0  0  0  0  0  0  0  0
    1.5773   -0.4549   -1.5652 C   0  0  0  0  0  0  0  0  0  0  0  0
    2.6512   -0.2636   -1.0150 O   0  0  0  0  0  0  0  0  0  0  0  0
    0.2157   -1.1290   -3.6653 C   0  0  0  0  0  0  0  0  0  0  0  0
    3.5345   -1.4715   -3.6339 H   0  0  0  0  0  0  0  0  0  0  0  0
    1.9126    0.1424   -3.5713 H   0  0  0  0  0  0  0  0  0  0  0  0
   -0.2525   -1.9590   -3.1295 H   0  0  0  0  0  0  0  0  0  0  0  0
   -0.4499   -0.2626   -3.6065 H   0  0  0  0  0  0  0  0  0  0  0  0
    0.3150   -1.4127   -4.7176 H   0  0  0  0  0  0  0  0  0  0  0  0
    0.3849   -0.2245   -0.8907 N   0  0  0  0  0  0  0  0  0  0  0  0
    0.2252    0.0467    0.5563 C   0  0  2  0  0  0  0  0  0  0  0  0
    1.2343    1.0727    1.1374 C   0  0  0  0  0  0  0  0  0  0  0  0
    2.2205    0.7181    1.7710 O   0  0  0  0  0  0  0  0  0  0  0  0
    0.2289   -1.2612    1.3875 C   0  0  0  0  0  0  0  0  0  0  0  0
   -0.9574   -2.2393    1.1814 C   0  0  0  0  0  0  0  0  0  0  0  0
   -0.6696   -3.5154    1.9833 C   0  0  0  0  0  0  0  0  0  0  0  0
   -1.2455   -2.6451   -0.2692 C   0  0  0  0  0  0  0  0  0  0  0  0
   -0.4388   -0.5478   -1.3882 H   0  0  0  0  0  0  0  0  0  0  0  0
   -0.7608    0.4983    0.6953 H   0  0  0  0  0  0  0  0  0  0  0  0
    0.2557   -0.9948    2.4498 H   0  0  0  0  0  0  0  0  0  0  0  0
    1.1626   -1.7914    1.1666 H   0  0  0  0  0  0  0  0  0  0  0  0
   -1.8615   -1.7713    1.5852 H   0  0  0  0  0  0  0  0  0  0  0  0
    0.2124   -4.0299    1.5877 H   0  0  0  0  0  0  0  0  0  0  0  0
   -1.5216   -4.2007    1.9346 H   0  0  0  0  0  0  0  0  0  0  0  0
   -0.4876   -3.2736    3.0351 H   0  0  0  0  0  0  0  0  0  0  0  0
   -0.3292   -2.9824   -0.7600 H   0  0  0  0  0  0  0  0  0  0  0  0
   -1.9719   -3.4633   -0.3012 H   0  0  0  0  0  0  0  0  0  0  0  0
   -1.6712   -1.8097   -0.8301 H   0  0  0  0  0  0  0  0  0  0  0  0
    0.8979    2.4181    1.1275 N   0  0  0  0  0  0  0  0  0  0  0  0
    1.7765    3.5377    1.5308 C   0  0  2  0  0  0  0  0  0  0  0  0
    3.0489    3.6868    0.6620 C   0  0  0  0  0  0  0  0  0  0  0  0
    3.3219    4.7836    0.1903 O   0  0  0  0  0  0  0  0  0  0  0  0
    2.1308    3.4842    3.0240 C   0  0  0  0  0  0  0  0  0  0  0  0
    0.0981    2.6553    0.5494 H   0  0  0  0  0  0  0  0  0  0  0  0
    1.2002    4.4564    1.3818 H   0  0  0  0  0  0  0  0  0  0  0  0
    2.8306    2.6720    3.2399 H   0  0  0  0  0  0  0  0  0  0  0  0
    2.6006    4.4242    3.3296 H   0  0  0  0  0  0  0  0  0  0  0  0
    1.2279    3.3367    3.6238 H   0  0  0  0  0  0  0  0  0  0  0  0
    3.8496    2.6038    0.3567 N   0  0  0  0  0  0  0  0  0  0  0  0
    4.9819    2.6533   -0.5552 C   0  0  0  0  0  0  0  0  0  0  0  0
    3.5457    1.6941    0.7202 H   0  0  0  0  0  0  0  0  0  0  0  0
    5.7437    3.3457   -0.1830 H   0  0  0  0  0  0  0  0  0  0  0  0
    5.4309    1.6595   -0.6475 H   0  0  0  0  0  0  0  0  0  0  0  0
    4.6592    2.9812   -1.5485 H   0  0  0  0  0  0  0  0  0  0  0  0
  1  2  2  0  0  0  0
  1  3  1  0  0  0  0
  1  7  1  0  0  0  0
  3  4  1  0  0  0  0
  3  5  1  0  0  0  0
  3  6  1  0  0  0  0
  7  8  1  0  0  0  0
  7 12  1  0  0  0  0
  8  9  1  0  0  0  0
  8 11  1  0  0  0  0
  8 13  1  0  0  0  0
  9 10  2  0  0  0  0
  9 17  1  0  0  0  0
 11 14  1  0  0  0  0
 11 15  1  0  0  0  0
 11 16  1  0  0  0  0
 17 18  1  0  0  0  0
 17 25  1  0  0  0  0
 18 19  1  0  0  0  0
 18 21  1  0  0  0  0
 18 26  1  0  0  0  0
 19 20  2  0  0  0  0
 19 36  1  0  0  0  0
 21 22  1  0  0  0  0
 21 27  1  0  0  0  0
 21 28  1  0  0  0  0
 22 23  1  0  0  0  0
 22 24  1  0  0  0  0
 22 29  1  0  0  0  0
 23 30  1  0  0  0  0
 23 31  1  0  0  0  0
 23 32  1  0  0  0  0
 24 33  1  0  0  0  0
 24 34  1  0  0  0  0
 24 35  1  0  0  0  0
 36 37  1  0  0  0  0
 36 41  1  0  0  0  0
 37 38  1  0  0  0  0
 37 40  1  0  0  0  0
 37 42  1  0  0  0  0
 38 39  2  0  0  0  0
 38 46  1  0  0  0  0
 40 43  1  0  0  0  0
 40 44  1  0  0  0  0
 40 45  1  0  0  0  0
 46 47  1  0  0  0  0
 46 48  1  0  0  0  0
 47 49  1  0  0  0  0
 47 50  1  0  0  0  0
 47 51  1  0  0  0  0
M  END
$$$$

  -OEChem-05262216553D

 51 50  0     1  0  0  0  0  0999 V2000
    2.4765   -3.1512   -3.0713 C   0  0  0  0  0  0  0  0  0  0  0  0
    1.4652   -3.6070   -2.5634 O   0  0  0  0  0  0  0  0  0  0  0  0
    3.7071   -4.0284   -3.2052 C   0  0  0  0  0  0  0  0  0  0  0  0
    4.5193   -3.6256   -2.5944 H   0  0  0  0  0  0  0  0  0  0  0  0
    3.4840   -5.0445   -2.8680 H   0  0  0  0  0  0  0  0  0  0  0  0
    4.0285   -4.0671   -4.2486 H   0  0  0  0  0  0  0  0  0  0  0  0
    2.5319   -1.8408   -3.5075 N   0  0  0  0  0  0  0  0  0  0  0  0
    1.5493   -0.8009   -3.1492 C   0  0  2  0  0  0  0  0  0  0  0  0
    1.5752   -0.4747   -1.6347 C   0  0  0  0  0  0  0  0  0  0  0  0
    2.6672   -0.3003   -1.1181 O   0  0  0  0  0  0  0  0  0  0  0  0
    0.1483   -1.1216   -3.7019 C   0  0  0  0  0  0  0  0  0  0  0  0
    3.4696   -1.5151   -3.7258 H   0  0  0  0  0  0  0  0  0  0  0  0
    1.8673    0.1193   -3.6488 H   0  0  0  0  0  0  0  0  0  0  0  0
   -0.3241   -1.9401   -3.1524 H   0  0  0  0  0  0  0  0  0  0  0  0
   -0.4976   -0.2414   -3.6308 H   0  0  0  0  0  0  0  0  0  0  0  0
    0.2175   -1.4100   -4.7552 H   0  0  0  0  0  0  0  0  0  0  0  0
    0.4043   -0.2303   -0.9289 N   0  0  0  0  0  0  0  0  0  0  0  0
    0.2675    0.0511    0.5194 C   0  0  2  0  0  0  0  0  0  0  0  0
    1.2791    1.0718    1.1096 C   0  0  0  0  0  0  0  0  0  0  0  0
    2.3502    0.7151    1.5835 O   0  0  0  0  0  0  0  0  0  0  0  0
    0.2803   -1.2502    1.3603 C   0  0  0  0  0  0  0  0  0  0  0  0
   -0.9109   -2.2271    1.1805 C   0  0  0  0  0  0  0  0  0  0  0  0
   -0.6157   -3.4985    1.9873 C   0  0  0  0  0  0  0  0  0  0  0  0
   -1.2194   -2.6423   -0.2629 C   0  0  0  0  0  0  0  0  0  0  0  0
   -0.4347   -0.5320   -1.4138 H   0  0  0  0  0  0  0  0  0  0  0  0
   -0.7179    0.5022    0.6623 H   0  0  0  0  0  0  0  0  0  0  0  0
    0.3233   -0.9747    2.4199 H   0  0  0  0  0  0  0  0  0  0  0  0
    1.2100   -1.7839    1.1311 H   0  0  0  0  0  0  0  0  0  0  0  0
   -1.8081   -1.7540    1.5939 H   0  0  0  0  0  0  0  0  0  0  0  0
    0.2602   -4.0170    1.5832 H   0  0  0  0  0  0  0  0  0  0  0  0
   -1.4699   -4.1821    1.9528 H   0  0  0  0  0  0  0  0  0  0  0  0
   -0.4202   -3.2512    3.0354 H   0  0  0  0  0  0  0  0  0  0  0  0
   -0.3085   -2.9779   -0.7649 H   0  0  0  0  0  0  0  0  0  0  0  0
   -1.9420   -3.4641   -0.2794 H   0  0  0  0  0  0  0  0  0  0  0  0
   -1.6569   -1.8117   -0.8219 H   0  0  0  0  0  0  0  0  0  0  0  0
    0.8389    2.3552    1.4007 N   0  0  0  0  0  0  0  0  0  0  0  0
    1.6496    3.4521    1.9736 C   0  0  2  0  0  0  0  0  0  0  0  0
    2.8384    3.8934    1.0861 C   0  0  0  0  0  0  0  0  0  0  0  0
    2.9585    5.0773    0.7970 O   0  0  0  0  0  0  0  0  0  0  0  0
    2.1147    3.1329    3.4023 C   0  0  0  0  0  0  0  0  0  0  0  0
   -0.0482    2.6158    0.9824 H   0  0  0  0  0  0  0  0  0  0  0  0
    0.9905    4.3228    2.0490 H   0  0  0  0  0  0  0  0  0  0  0  0
    2.8935    2.3648    3.4079 H   0  0  0  0  0  0  0  0  0  0  0  0
    2.5257    4.0324    3.8711 H   0  0  0  0  0  0  0  0  0  0  0  0
    1.2736    2.7801    4.0062 H   0  0  0  0  0  0  0  0  0  0  0  0
    3.7367    2.9789    0.5724 N   0  0  0  0  0  0  0  0  0  0  0  0
    4.8188    3.3158   -0.3401 C   0  0  0  0  0  0  0  0  0  0  0  0
    3.5635    1.9937    0.7998 H   0  0  0  0  0  0  0  0  0  0  0  0
    5.5122    4.0197    0.1313 H   0  0  0  0  0  0  0  0  0  0  0  0
    5.3734    2.4127   -0.6124 H   0  0  0  0  0  0  0  0  0  0  0  0
    4.4218    3.7678   -1.2547 H   0  0  0  0  0  0  0  0  0  0  0  0
  1  2  2  0  0  0  0
  1  3  1  0  0  0  0
  1  7  1  0  0  0  0
  3  4  1  0  0  0  0
  3  5  1  0  0  0  0
  3  6  1  0  0  0  0
  7  8  1  0  0  0  0
  7 12  1  0  0  0  0
  8  9  1  0  0  0  0
  8 11  1  0  0  0  0
  8 13  1  0  0  0  0
  9 10  2  0  0  0  0
  9 17  1  0  0  0  0
 11 14  1  0  0  0  0
 11 15  1  0  0  0  0
 11 16  1  0  0  0  0
 17 18  1  0  0  0  0
 17 25  1  0  0  0  0
 18 19  1  0  0  0  0
 18 21  1  0  0  0  0
 18 26  1  0  0  0  0
 19 20  2  0  0  0  0
 19 36  1  0  0  0  0
 21 22  1  0  0  0  0
 21 27  1  0  0  0  0
 21 28  1  0  0  0  0
 22 23  1  0  0  0  0
 22 24  1  0  0  0  0
 22 29  1  0  0  0  0
 23 30  1  0  0  0  0
 23 31  1  0  0  0  0
 23 32  1  0  0  0  0
 24 33  1  0  0  0  0
 24 34  1  0  0  0  0
 24 35  1  0  0  0  0
 36 37  1  0  0  0  0
 36 41  1  0  0  0  0
 37 38  1  0  0  0  0
 37 40  1  0  0  0  0
 37 42  1  0  0  0  0
 38 39  2  0  0  0  0
 38 46  1  0  0  0  0
 40 43  1  0  0  0  0
 40 44  1  0  0  0  0
 40 45  1  0  0  0  0
 46 47  1  0  0  0  0
 46 48  1  0  0  0  0
 47 49  1  0  0  0  0
 47 50  1  0  0  0  0
 47 51  1  0  0  0  0
M  END
$$$$

  -OEChem-05262216553D

 51 50  0     1  0  0  0  0  0999 V2000
    0.8400   -2.5289   -3.5224 C   0  0  0  0  0  0  0  0  0  0  0  0
    0.0659   -1.6260   -3.2421 O   0  0  0  0  0  0  0  0  0  0  0  0
    0.3012   -3.8185   -4.1116 C   0  0  0  0  0  0  0  0  0  0  0  0
    0.4375   -4.6388   -3.4024 H   0  0  0  0  0  0  0  0  0  0  0  0
   -0.7655   -3.7166   -4.3308 H   0  0  0  0  0  0  0  0  0  0  0  0
    0.8283   -4.0559   -5.0389 H   0  0  0  0  0  0  0  0  0  0  0  0
    2.1903   -2.4206   -3.2454 N   0  0  0  0  0  0  0  0  0  0  0  0
    2.8930   -1.2583   -2.6593 C   0  0  2  0  0  0  0  0  0  0  0  0
    2.5423   -0.9601   -1.1831 C   0  0  0  0  0  0  0  0  0  0  0  0
    3.4534   -0.8939   -0.3762 O   0  0  0  0  0  0  0  0  0  0  0  0
    2.7111   -0.0027   -3.5240 C   0  0  0  0  0  0  0  0  0  0  0  0
    2.7517   -3.2411   -3.4576 H   0  0  0  0  0  0  0  0  0  0  0  0
    3.9619   -1.4970   -2.6715 H   0  0  0  0  0  0  0  0  0  0  0  0
    1.6807    0.3619   -3.4865 H   0  0  0  0  0  0  0  0  0  0  0  0
    3.3670    0.7964   -3.1640 H   0  0  0  0  0  0  0  0  0  0  0  0
    2.9678   -0.2170   -4.5656 H   0  0  0  0  0  0  0  0  0  0  0  0
    1.2196   -0.8621   -0.7882 N   0  0  0  0  0  0  0  0  0  0  0  0
    0.6689   -0.3713    0.4908 C   0  0  2  0  0  0  0  0  0  0  0  0
    1.2768    0.9465    1.0440 C   0  0  0  0  0  0  0  0  0  0  0  0
    2.3989    1.0130    1.5238 O   0  0  0  0  0  0  0  0  0  0  0  0
    0.7621   -1.4564    1.5919 C   0  0  0  0  0  0  0  0  0  0  0  0
   -0.0995   -2.7331    1.4076 C   0  0  0  0  0  0  0  0  0  0  0  0
    0.2617   -3.7195    2.5259 C   0  0  0  0  0  0  0  0  0  0  0  0
    0.0713   -3.4568    0.0645 C   0  0  0  0  0  0  0  0  0  0  0  0
    0.5592   -0.9911   -1.5594 H   0  0  0  0  0  0  0  0  0  0  0  0
   -0.3932   -0.1747    0.3229 H   0  0  0  0  0  0  0  0  0  0  0  0
    0.4779   -1.0015    2.5470 H   0  0  0  0  0  0  0  0  0  0  0  0
    1.8138   -1.7520    1.6811 H   0  0  0  0  0  0  0  0  0  0  0  0
   -1.1540   -2.4565    1.5112 H   0  0  0  0  0  0  0  0  0  0  0  0
    1.3036   -4.0434    2.4344 H   0  0  0  0  0  0  0  0  0  0  0  0
   -0.3823   -4.6034    2.4818 H   0  0  0  0  0  0  0  0  0  0  0  0
    0.1291   -3.2508    3.5061 H   0  0  0  0  0  0  0  0  0  0  0  0
    1.1318   -3.6077   -0.1605 H   0  0  0  0  0  0  0  0  0  0  0  0
   -0.4194   -4.4346    0.0901 H   0  0  0  0  0  0  0  0  0  0  0  0
   -0.3896   -2.8817   -0.7423 H   0  0  0  0  0  0  0  0  0  0  0  0
    0.4277    2.0290    1.2277 N   0  0  0  0  0  0  0  0  0  0  0  0
    0.7524    3.3241    1.8642 C   0  0  2  0  0  0  0  0  0  0  0  0
    1.8093    4.1723    1.1174 C   0  0  0  0  0  0  0  0  0  0  0  0
    1.5526    5.3372    0.8403 O   0  0  0  0  0  0  0  0  0  0  0  0
    1.1395    3.1404    3.3388 C   0  0  0  0  0  0  0  0  0  0  0  0
   -0.4960    1.9389    0.8162 H   0  0  0  0  0  0  0  0  0  0  0  0
   -0.1676    3.9176    1.8540 H   0  0  0  0  0  0  0  0  0  0  0  0
    2.1173    2.6602    3.4377 H   0  0  0  0  0  0  0  0  0  0  0  0
    1.1887    4.1138    3.8365 H   0  0  0  0  0  0  0  0  0  0  0  0
    0.3957    2.5252    3.8535 H   0  0  0  0  0  0  0  0  0  0  0  0
    3.0323    3.6469    0.7518 N   0  0  0  0  0  0  0  0  0  0  0  0
    4.0730    4.3933    0.0597 C   0  0  0  0  0  0  0  0  0  0  0  0
    3.1934    2.6641    0.9966 H   0  0  0  0  0  0  0  0  0  0  0  0
    4.3840    5.2577    0.6554 H   0  0  0  0  0  0  0  0  0  0  0  0
    4.9459    3.7546   -0.1060 H   0  0  0  0  0  0  0  0  0  0  0  0
    3.7112    4.7451   -0.9120 H   0  0  0  0  0  0  0  0  0  0  0  0
  1  2  2  0  0  0  0
  1  3  1  0  0  0  0
  1  7  1  0  0  0  0
  3  4  1  0  0  0  0
  3  5  1  0  0  0  0
  3  6  1  0  0  0  0
  7  8  1  0  0  0  0
  7 12  1  0  0  0  0
  8  9  1  0  0  0  0
  8 11  1  0  0  0  0
  8 13  1  0  0  0  0
  9 10  2  0  0  0  0
  9 17  1  0  0  0  0
 11 14  1  0  0  0  0
 11 15  1  0  0  0  0
 11 16  1  0  0  0  0
 17 18  1  0  0  0  0
 17 25  1  0  0  0  0
 18 19  1  0  0  0  0
 18 21  1  0  0  0  0
 18 26  1  0  0  0  0
 19 20  2  0  0  0  0
 19 36  1  0  0  0  0
 21 22  1  0  0  0  0
 21 27  1  0  0  0  0
 21 28  1  0  0  0  0
 22 23  1  0  0  0  0
 22 24  1  0  0  0  0
 22 29  1  0  0  0  0
 23 30  1  0  0  0  0
 23 31  1  0  0  0  0
 23 32  1  0  0  0  0
 24 33  1  0  0  0  0
 24 34  1  0  0  0  0
 24 35  1  0  0  0  0
 36 37  1  0  0  0  0
 36 41  1  0  0  0  0
 37 38  1  0  0  0  0
 37 40  1  0  0  0  0
 37 42  1  0  0  0  0
 38 39  2  0  0  0  0
 38 46  1  0  0  0  0
 40 43  1  0  0  0  0
 40 44  1  0  0  0  0
 40 45  1  0  0  0  0
 46 47  1  0  0  0  0
 46 48  1  0  0  0  0
 47 49  1  0  0  0  0
 47 50  1  0  0  0  0
 47 51  1  0  0  0  0
M  END
$$$$

  -OEChem-05262216553D

 51 50  0     1  0  0  0  0  0999 V2000
    1.3005   -1.9205   -3.6730 C   0  0  0  0  0  0  0  0  0  0  0  0
    0.5268   -1.0823   -3.2351 O   0  0  0  0  0  0  0  0  0  0  0  0
    0.8414   -2.8651   -4.7675 C   0  0  0  0  0  0  0  0  0  0  0  0
    0.8677   -3.8960   -4.4059 H   0  0  0  0  0  0  0  0  0  0  0  0
   -0.1817   -2.6247   -5.0709 H   0  0  0  0  0  0  0  0  0  0  0  0
    1.4958   -2.7750   -5.6381 H   0  0  0  0  0  0  0  0  0  0  0  0
    2.5756   -2.0542   -3.1557 N   0  0  0  0  0  0  0  0  0  0  0  0
    3.1990   -1.2364   -2.0936 C   0  0  2  0  0  0  0  0  0  0  0  0
    2.5645   -1.3937   -0.6945 C   0  0  0  0  0  0  0  0  0  0  0  0
    3.2548   -1.8047    0.2271 O   0  0  0  0  0  0  0  0  0  0  0  0
    3.2584    0.2458   -2.4917 C   0  0  0  0  0  0  0  0  0  0  0  0
    3.1313   -2.8132   -3.5402 H   0  0  0  0  0  0  0  0  0  0  0  0
    4.2341   -1.5790   -1.9931 H   0  0  0  0  0  0  0  0  0  0  0  0
    2.2597    0.6910   -2.5252 H   0  0  0  0  0  0  0  0  0  0  0  0
    3.8534    0.8045   -1.7619 H   0  0  0  0  0  0  0  0  0  0  0  0
    3.7235    0.3572   -3.4755 H   0  0  0  0  0  0  0  0  0  0  0  0
    1.2095   -1.1871   -0.5068 N   0  0  0  0  0  0  0  0  0  0  0  0
    0.5968   -0.6085    0.7058 C   0  0  2  0  0  0  0  0  0  0  0  0
    1.2836    0.6612    1.2837 C   0  0  0  0  0  0  0  0  0  0  0  0
    2.4911    0.8504    1.2453 O   0  0  0  0  0  0  0  0  0  0  0  0
    0.4450   -1.6456    1.8449 C   0  0  0  0  0  0  0  0  0  0  0  0
   -0.5436   -2.8144    1.5982 C   0  0  0  0  0  0  0  0  0  0  0  0
   -0.4318   -3.7938    2.7738 C   0  0  0  0  0  0  0  0  0  0  0  0
   -0.3082   -3.6067    0.3033 C   0  0  0  0  0  0  0  0  0  0  0  0
    0.7365   -0.9677   -1.3878 H   0  0  0  0  0  0  0  0  0  0  0  0
   -0.4121   -0.3019    0.4166 H   0  0  0  0  0  0  0  0  0  0  0  0
    0.1155   -1.1213    2.7480 H   0  0  0  0  0  0  0  0  0  0  0  0
    1.4349   -2.0596    2.0642 H   0  0  0  0  0  0  0  0  0  0  0  0
   -1.5610   -2.4109    1.5698 H   0  0  0  0  0  0  0  0  0  0  0  0
    0.5665   -4.2425    2.8099 H   0  0  0  0  0  0  0  0  0  0  0  0
   -1.1700   -4.5958    2.6764 H   0  0  0  0  0  0  0  0  0  0  0  0
   -0.6146   -3.2769    3.7209 H   0  0  0  0  0  0  0  0  0  0  0  0
    0.7449   -3.8921    0.2126 H   0  0  0  0  0  0  0  0  0  0  0  0
   -0.9149   -4.5175    0.2950 H   0  0  0  0  0  0  0  0  0  0  0  0
   -0.5943   -3.0157   -0.5710 H   0  0  0  0  0  0  0  0  0  0  0  0
    0.4708    1.7190    1.6675 N   0  0  0  0  0  0  0  0  0  0  0  0
    0.8972    3.0626    2.1157 C   0  0  2  0  0  0  0  0  0  0  0  0
    1.5408    3.9360    1.0133 C   0  0  0  0  0  0  0  0  0  0  0  0
    1.0870    5.0508    0.7899 O   0  0  0  0  0  0  0  0  0  0  0  0
    1.8043    2.9830    3.3523 C   0  0  0  0  0  0  0  0  0  0  0  0
   -0.5288    1.5540    1.5999 H   0  0  0  0  0  0  0  0  0  0  0  0
   -0.0091    3.5923    2.4266 H   0  0  0  0  0  0  0  0  0  0  0  0
    2.7831    2.5630    3.1030 H   0  0  0  0  0  0  0  0  0  0  0  0
    1.9614    3.9844    3.7654 H   0  0  0  0  0  0  0  0  0  0  0  0
    1.3439    2.3579    4.1230 H   0  0  0  0  0  0  0  0  0  0  0  0
    2.6075    3.4798    0.2655 N   0  0  0  0  0  0  0  0  0  0  0  0
    3.2427    4.2341   -0.8050 C   0  0  0  0  0  0  0  0  0  0  0  0
    2.9289    2.5300    0.4765 H   0  0  0  0  0  0  0  0  0  0  0  0
    3.5916    5.2041   -0.4355 H   0  0  0  0  0  0  0  0  0  0  0  0
    4.1045    3.6829   -1.1933 H   0  0  0  0  0  0  0  0  0  0  0  0
    2.5373    4.4012   -1.6254 H   0  0  0  0  0  0  0  0  0  0  0  0
  1  2  2  0  0  0  0
  1  3  1  0  0  0  0
  1  7  1  0  0  0  0
  3  4  1  0  0  0  0
  3  5  1  0  0  0  0
  3  6  1  0  0  0  0
  7  8  1  0  0  0  0
  7 12  1  0  0  0  0
  8  9  1  0  0  0  0
  8 11  1  0  0  0  0
  8 13  1  0  0  0  0
  9 10  2  0  0  0  0
  9 17  1  0  0  0  0
 11 14  1  0  0  0  0
 11 15  1  0  0  0  0
 11 16  1  0  0  0  0
 17 18  1  0  0  0  0
 17 25  1  0  0  0  0
 18 19  1  0  0  0  0
 18 21  1  0  0  0  0
 18 26  1  0  0  0  0
 19 20  2  0  0  0  0
 19 36  1  0  0  0  0
 21 22  1  0  0  0  0
 21 27  1  0  0  0  0
 21 28  1  0  0  0  0
 22 23  1  0  0  0  0
 22 24  1  0  0  0  0
 22 29  1  0  0  0  0
 23 30  1  0  0  0  0
 23 31  1  0  0  0  0
 23 32  1  0  0  0  0
 24 33  1  0  0  0  0
 24 34  1  0  0  0  0
 24 35  1  0  0  0  0
 36 37  1  0  0  0  0
 36 41  1  0  0  0  0
 37 38  1  0  0  0  0
 37 40  1  0  0  0  0
 37 42  1  0  0  0  0
 38 39  2  0  0  0  0
 38 46  1  0  0  0  0
 40 43  1  0  0  0  0
 40 44  1  0  0  0  0
 40 45  1  0  0  0  0
 46 47  1  0  0  0  0
 46 48  1  0  0  0  0
 47 49  1  0  0  0  0
 47 50  1  0  0  0  0
 47 51  1  0  0  0  0
M  END
$$$$

  -OEChem-05262216553D

 51 50  0     1  0  0  0  0  0999 V2000
    1.1910   -1.9190   -3.6754 C   0  0  0  0  0  0  0  0  0  0  0  0
    0.4765   -1.0379   -3.2216 O   0  0  0  0  0  0  0  0  0  0  0  0
    0.6435   -2.8560   -4.7356 C   0  0  0  0  0  0  0  0  0  0  0  0
    0.6584   -3.8856   -4.3689 H   0  0  0  0  0  0  0  0  0  0  0  0
   -0.3872   -2.5863   -4.9834 H   0  0  0  0  0  0  0  0  0  0  0  0
    1.2509   -2.7904   -5.6416 H   0  0  0  0  0  0  0  0  0  0  0  0
    2.4780   -2.1078   -3.2072 N   0  0  0  0  0  0  0  0  0  0  0  0
    3.1820   -1.3080   -2.1822 C   0  0  2  0  0  0  0  0  0  0  0  0
    2.5969   -1.4176   -0.7569 C   0  0  0  0  0  0  0  0  0  0  0  0
    3.3076   -1.8300    0.1499 O   0  0  0  0  0  0  0  0  0  0  0  0
    3.2972    0.1635   -2.6051 C   0  0  0  0  0  0  0  0  0  0  0  0
    2.9814   -2.8959   -3.6049 H   0  0  0  0  0  0  0  0  0  0  0  0
    4.2029   -1.6985   -2.1179 H   0  0  0  0  0  0  0  0  0  0  0  0
    2.3209    0.6568   -2.6077 H   0  0  0  0  0  0  0  0  0  0  0  0
    3.9458    0.7019   -1.9062 H   0  0  0  0  0  0  0  0  0  0  0  0
    3.7291    0.2390   -3.6074 H   0  0  0  0  0  0  0  0  0  0  0  0
    1.2581   -1.1615   -0.5194 N   0  0  0  0  0  0  0  0  0  0  0  0
    0.7129   -0.6191    0.7404 C   0  0  2  0  0  0  0  0  0  0  0  0
    1.4731    0.5875    1.3631 C   0  0  0  0  0  0  0  0  0  0  0  0
    2.5862    0.9377    0.9920 O   0  0  0  0  0  0  0  0  0  0  0  0
    0.5366   -1.7154    1.8215 C   0  0  0  0  0  0  0  0  0  0  0  0
   -0.5218   -2.8136    1.5382 C   0  0  0  0  0  0  0  0  0  0  0  0
   -0.4305   -3.8675    2.6497 C   0  0  0  0  0  0  0  0  0  0  0  0
   -0.3695   -3.5369    0.1914 C   0  0  0  0  0  0  0  0  0  0  0  0
    0.7591   -0.9006   -1.3741 H   0  0  0  0  0  0  0  0  0  0  0  0
   -0.2853   -0.2435    0.4987 H   0  0  0  0  0  0  0  0  0  0  0  0
    0.2636   -1.2337    2.7662 H   0  0  0  0  0  0  0  0  0  0  0  0
    1.5077   -2.1956    1.9816 H   0  0  0  0  0  0  0  0  0  0  0  0
   -1.5161   -2.3555    1.5670 H   0  0  0  0  0  0  0  0  0  0  0  0
    0.5447   -4.3650    2.6313 H   0  0  0  0  0  0  0  0  0  0  0  0
   -1.2096   -4.6260    2.5249 H   0  0  0  0  0  0  0  0  0  0  0  0
   -0.5644   -3.4015    3.6308 H   0  0  0  0  0  0  0  0  0  0  0  0
    0.6632   -3.8709    0.0484 H   0  0  0  0  0  0  0  0  0  0  0  0
   -1.0246   -4.4126    0.1498 H   0  0  0  0  0  0  0  0  0  0  0  0
   -0.6504   -2.8792   -0.6357 H   0  0  0  0  0  0  0  0  0  0  0  0
    0.7314    1.4955    2.1070 N   0  0  0  0  0  0  0  0  0  0  0  0
    1.1858    2.7843    2.6750 C   0  0  2  0  0  0  0  0  0  0  0  0
    1.4447    3.9018    1.6373 C   0  0  0  0  0  0  0  0  0  0  0  0
    0.9304    5.0009    1.7995 O   0  0  0  0  0  0  0  0  0  0  0  0
    2.4035    2.5957    3.5910 C   0  0  0  0  0  0  0  0  0  0  0  0
   -0.2284    1.2243    2.2982 H   0  0  0  0  0  0  0  0  0  0  0  0
    0.3717    3.1502    3.3090 H   0  0  0  0  0  0  0  0  0  0  0  0
    3.2976    2.3371    3.0164 H   0  0  0  0  0  0  0  0  0  0  0  0
    2.6073    3.5222    4.1368 H   0  0  0  0  0  0  0  0  0  0  0  0
    2.2144    1.8001    4.3177 H   0  0  0  0  0  0  0  0  0  0  0  0
    2.2377    3.6866    0.5286 N   0  0  0  0  0  0  0  0  0  0  0  0
    2.5198    4.6914   -0.4863 C   0  0  0  0  0  0  0  0  0  0  0  0
    2.6462    2.7510    0.4444 H   0  0  0  0  0  0  0  0  0  0  0  0
    3.0216    5.5559   -0.0393 H   0  0  0  0  0  0  0  0  0  0  0  0
    3.1717    4.2733   -1.2593 H   0  0  0  0  0  0  0  0  0  0  0  0
    1.5920    5.0275   -0.9608 H   0  0  0  0  0  0  0  0  0  0  0  0
  1  2  2  0  0  0  0
  1  3  1  0  0  0  0
  1  7  1  0  0  0  0
  3  4  1  0  0  0  0
  3  5  1  0  0  0  0
  3  6  1  0  0  0  0
  7  8  1  0  0  0  0
  7 12  1  0  0  0  0
  8  9  1  0  0  0  0
  8 11  1  0  0  0  0
  8 13  1  0  0  0  0
  9 10  2  0  0  0  0
  9 17  1  0  0  0  0
 11 14  1  0  0  0  0
 11 15  1  0  0  0  0
 11 16  1  0  0  0  0
 17 18  1  0  0  0  0
 17 25  1  0  0  0  0
 18 19  1  0  0  0  0
 18 21  1  0  0  0  0
 18 26  1  0  0  0  0
 19 20  2  0  0  0  0
 19 36  1  0  0  0  0
 21 22  1  0  0  0  0
 21 27  1  0  0  0  0
 21 28  1  0  0  0  0
 22 23  1  0  0  0  0
 22 24  1  0  0  0  0
 22 29  1  0  0  0  0
 23 30  1  0  0  0  0
 23 31  1  0  0  0  0
 23 32  1  0  0  0  0
 24 33  1  0  0  0  0
 24 34  1  0  0  0  0
 24 35  1  0  0  0  0
 36 37  1  0  0  0  0
 36 41  1  0  0  0  0
 37 38  1  0  0  0  0
 37 40  1  0  0  0  0
 37 42  1  0  0  0  0
 38 39  2  0  0  0  0
 38 46  1  0  0  0  0
 40 43  1  0  0  0  0
 40 44  1  0  0  0  0
 40 45  1  0  0  0  0
 46 47  1  0  0  0  0
 46 48  1  0  0  0  0
 47 49  1  0  0  0  0
 47 50  1  0  0  0  0
 47 51  1  0  0  0  0
M  END
$$$$

  -OEChem-05262216553D

 51 50  0     1  0  0  0  0  0999 V2000
    1.0874   -2.1000   -3.6422 C   0  0  0  0  0  0  0  0  0  0  0  0
    0.3867   -1.1817   -3.2442 O   0  0  0  0  0  0  0  0  0  0  0  0
    0.4967   -3.1394   -4.5762 C   0  0  0  0  0  0  0  0  0  0  0  0
    0.4426   -4.1067   -4.0705 H   0  0  0  0  0  0  0  0  0  0  0  0
   -0.5116   -2.8440   -4.8806 H   0  0  0  0  0  0  0  0  0  0  0  0
    1.1176   -3.2369   -5.4701 H   0  0  0  0  0  0  0  0  0  0  0  0
    2.3948   -2.2407   -3.2144 N   0  0  0  0  0  0  0  0  0  0  0  0
    3.1311   -1.3526   -2.2893 C   0  0  2  0  0  0  0  0  0  0  0  0
    2.6006   -1.3512   -0.8386 C   0  0  0  0  0  0  0  0  0  0  0  0
    3.3429   -1.6997    0.0705 O   0  0  0  0  0  0  0  0  0  0  0  0
    3.2153    0.0796   -2.8358 C   0  0  0  0  0  0  0  0  0  0  0  0
    2.8825   -3.0668   -3.5494 H   0  0  0  0  0  0  0  0  0  0  0  0
    4.1576   -1.7289   -2.2335 H   0  0  0  0  0  0  0  0  0  0  0  0
    2.2346    0.5636   -2.8422 H   0  0  0  0  0  0  0  0  0  0  0  0
    3.8833    0.6785   -2.2085 H   0  0  0  0  0  0  0  0  0  0  0  0
    3.6097    0.0756   -3.8562 H   0  0  0  0  0  0  0  0  0  0  0  0
    1.2717   -1.0697   -0.5746 N   0  0  0  0  0  0  0  0  0  0  0  0
    0.7505   -0.5618    0.7083 C   0  0  2  0  0  0  0  0  0  0  0  0
    1.5578    0.6003    1.3551 C   0  0  0  0  0  0  0  0  0  0  0  0
    2.5291    1.1055    0.8037 O   0  0  0  0  0  0  0  0  0  0  0  0
    0.5632   -1.7048    1.7411 C   0  0  0  0  0  0  0  0  0  0  0  0
   -0.5191   -2.7696    1.4213 C   0  0  0  0  0  0  0  0  0  0  0  0
   -0.4345   -3.8735    2.4841 C   0  0  0  0  0  0  0  0  0  0  0  0
   -0.3960   -3.4357    0.0421 C   0  0  0  0  0  0  0  0  0  0  0  0
    0.7373   -0.8398   -1.4169 H   0  0  0  0  0  0  0  0  0  0  0  0
   -0.2396   -0.1465    0.4990 H   0  0  0  0  0  0  0  0  0  0  0  0
    0.3090   -1.2671    2.7112 H   0  0  0  0  0  0  0  0  0  0  0  0
    1.5267   -2.2100    1.8665 H   0  0  0  0  0  0  0  0  0  0  0  0
   -1.5041   -2.2951    1.4825 H   0  0  0  0  0  0  0  0  0  0  0  0
    0.5302   -4.3886    2.4320 H   0  0  0  0  0  0  0  0  0  0  0  0
   -1.2300   -4.6105    2.3361 H   0  0  0  0  0  0  0  0  0  0  0  0
   -0.5476   -3.4487    3.4865 H   0  0  0  0  0  0  0  0  0  0  0  0
    0.6289   -3.7800   -0.1296 H   0  0  0  0  0  0  0  0  0  0  0  0
   -1.0662   -4.2978   -0.0292 H   0  0  0  0  0  0  0  0  0  0  0  0
   -0.6763   -2.7377   -0.7515 H   0  0  0  0  0  0  0  0  0  0  0  0
    0.9560    1.3196    2.3788 N   0  0  0  0  0  0  0  0  0  0  0  0
    1.4936    2.5033    3.0832 C   0  0  2  0  0  0  0  0  0  0  0  0
    1.5071    3.8089    2.2540 C   0  0  0  0  0  0  0  0  0  0  0  0
    0.9453    4.8042    2.6933 O   0  0  0  0  0  0  0  0  0  0  0  0
    2.8791    2.2117    3.6776 C   0  0  0  0  0  0  0  0  0  0  0  0
    0.0885    0.9300    2.7343 H   0  0  0  0  0  0  0  0  0  0  0  0
    0.8244    2.6950    3.9282 H   0  0  0  0  0  0  0  0  0  0  0  0
    3.6358    2.1081    2.8943 H   0  0  0  0  0  0  0  0  0  0  0  0
    3.1828    3.0305    4.3371 H   0  0  0  0  0  0  0  0  0  0  0  0
    2.8553    1.2868    4.2616 H   0  0  0  0  0  0  0  0  0  0  0  0
    2.1316    3.8738    1.0253 N   0  0  0  0  0  0  0  0  0  0  0  0
    2.1276    5.0467    0.1630 C   0  0  0  0  0  0  0  0  0  0  0  0
    2.5263    2.9939    0.6796 H   0  0  0  0  0  0  0  0  0  0  0  0
    2.5552    5.9086    0.6856 H   0  0  0  0  0  0  0  0  0  0  0  0
    2.7252    4.8555   -0.7335 H   0  0  0  0  0  0  0  0  0  0  0  0
    1.1061    5.2913   -0.1457 H   0  0  0  0  0  0  0  0  0  0  0  0
  1  2  2  0  0  0  0
  1  3  1  0  0  0  0
  1  7  1  0  0  0  0
  3  4  1  0  0  0  0
  3  5  1  0  0  0  0
  3  6  1  0  0  0  0
  7  8  1  0  0  0  0
  7 12  1  0  0  0  0
  8  9  1  0  0  0  0
  8 11  1  0  0  0  0
  8 13  1  0  0  0  0
  9 10  2  0  0  0  0
  9 17  1  0  0  0  0
 11 14  1  0  0  0  0
 11 15  1  0  0  0  0
 11 16  1  0  0  0  0
 17 18  1  0  0  0  0
 17 25  1  0  0  0  0
 18 19  1  0  0  0  0
 18 21  1  0  0  0  0
 18 26  1  0  0  0  0
 19 20  2  0  0  0  0
 19 36  1  0  0  0  0
 21 22  1  0  0  0  0
 21 27  1  0  0  0  0
 21 28  1  0  0  0  0
 22 23  1  0  0  0  0
 22 24  1  0  0  0  0
 22 29  1  0  0  0  0
 23 30  1  0  0  0  0
 23 31  1  0  0  0  0
 23 32  1  0  0  0  0
 24 33  1  0  0  0  0
 24 34  1  0  0  0  0
 24 35  1  0  0  0  0
 36 37  1  0  0  0  0
 36 41  1  0  0  0  0
 37 38  1  0  0  0  0
 37 40  1  0  0  0  0
 37 42  1  0  0  0  0
 38 39  2  0  0  0  0
 38 46  1  0  0  0  0
 40 43  1  0  0  0  0
 40 44  1  0  0  0  0
 40 45  1  0  0  0  0
 46 47  1  0  0  0  0
 46 48  1  0  0  0  0
 47 49  1  0  0  0  0
 47 50  1  0  0  0  0
 47 51  1  0  0  0  0
M  END
$$$$

  -OEChem-05262216553D

 51 50  0     1  0  0  0  0  0999 V2000
    1.0873   -2.0216   -3.5984 C   0  0  0  0  0  0  0  0  0  0  0  0
    0.3794   -1.1080   -3.2036 O   0  0  0  0  0  0  0  0  0  0  0  0
    0.4971   -3.0817   -4.5089 C   0  0  0  0  0  0  0  0  0  0  0  0
    0.4769   -4.0459   -3.9951 H   0  0  0  0  0  0  0  0  0  0  0  0
   -0.5245   -2.8111   -4.7906 H   0  0  0  0  0  0  0  0  0  0  0  0
    1.0979   -3.1723   -5.4171 H   0  0  0  0  0  0  0  0  0  0  0  0
    2.4052   -2.1347   -3.1948 N   0  0  0  0  0  0  0  0  0  0  0  0
    3.1595   -1.1974   -2.3344 C   0  0  2  0  0  0  0  0  0  0  0  0
    2.6803   -1.1280   -0.8674 C   0  0  0  0  0  0  0  0  0  0  0  0
    3.4946   -1.2971    0.0311 O   0  0  0  0  0  0  0  0  0  0  0  0
    3.2069    0.2083   -2.9497 C   0  0  0  0  0  0  0  0  0  0  0  0
    2.9031   -2.9514   -3.5378 H   0  0  0  0  0  0  0  0  0  0  0  0
    4.1916   -1.5609   -2.2958 H   0  0  0  0  0  0  0  0  0  0  0  0
    2.2195    0.6791   -2.9456 H   0  0  0  0  0  0  0  0  0  0  0  0
    3.8859    0.8449   -2.3730 H   0  0  0  0  0  0  0  0  0  0  0  0
    3.5679    0.1612   -3.9814 H   0  0  0  0  0  0  0  0  0  0  0  0
    1.3505   -0.8836   -0.5736 N   0  0  0  0  0  0  0  0  0  0  0  0
    0.8290   -0.4840    0.7458 C   0  0  2  0  0  0  0  0  0  0  0  0
    1.4344    0.8566    1.2466 C   0  0  0  0  0  0  0  0  0  0  0  0
    2.0454    1.5943    0.4798 O   0  0  0  0  0  0  0  0  0  0  0  0
    0.9283   -1.6067    1.8164 C   0  0  0  0  0  0  0  0  0  0  0  0
    0.0512   -2.8633    1.5799 C   0  0  0  0  0  0  0  0  0  0  0  0
    0.4014   -3.9015    2.6539 C   0  0  0  0  0  0  0  0  0  0  0  0
    0.2226   -3.5318    0.2073 C   0  0  0  0  0  0  0  0  0  0  0  0
    0.7719   -0.6920   -1.3963 H   0  0  0  0  0  0  0  0  0  0  0  0
   -0.2373   -0.2810    0.6106 H   0  0  0  0  0  0  0  0  0  0  0  0
    0.6389   -1.1964    2.7877 H   0  0  0  0  0  0  0  0  0  0  0  0
    1.9731   -1.9168    1.9088 H   0  0  0  0  0  0  0  0  0  0  0  0
   -1.0009   -2.5801    1.6906 H   0  0  0  0  0  0  0  0  0  0  0  0
    1.4404   -4.2304    2.5487 H   0  0  0  0  0  0  0  0  0  0  0  0
   -0.2501   -4.7768    2.5692 H   0  0  0  0  0  0  0  0  0  0  0  0
    0.2714   -3.4767    3.6542 H   0  0  0  0  0  0  0  0  0  0  0  0
    1.2829   -3.6887   -0.0153 H   0  0  0  0  0  0  0  0  0  0  0  0
   -0.2812   -4.5033    0.1884 H   0  0  0  0  0  0  0  0  0  0  0  0
   -0.2217   -2.9181   -0.5811 H   0  0  0  0  0  0  0  0  0  0  0  0
    1.0440    1.3668    2.4769 N   0  0  0  0  0  0  0  0  0  0  0  0
    1.4527    2.6492    3.0891 C   0  0  2  0  0  0  0  0  0  0  0  0
    0.8462    3.9092    2.4290 C   0  0  0  0  0  0  0  0  0  0  0  0
    0.2976    4.7497    3.1303 O   0  0  0  0  0  0  0  0  0  0  0  0
    2.9814    2.7623    3.1820 C   0  0  0  0  0  0  0  0  0  0  0  0
    0.4636    0.7537    3.0405 H   0  0  0  0  0  0  0  0  0  0  0  0
    1.0762    2.6400    4.1170 H   0  0  0  0  0  0  0  0  0  0  0  0
    3.4313    2.8994    2.1944 H   0  0  0  0  0  0  0  0  0  0  0  0
    3.2556    3.6217    3.8018 H   0  0  0  0  0  0  0  0  0  0  0  0
    3.4042    1.8602    3.6343 H   0  0  0  0  0  0  0  0  0  0  0  0
    0.9047    4.1039    1.0641 N   0  0  0  0  0  0  0  0  0  0  0  0
    0.3657    5.2683    0.3766 C   0  0  0  0  0  0  0  0  0  0  0  0
    1.3835    3.3748    0.5270 H   0  0  0  0  0  0  0  0  0  0  0  0
    0.5233    5.1740   -0.7021 H   0  0  0  0  0  0  0  0  0  0  0  0
   -0.7094    5.3595    0.5629 H   0  0  0  0  0  0  0  0  0  0  0  0
    0.8636    6.1802    0.7217 H   0  0  0  0  0  0  0  0  0  0  0  0
  1  2  2  0  0  0  0
  1  3  1  0  0  0  0
  1  7  1  0  0  0  0
  3  4  1  0  0  0  0
  3  5  1  0  0  0  0
  3  6  1  0  0  0  0
  7  8  1  0  0  0  0
  7 12  1  0  0  0  0
  8  9  1  0  0  0  0
  8 11  1  0  0  0  0
  8 13  1  0  0  0  0
  9 10  2  0  0  0  0
  9 17  1  0  0  0  0
 11 14  1  0  0  0  0
 11 15  1  0  0  0  0
 11 16  1  0  0  0  0
 17 18  1  0  0  0  0
 17 25  1  0  0  0  0
 18 19  1  0  0  0  0
 18 21  1  0  0  0  0
 18 26  1  0  0  0  0
 19 20  2  0  0  0  0
 19 36  1  0  0  0  0
 21 22  1  0  0  0  0
 21 27  1  0  0  0  0
 21 28  1  0  0  0  0
 22 23  1  0  0  0  0
 22 24  1  0  0  0  0
 22 29  1  0  0  0  0
 23 30  1  0  0  0  0
 23 31  1  0  0  0  0
 23 32  1  0  0  0  0
 24 33  1  0  0  0  0
 24 34  1  0  0  0  0
 24 35  1  0  0  0  0
 36 37  1  0  0  0  0
 36 41  1  0  0  0  0
 37 38  1  0  0  0  0
 37 40  1  0  0  0  0
 37 42  1  0  0  0  0
 38 39  2  0  0  0  0
 38 46  1  0  0  0  0
 40 43  1  0  0  0  0
 40 44  1  0  0  0  0
 40 45  1  0  0  0  0
 46 47  1  0  0  0  0
 46 48  1  0  0  0  0
 47 49  1  0  0  0  0
 47 50  1  0  0  0  0
 47 51  1  0  0  0  0
M  END
$$$$

  -OEChem-05262216553D

 51 50  0     1  0  0  0  0  0999 V2000
    0.9156   -2.2542   -3.5190 C   0  0  0  0  0  0  0  0  0  0  0  0
    0.1575   -1.3720   -3.1468 O   0  0  0  0  0  0  0  0  0  0  0  0
    0.3606   -3.4450   -4.2769 C   0  0  0  0  0  0  0  0  0  0  0  0
    0.5020   -4.3584   -3.6935 H   0  0  0  0  0  0  0  0  0  0  0  0
   -0.7086   -3.3093   -4.4637 H   0  0  0  0  0  0  0  0  0  0  0  0
    0.8733   -3.5498   -5.2363 H   0  0  0  0  0  0  0  0  0  0  0  0
    2.2647   -2.2155   -3.2186 N   0  0  0  0  0  0  0  0  0  0  0  0
    2.9851   -1.1506   -2.4890 C   0  0  2  0  0  0  0  0  0  0  0  0
    2.5995   -1.0129   -0.9993 C   0  0  0  0  0  0  0  0  0  0  0  0
    3.4732   -1.1081   -0.1465 O   0  0  0  0  0  0  0  0  0  0  0  0
    2.8582    0.2003   -3.2069 C   0  0  0  0  0  0  0  0  0  0  0  0
    2.8100   -3.0136   -3.5316 H   0  0  0  0  0  0  0  0  0  0  0  0
    4.0472   -1.4174   -2.5017 H   0  0  0  0  0  0  0  0  0  0  0  0
    1.8368    0.5876   -3.1495 H   0  0  0  0  0  0  0  0  0  0  0  0
    3.5243    0.9338   -2.7412 H   0  0  0  0  0  0  0  0  0  0  0  0
    3.1350    0.1001   -4.2606 H   0  0  0  0  0  0  0  0  0  0  0  0
    1.2841   -0.7973   -0.6299 N   0  0  0  0  0  0  0  0  0  0  0  0
    0.8214   -0.4526    0.7255 C   0  0  2  0  0  0  0  0  0  0  0  0
    1.4459    0.8807    1.2266 C   0  0  0  0  0  0  0  0  0  0  0  0
    1.8060    1.7312    0.4188 O   0  0  0  0  0  0  0  0  0  0  0  0
    0.9921   -1.6240    1.7349 C   0  0  0  0  0  0  0  0  0  0  0  0
    0.1233   -2.8851    1.4864 C   0  0  0  0  0  0  0  0  0  0  0  0
    0.5456   -3.9657    2.4908 C   0  0  0  0  0  0  0  0  0  0  0  0
    0.2223   -3.4882    0.0772 C   0  0  0  0  0  0  0  0  0  0  0  0
    0.6290   -0.7033   -1.4112 H   0  0  0  0  0  0  0  0  0  0  0  0
   -0.2523   -0.2547    0.6575 H   0  0  0  0  0  0  0  0  0  0  0  0
    0.7416   -1.2677    2.7373 H   0  0  0  0  0  0  0  0  0  0  0  0
    2.0457   -1.9178    1.7587 H   0  0  0  0  0  0  0  0  0  0  0  0
   -0.9246   -2.6248    1.6686 H   0  0  0  0  0  0  0  0  0  0  0  0
    1.5842   -4.2674    2.3198 H   0  0  0  0  0  0  0  0  0  0  0  0
   -0.0927   -4.8498    2.3952 H   0  0  0  0  0  0  0  0  0  0  0  0
    0.4565   -3.5918    3.5156 H   0  0  0  0  0  0  0  0  0  0  0  0
    1.2687   -3.6172   -0.2164 H   0  0  0  0  0  0  0  0  0  0  0  0
   -0.2682   -4.4660    0.0438 H   0  0  0  0  0  0  0  0  0  0  0  0
   -0.2791   -2.8468   -0.6525 H   0  0  0  0  0  0  0  0  0  0  0  0
    1.3946    1.2273    2.5700 N   0  0  0  0  0  0  0  0  0  0  0  0
    1.9741    2.4296    3.2075 C   0  0  2  0  0  0  0  0  0  0  0  0
    1.2517    3.7615    2.8975 C   0  0  0  0  0  0  0  0  0  0  0  0
    0.9650    4.5157    3.8187 O   0  0  0  0  0  0  0  0  0  0  0  0
    3.4756    2.5415    2.9079 C   0  0  0  0  0  0  0  0  0  0  0  0
    1.0510    0.5028    3.1917 H   0  0  0  0  0  0  0  0  0  0  0  0
    1.8789    2.2863    4.2888 H   0  0  0  0  0  0  0  0  0  0  0  0
    3.6527    2.8024    1.8604 H   0  0  0  0  0  0  0  0  0  0  0  0
    3.9250    3.3194    3.5331 H   0  0  0  0  0  0  0  0  0  0  0  0
    3.9785    1.5932    3.1199 H   0  0  0  0  0  0  0  0  0  0  0  0
    0.9374    4.1302    1.6055 N   0  0  0  0  0  0  0  0  0  0  0  0
    0.3143    5.3951    1.2435 C   0  0  0  0  0  0  0  0  0  0  0  0
    1.2245    3.4775    0.8701 H   0  0  0  0  0  0  0  0  0  0  0  0
    0.9584    6.2338    1.5278 H   0  0  0  0  0  0  0  0  0  0  0  0
    0.1463    5.4371    0.1631 H   0  0  0  0  0  0  0  0  0  0  0  0
   -0.6513    5.5044    1.7480 H   0  0  0  0  0  0  0  0  0  0  0  0
  1  2  2  0  0  0  0
  1  3  1  0  0  0  0
  1  7  1  0  0  0  0
  3  4  1  0  0  0  0
  3  5  1  0  0  0  0
  3  6  1  0  0  0  0
  7  8  1  0  0  0  0
  7 12  1  0  0  0  0
  8  9  1  0  0  0  0
  8 11  1  0  0  0  0
  8 13  1  0  0  0  0
  9 10  2  0  0  0  0
  9 17  1  0  0  0  0
 11 14  1  0  0  0  0
 11 15  1  0  0  0  0
 11 16  1  0  0  0  0
 17 18  1  0  0  0  0
 17 25  1  0  0  0  0
 18 19  1  0  0  0  0
 18 21  1  0  0  0  0
 18 26  1  0  0  0  0
 19 20  2  0  0  0  0
 19 36  1  0  0  0  0
 21 22  1  0  0  0  0
 21 27  1  0  0  0  0
 21 28  1  0  0  0  0
 22 23  1  0  0  0  0
 22 24  1  0  0  0  0
 22 29  1  0  0  0  0
 23 30  1  0  0  0  0
 23 31  1  0  0  0  0
 23 32  1  0  0  0  0
 24 33  1  0  0  0  0
 24 34  1  0  0  0  0
 24 35  1  0  0  0  0
 36 37  1  0  0  0  0
 36 41  1  0  0  0  0
 37 38  1  0  0  0  0
 37 40  1  0  0  0  0
 37 42  1  0  0  0  0
 38 39  2  0  0  0  0
 38 46  1  0  0  0  0
 40 43  1  0  0  0  0
 40 44  1  0  0  0  0
 40 45  1  0  0  0  0
 46 47  1  0  0  0  0
 46 48  1  0  0  0  0
 47 49  1  0  0  0  0
 47 50  1  0  0  0  0
 47 51  1  0  0  0  0
M  END
$$$$

  -OEChem-05262216553D

 51 50  0     1  0  0  0  0  0999 V2000
    0.8259   -2.2870   -3.5136 C   0  0  0  0  0  0  0  0  0  0  0  0
    0.0860   -1.3939   -3.1313 O   0  0  0  0  0  0  0  0  0  0  0  0
    0.2396   -3.4834   -4.2392 C   0  0  0  0  0  0  0  0  0  0  0  0
    0.4017   -4.3919   -3.6538 H   0  0  0  0  0  0  0  0  0  0  0  0
   -0.8358   -3.3472   -4.3854 H   0  0  0  0  0  0  0  0  0  0  0  0
    0.7142   -3.5973   -5.2169 H   0  0  0  0  0  0  0  0  0  0  0  0
    2.1832   -2.2545   -3.2518 N   0  0  0  0  0  0  0  0  0  0  0  0
    2.9309   -1.1850   -2.5568 C   0  0  2  0  0  0  0  0  0  0  0  0
    2.5893   -1.0270   -1.0586 C   0  0  0  0  0  0  0  0  0  0  0  0
    3.4873   -1.1010   -0.2289 O   0  0  0  0  0  0  0  0  0  0  0  0
    2.7911    0.1580   -3.2876 C   0  0  0  0  0  0  0  0  0  0  0  0
    2.7146   -3.0577   -3.5754 H   0  0  0  0  0  0  0  0  0  0  0  0
    3.9903   -1.4584   -2.5966 H   0  0  0  0  0  0  0  0  0  0  0  0
    1.7744    0.5537   -3.2047 H   0  0  0  0  0  0  0  0  0  0  0  0
    3.4751    0.8935   -2.8519 H   0  0  0  0  0  0  0  0  0  0  0  0
    3.0358    0.0427   -4.3476 H   0  0  0  0  0  0  0  0  0  0  0  0
    1.2873   -0.8036   -0.6513 N   0  0  0  0  0  0  0  0  0  0  0  0
    0.8686   -0.4759    0.7215 C   0  0  2  0  0  0  0  0  0  0  0  0
    1.5346    0.8431    1.2031 C   0  0  0  0  0  0  0  0  0  0  0  0
    1.6470    1.7784    0.4170 O   0  0  0  0  0  0  0  0  0  0  0  0
    1.0437   -1.6624    1.7112 C   0  0  0  0  0  0  0  0  0  0  0  0
    0.1465   -2.9044    1.4705 C   0  0  0  0  0  0  0  0  0  0  0  0
    0.5756   -4.0039    2.4512 C   0  0  0  0  0  0  0  0  0  0  0  0
    0.2015   -3.4899    0.0515 C   0  0  0  0  0  0  0  0  0  0  0  0
    0.6040   -0.7196   -1.4093 H   0  0  0  0  0  0  0  0  0  0  0  0
   -0.2026   -0.2560    0.6887 H   0  0  0  0  0  0  0  0  0  0  0  0
    0.8178   -1.3124    2.7221 H   0  0  0  0  0  0  0  0  0  0  0  0
    2.0926   -1.9742    1.7054 H   0  0  0  0  0  0  0  0  0  0  0  0
   -0.8921   -2.6288    1.6822 H   0  0  0  0  0  0  0  0  0  0  0  0
    1.6042   -4.3214    2.2511 H   0  0  0  0  0  0  0  0  0  0  0  0
   -0.0801   -4.8758    2.3622 H   0  0  0  0  0  0  0  0  0  0  0  0
    0.5185   -3.6400    3.4818 H   0  0  0  0  0  0  0  0  0  0  0  0
    1.2385   -3.6283   -0.2700 H   0  0  0  0  0  0  0  0  0  0  0  0
   -0.3030   -4.4606    0.0167 H   0  0  0  0  0  0  0  0  0  0  0  0
   -0.3094   -2.8317   -0.6562 H   0  0  0  0  0  0  0  0  0  0  0  0
    1.8240    1.0585    2.5432 N   0  0  0  0  0  0  0  0  0  0  0  0
    2.4738    2.2444    3.1406 C   0  0  2  0  0  0  0  0  0  0  0  0
    1.6078    3.5252    3.1622 C   0  0  0  0  0  0  0  0  0  0  0  0
    1.4530    4.1286    4.2165 O   0  0  0  0  0  0  0  0  0  0  0  0
    3.8387    2.5146    2.4911 C   0  0  0  0  0  0  0  0  0  0  0  0
    1.7276    0.2431    3.1395 H   0  0  0  0  0  0  0  0  0  0  0  0
    2.6686    1.9997    4.1897 H   0  0  0  0  0  0  0  0  0  0  0  0
    3.7265    2.8748    1.4643 H   0  0  0  0  0  0  0  0  0  0  0  0
    4.3806    3.2760    3.0610 H   0  0  0  0  0  0  0  0  0  0  0  0
    4.4402    1.6006    2.4748 H   0  0  0  0  0  0  0  0  0  0  0  0
    1.0036    4.0045    2.0179 N   0  0  0  0  0  0  0  0  0  0  0  0
    0.1624    5.1914    1.9697 C   0  0  0  0  0  0  0  0  0  0  0  0
    1.1415    3.4458    1.1706 H   0  0  0  0  0  0  0  0  0  0  0  0
   -0.1585    5.3834    0.9414 H   0  0  0  0  0  0  0  0  0  0  0  0
   -0.7276    5.0541    2.5923 H   0  0  0  0  0  0  0  0  0  0  0  0
    0.7137    6.0666    2.3289 H   0  0  0  0  0  0  0  0  0  0  0  0
  1  2  2  0  0  0  0
  1  3  1  0  0  0  0
  1  7  1  0  0  0  0
  3  4  1  0  0  0  0
  3  5  1  0  0  0  0
  3  6  1  0  0  0  0
  7  8  1  0  0  0  0
  7 12  1  0  0  0  0
  8  9  1  0  0  0  0
  8 11  1  0  0  0  0
  8 13  1  0  0  0  0
  9 10  2  0  0  0  0
  9 17  1  0  0  0  0
 11 14  1  0  0  0  0
 11 15  1  0  0  0  0
 11 16  1  0  0  0  0
 17 18  1  0  0  0  0
 17 25  1  0  0  0  0
 18 19  1  0  0  0  0
 18 21  1  0  0  0  0
 18 26  1  0  0  0  0
 19 20  2  0  0  0  0
 19 36  1  0  0  0  0
 21 22  1  0  0  0  0
 21 27  1  0  0  0  0
 21 28  1  0  0  0  0
 22 23  1  0  0  0  0
 22 24  1  0  0  0  0
 22 29  1  0  0  0  0
 23 30  1  0  0  0  0
 23 31  1  0  0  0  0
 23 32  1  0  0  0  0
 24 33  1  0  0  0  0
 24 34  1  0  0  0  0
 24 35  1  0  0  0  0
 36 37  1  0  0  0  0
 36 41  1  0  0  0  0
 37 38  1  0  0  0  0
 37 40  1  0  0  0  0
 37 42  1  0  0  0  0
 38 39  2  0  0  0  0
 38 46  1  0  0  0  0
 40 43  1  0  0  0  0
 40 44  1  0  0  0  0
 40 45  1  0  0  0  0
 46 47  1  0  0  0  0
 46 48  1  0  0  0  0
 47 49  1  0  0  0  0
 47 50  1  0  0  0  0
 47 51  1  0  0  0  0
M  END
$$$$

  -OEChem-05262216553D

 51 50  0     1  0  0  0  0  0999 V2000
    0.7648   -2.3025   -3.5392 C   0  0  0  0  0  0  0  0  0  0  0  0
    0.0189   -1.4314   -3.1203 O   0  0  0  0  0  0  0  0  0  0  0  0
    0.1872   -3.4706   -4.3161 C   0  0  0  0  0  0  0  0  0  0  0  0
    0.4231   -4.4099   -3.8099 H   0  0  0  0  0  0  0  0  0  0  0  0
   -0.8999   -3.3748   -4.3892 H   0  0  0  0  0  0  0  0  0  0  0  0
    0.6059   -3.4923   -5.3254 H   0  0  0  0  0  0  0  0  0  0  0  0
    2.1229   -2.2670   -3.2812 N   0  0  0  0  0  0  0  0  0  0  0  0
    2.8671   -1.2080   -2.5661 C   0  0  2  0  0  0  0  0  0  0  0  0
    2.5338   -1.0791   -1.0631 C   0  0  0  0  0  0  0  0  0  0  0  0
    3.4416   -1.1279   -0.2418 O   0  0  0  0  0  0  0  0  0  0  0  0
    2.7151    0.1499   -3.2668 C   0  0  0  0  0  0  0  0  0  0  0  0
    2.6599   -3.0529   -3.6368 H   0  0  0  0  0  0  0  0  0  0  0  0
    3.9281   -1.4739   -2.6170 H   0  0  0  0  0  0  0  0  0  0  0  0
    1.6939    0.5329   -3.1783 H   0  0  0  0  0  0  0  0  0  0  0  0
    3.3905    0.8820   -2.8124 H   0  0  0  0  0  0  0  0  0  0  0  0
    2.9639    0.0622   -4.3284 H   0  0  0  0  0  0  0  0  0  0  0  0
    1.2333   -0.8748   -0.6420 N   0  0  0  0  0  0  0  0  0  0  0  0
    0.8271   -0.5462    0.7335 C   0  0  2  0  0  0  0  0  0  0  0  0
    1.4838    0.7851    1.1842 C   0  0  0  0  0  0  0  0  0  0  0  0
    1.3846    1.7684    0.4581 O   0  0  0  0  0  0  0  0  0  0  0  0
    1.0297   -1.7175    1.7351 C   0  0  0  0  0  0  0  0  0  0  0  0
    0.1477   -2.9744    1.5184 C   0  0  0  0  0  0  0  0  0  0  0  0
    0.6012   -4.0577    2.5060 C   0  0  0  0  0  0  0  0  0  0  0  0
    0.1964   -3.5729    0.1051 C   0  0  0  0  0  0  0  0  0  0  0  0
    0.5425   -0.7888   -1.3933 H   0  0  0  0  0  0  0  0  0  0  0  0
   -0.2472   -0.3401    0.7145 H   0  0  0  0  0  0  0  0  0  0  0  0
    0.8105   -1.3528    2.7435 H   0  0  0  0  0  0  0  0  0  0  0  0
    2.0823   -2.0166    1.7209 H   0  0  0  0  0  0  0  0  0  0  0  0
   -0.8926   -2.7106    1.7378 H   0  0  0  0  0  0  0  0  0  0  0  0
    1.6308   -4.3652    2.2957 H   0  0  0  0  0  0  0  0  0  0  0  0
   -0.0451   -4.9381    2.4339 H   0  0  0  0  0  0  0  0  0  0  0  0
    0.5529   -3.6842    3.5336 H   0  0  0  0  0  0  0  0  0  0  0  0
    1.2323   -3.7040   -0.2229 H   0  0  0  0  0  0  0  0  0  0  0  0
   -0.2989   -4.5487    0.0846 H   0  0  0  0  0  0  0  0  0  0  0  0
   -0.3265   -2.9270   -0.6053 H   0  0  0  0  0  0  0  0  0  0  0  0
    2.0730    0.9174    2.4331 N   0  0  0  0  0  0  0  0  0  0  0  0
    2.8506    2.0718    2.9312 C   0  0  2  0  0  0  0  0  0  0  0  0
    2.0339    3.3516    3.2273 C   0  0  0  0  0  0  0  0  0  0  0  0
    2.2096    3.9430    4.2852 O   0  0  0  0  0  0  0  0  0  0  0  0
    4.0278    2.3801    1.9950 C   0  0  0  0  0  0  0  0  0  0  0  0
    2.1886    0.0432    2.9362 H   0  0  0  0  0  0  0  0  0  0  0  0
    3.2802    1.7676    3.8911 H   0  0  0  0  0  0  0  0  0  0  0  0
    3.6809    2.7969    1.0449 H   0  0  0  0  0  0  0  0  0  0  0  0
    4.6974    3.1092    2.4619 H   0  0  0  0  0  0  0  0  0  0  0  0
    4.5975    1.4690    1.7872 H   0  0  0  0  0  0  0  0  0  0  0  0
    1.1321    3.8622    2.3158 N   0  0  0  0  0  0  0  0  0  0  0  0
    0.3996    5.1073    2.4964 C   0  0  0  0  0  0  0  0  0  0  0  0
    1.0544    3.3540    1.4300 H   0  0  0  0  0  0  0  0  0  0  0  0
    1.0926    5.9525    2.5587 H   0  0  0  0  0  0  0  0  0  0  0  0
   -0.2750    5.2726    1.6510 H   0  0  0  0  0  0  0  0  0  0  0  0
   -0.1976    5.0716    3.4134 H   0  0  0  0  0  0  0  0  0  0  0  0
  1  2  2  0  0  0  0
  1  3  1  0  0  0  0
  1  7  1  0  0  0  0
  3  4  1  0  0  0  0
  3  5  1  0  0  0  0
  3  6  1  0  0  0  0
  7  8  1  0  0  0  0
  7 12  1  0  0  0  0
  8  9  1  0  0  0  0
  8 11  1  0  0  0  0
  8 13  1  0  0  0  0
  9 10  2  0  0  0  0
  9 17  1  0  0  0  0
 11 14  1  0  0  0  0
 11 15  1  0  0  0  0
 11 16  1  0  0  0  0
 17 18  1  0  0  0  0
 17 25  1  0  0  0  0
 18 19  1  0  0  0  0
 18 21  1  0  0  0  0
 18 26  1  0  0  0  0
 19 20  2  0  0  0  0
 19 36  1  0  0  0  0
 21 22  1  0  0  0  0
 21 27  1  0  0  0  0
 21 28  1  0  0  0  0
 22 23  1  0  0  0  0
 22 24  1  0  0  0  0
 22 29  1  0  0  0  0
 23 30  1  0  0  0  0
 23 31  1  0  0  0  0
 23 32  1  0  0  0  0
 24 33  1  0  0  0  0
 24 34  1  0  0  0  0
 24 35  1  0  0  0  0
 36 37  1  0  0  0  0
 36 41  1  0  0  0  0
 37 38  1  0  0  0  0
 37 40  1  0  0  0  0
 37 42  1  0  0  0  0
 38 39  2  0  0  0  0
 38 46  1  0  0  0  0
 40 43  1  0  0  0  0
 40 44  1  0  0  0  0
 40 45  1  0  0  0  0
 46 47  1  0  0  0  0
 46 48  1  0  0  0  0
 47 49  1  0  0  0  0
 47 50  1  0  0  0  0
 47 51  1  0  0  0  0
M  END
$$$$

  -OEChem-05262216553D

 51 50  0     1  0  0  0  0  0999 V2000
    0.7021   -2.4663   -3.4964 C   0  0  0  0  0  0  0  0  0  0  0  0
   -0.0472   -1.5769   -3.1243 O   0  0  0  0  0  0  0  0  0  0  0  0
    0.1232   -3.7123   -4.1393 C   0  0  0  0  0  0  0  0  0  0  0  0
    0.3523   -4.5889   -3.5281 H   0  0  0  0  0  0  0  0  0  0  0  0
   -0.9631   -3.6206   -4.2300 H   0  0  0  0  0  0  0  0  0  0  0  0
    0.5474   -3.8506   -5.1368 H   0  0  0  0  0  0  0  0  0  0  0  0
    2.0668   -2.3833   -3.2904 N   0  0  0  0  0  0  0  0  0  0  0  0
    2.8079   -1.2575   -2.6835 C   0  0  2  0  0  0  0  0  0  0  0  0
    2.5201   -1.0274   -1.1824 C   0  0  0  0  0  0  0  0  0  0  0  0
    3.4526   -1.0248   -0.3873 O   0  0  0  0  0  0  0  0  0  0  0  0
    2.6033    0.0371   -3.4826 C   0  0  0  0  0  0  0  0  0  0  0  0
    2.6092   -3.1869   -3.5946 H   0  0  0  0  0  0  0  0  0  0  0  0
    3.8727   -1.5042   -2.7504 H   0  0  0  0  0  0  0  0  0  0  0  0
    1.5757    0.4017   -3.3958 H   0  0  0  0  0  0  0  0  0  0  0  0
    3.2722    0.8179   -3.1068 H   0  0  0  0  0  0  0  0  0  0  0  0
    2.8259   -0.1296   -4.5407 H   0  0  0  0  0  0  0  0  0  0  0  0
    1.2317   -0.8236   -0.7246 N   0  0  0  0  0  0  0  0  0  0  0  0
    0.8641   -0.5094    0.6653 C   0  0  2  0  0  0  0  0  0  0  0  0
    1.5343    0.8121    1.1175 C   0  0  0  0  0  0  0  0  0  0  0  0
    1.2013    1.8578    0.5717 O   0  0  0  0  0  0  0  0  0  0  0  0
    1.0942   -1.6859    1.6533 C   0  0  0  0  0  0  0  0  0  0  0  0
    0.2101   -2.9438    1.4576 C   0  0  0  0  0  0  0  0  0  0  0  0
    0.6957   -4.0284    2.4287 C   0  0  0  0  0  0  0  0  0  0  0  0
    0.2190   -3.5341    0.0407 C   0  0  0  0  0  0  0  0  0  0  0  0
    0.5032   -0.8193   -1.4449 H   0  0  0  0  0  0  0  0  0  0  0  0
   -0.2104   -0.3030    0.6771 H   0  0  0  0  0  0  0  0  0  0  0  0
    0.9093   -1.3204    2.6689 H   0  0  0  0  0  0  0  0  0  0  0  0
    2.1450   -1.9871    1.6029 H   0  0  0  0  0  0  0  0  0  0  0  0
   -0.8239   -2.6841    1.7086 H   0  0  0  0  0  0  0  0  0  0  0  0
    1.7170   -4.3386    2.1847 H   0  0  0  0  0  0  0  0  0  0  0  0
    0.0448   -4.9068    2.3789 H   0  0  0  0  0  0  0  0  0  0  0  0
    0.6831   -3.6544    3.4574 H   0  0  0  0  0  0  0  0  0  0  0  0
    1.2445   -3.6533   -0.3225 H   0  0  0  0  0  0  0  0  0  0  0  0
   -0.2678   -4.5142    0.0301 H   0  0  0  0  0  0  0  0  0  0  0  0
   -0.3334   -2.8881   -0.6465 H   0  0  0  0  0  0  0  0  0  0  0  0
    2.4084    0.8441    2.1934 N   0  0  0  0  0  0  0  0  0  0  0  0
    3.2200    1.9950    2.6424 C   0  0  2  0  0  0  0  0  0  0  0  0
    2.4340    3.1517    3.3039 C   0  0  0  0  0  0  0  0  0  0  0  0
    2.8654    3.6595    4.3315 O   0  0  0  0  0  0  0  0  0  0  0  0
    4.1028    2.5178    1.5004 C   0  0  0  0  0  0  0  0  0  0  0  0
    2.7299   -0.0746    2.4856 H   0  0  0  0  0  0  0  0  0  0  0  0
    3.8943    1.6166    3.4177 H   0  0  0  0  0  0  0  0  0  0  0  0
    3.5036    3.0152    0.7323 H   0  0  0  0  0  0  0  0  0  0  0  0
    4.8279    3.2404    1.8874 H   0  0  0  0  0  0  0  0  0  0  0  0
    4.6501    1.6922    1.0348 H   0  0  0  0  0  0  0  0  0  0  0  0
    1.2700    3.6456    2.7504 N   0  0  0  0  0  0  0  0  0  0  0  0
    0.5372    4.7899    3.2736 C   0  0  0  0  0  0  0  0  0  0  0  0
    0.9953    3.2379    1.8523 H   0  0  0  0  0  0  0  0  0  0  0  0
    1.1530    5.6938    3.2232 H   0  0  0  0  0  0  0  0  0  0  0  0
   -0.3714    4.9548    2.6866 H   0  0  0  0  0  0  0  0  0  0  0  0
    0.2483    4.6168    4.3156 H   0  0  0  0  0  0  0  0  0  0  0  0
  1  2  2  0  0  0  0
  1  3  1  0  0  0  0
  1  7  1  0  0  0  0
  3  4  1  0  0  0  0
  3  5  1  0  0  0  0
  3  6  1  0  0  0  0
  7  8  1  0  0  0  0
  7 12  1  0  0  0  0
  8  9  1  0  0  0  0
  8 11  1  0  0  0  0
  8 13  1  0  0  0  0
  9 10  2  0  0  0  0
  9 17  1  0  0  0  0
 11 14  1  0  0  0  0
 11 15  1  0  0  0  0
 11 16  1  0  0  0  0
 17 18  1  0  0  0  0
 17 25  1  0  0  0  0
 18 19  1  0  0  0  0
 18 21  1  0  0  0  0
 18 26  1  0  0  0  0
 19 20  2  0  0  0  0
 19 36  1  0  0  0  0
 21 22  1  0  0  0  0
 21 27  1  0  0  0  0
 21 28  1  0  0  0  0
 22 23  1  0  0  0  0
 22 24  1  0  0  0  0
 22 29  1  0  0  0  0
 23 30  1  0  0  0  0
 23 31  1  0  0  0  0
 23 32  1  0  0  0  0
 24 33  1  0  0  0  0
 24 34  1  0  0  0  0
 24 35  1  0  0  0  0
 36 37  1  0  0  0  0
 36 41  1  0  0  0  0
 37 38  1  0  0  0  0
 37 40  1  0  0  0  0
 37 42  1  0  0  0  0
 38 39  2  0  0  0  0
 38 46  1  0  0  0  0
 40 43  1  0  0  0  0
 40 44  1  0  0  0  0
 40 45  1  0  0  0  0
 46 47  1  0  0  0  0
 46 48  1  0  0  0  0
 47 49  1  0  0  0  0
 47 50  1  0  0  0  0
 47 51  1  0  0  0  0
M  END
$$$$

  -OEChem-05262216553D

 51 50  0     1  0  0  0  0  0999 V2000
    2.2612   -3.2150   -3.3835 C   0  0  0  0  0  0  0  0  0  0  0  0
    1.1913   -3.5846   -2.9280 O   0  0  0  0  0  0  0  0  0  0  0  0
    3.3097   -4.2429   -3.7648 C   0  0  0  0  0  0  0  0  0  0  0  0
    4.2029   -4.1096   -3.1492 H   0  0  0  0  0  0  0  0  0  0  0  0
    2.9220   -5.2535   -3.6078 H   0  0  0  0  0  0  0  0  0  0  0  0
    3.5796   -4.1292   -4.8176 H   0  0  0  0  0  0  0  0  0  0  0  0
    2.5447   -1.8721   -3.5457 N   0  0  0  0  0  0  0  0  0  0  0  0
    1.7266   -0.7725   -3.0021 C   0  0  2  0  0  0  0  0  0  0  0  0
    1.6790   -0.7705   -1.4536 C   0  0  0  0  0  0  0  0  0  0  0  0
    2.7076   -0.9969   -0.8234 O   0  0  0  0  0  0  0  0  0  0  0  0
    0.3348   -0.7426   -3.6592 C   0  0  0  0  0  0  0  0  0  0  0  0
    3.5142   -1.6621   -3.7642 H   0  0  0  0  0  0  0  0  0  0  0  0
    2.2204    0.1634   -3.2805 H   0  0  0  0  0  0  0  0  0  0  0  0
   -0.2937   -1.5632   -3.3003 H   0  0  0  0  0  0  0  0  0  0  0  0
   -0.1714    0.2014   -3.4359 H   0  0  0  0  0  0  0  0  0  0  0  0
    0.4290   -0.8306   -4.7460 H   0  0  0  0  0  0  0  0  0  0  0  0
    0.5434   -0.3699   -0.7660 N   0  0  0  0  0  0  0  0  0  0  0  0
    0.4764   -0.1473    0.6893 C   0  0  2  0  0  0  0  0  0  0  0  0
    1.4705    0.9562    1.1213 C   0  0  0  0  0  0  0  0  0  0  0  0
    1.1604    2.1283    0.9418 O   0  0  0  0  0  0  0  0  0  0  0  0
    0.6014   -1.4365    1.5440 C   0  0  0  0  0  0  0  0  0  0  0  0
   -0.5529   -2.4635    1.4232 C   0  0  0  0  0  0  0  0  0  0  0  0
   -0.1709   -3.7165    2.2220 C   0  0  0  0  0  0  0  0  0  0  0  0
   -0.8842   -2.9037   -0.0095 C   0  0  0  0  0  0  0  0  0  0  0  0
   -0.2769   -0.1580   -1.3256 H   0  0  0  0  0  0  0  0  0  0  0  0
   -0.5150    0.2626    0.9069 H   0  0  0  0  0  0  0  0  0  0  0  0
    0.6714   -1.1429    2.5971 H   0  0  0  0  0  0  0  0  0  0  0  0
    1.5385   -1.9398    1.2858 H   0  0  0  0  0  0  0  0  0  0  0  0
   -1.4556   -2.0268    1.8635 H   0  0  0  0  0  0  0  0  0  0  0  0
    0.7105   -4.1998    1.7881 H   0  0  0  0  0  0  0  0  0  0  0  0
   -0.9959   -4.4356    2.2236 H   0  0  0  0  0  0  0  0  0  0  0  0
    0.0518   -3.4538    3.2608 H   0  0  0  0  0  0  0  0  0  0  0  0
    0.0238   -3.2144   -0.5344 H   0  0  0  0  0  0  0  0  0  0  0  0
   -1.5810   -3.7475    0.0005 H   0  0  0  0  0  0  0  0  0  0  0  0
   -1.3612   -2.0937   -0.5666 H   0  0  0  0  0  0  0  0  0  0  0  0
    2.6514    0.6317    1.7683 N   0  0  0  0  0  0  0  0  0  0  0  0
    3.7622    1.5490    2.0957 C   0  0  2  0  0  0  0  0  0  0  0  0
    3.4726    2.5780    3.2131 C   0  0  0  0  0  0  0  0  0  0  0  0
    4.2980    2.7490    4.1014 O   0  0  0  0  0  0  0  0  0  0  0  0
    4.2833    2.2457    0.8313 C   0  0  0  0  0  0  0  0  0  0  0  0
    2.8994   -0.3508    1.6641 H   0  0  0  0  0  0  0  0  0  0  0  0
    4.5778    0.9247    2.4747 H   0  0  0  0  0  0  0  0  0  0  0  0
    3.5604    2.9749    0.4540 H   0  0  0  0  0  0  0  0  0  0  0  0
    5.2164    2.7731    1.0521 H   0  0  0  0  0  0  0  0  0  0  0  0
    4.4794    1.5094    0.0458 H   0  0  0  0  0  0  0  0  0  0  0  0
    2.3169    3.3324    3.2189 N   0  0  0  0  0  0  0  0  0  0  0  0
    2.0064    4.3478    4.2150 C   0  0  0  0  0  0  0  0  0  0  0  0
    1.6797    3.1831    2.4320 H   0  0  0  0  0  0  0  0  0  0  0  0
    2.7714    5.1312    4.2154 H   0  0  0  0  0  0  0  0  0  0  0  0
    1.0386    4.8084    3.9948 H   0  0  0  0  0  0  0  0  0  0  0  0
    1.9579    3.9015    5.2136 H   0  0  0  0  0  0  0  0  0  0  0  0
  1  2  2  0  0  0  0
  1  3  1  0  0  0  0
  1  7  1  0  0  0  0
  3  4  1  0  0  0  0
  3  5  1  0  0  0  0
  3  6  1  0  0  0  0
  7  8  1  0  0  0  0
  7 12  1  0  0  0  0
  8  9  1  0  0  0  0
  8 11  1  0  0  0  0
  8 13  1  0  0  0  0
  9 10  2  0  0  0  0
  9 17  1  0  0  0  0
 11 14  1  0  0  0  0
 11 15  1  0  0  0  0
 11 16  1  0  0  0  0
 17 18  1  0  0  0  0
 17 25  1  0  0  0  0
 18 19  1  0  0  0  0
 18 21  1  0  0  0  0
 18 26  1  0  0  0  0
 19 20  2  0  0  0  0
 19 36  1  0  0  0  0
 21 22  1  0  0  0  0
 21 27  1  0  0  0  0
 21 28  1  0  0  0  0
 22 23  1  0  0  0  0
 22 24  1  0  0  0  0
 22 29  1  0  0  0  0
 23 30  1  0  0  0  0
 23 31  1  0  0  0  0
 23 32  1  0  0  0  0
 24 33  1  0  0  0  0
 24 34  1  0  0  0  0
 24 35  1  0  0  0  0
 36 37  1  0  0  0  0
 36 41  1  0  0  0  0
 37 38  1  0  0  0  0
 37 40  1  0  0  0  0
 37 42  1  0  0  0  0
 38 39  2  0  0  0  0
 38 46  1  0  0  0  0
 40 43  1  0  0  0  0
 40 44  1  0  0  0  0
 40 45  1  0  0  0  0
 46 47  1  0  0  0  0
 46 48  1  0  0  0  0
 47 49  1  0  0  0  0
 47 50  1  0  0  0  0
 47 51  1  0  0  0  0
M  END
$$$$

  -OEChem-05262216553D

 51 50  0     1  0  0  0  0  0999 V2000
    2.2069   -3.2985   -3.4236 C   0  0  0  0  0  0  0  0  0  0  0  0
    1.1595   -3.6712   -2.9212 O   0  0  0  0  0  0  0  0  0  0  0  0
    3.2622   -4.3205   -3.8023 C   0  0  0  0  0  0  0  0  0  0  0  0
    4.1718   -4.1505   -3.2206 H   0  0  0  0  0  0  0  0  0  0  0  0
    2.8984   -5.3315   -3.5983 H   0  0  0  0  0  0  0  0  0  0  0  0
    3.4966   -4.2395   -4.8663 H   0  0  0  0  0  0  0  0  0  0  0  0
    2.4576   -1.9565   -3.6402 N   0  0  0  0  0  0  0  0  0  0  0  0
    1.6379   -0.8535   -3.1047 C   0  0  2  0  0  0  0  0  0  0  0  0
    1.6589   -0.7872   -1.5569 C   0  0  0  0  0  0  0  0  0  0  0  0
    2.7156   -0.9820   -0.9638 O   0  0  0  0  0  0  0  0  0  0  0  0
    0.2180   -0.8778   -3.6998 C   0  0  0  0  0  0  0  0  0  0  0  0
    3.4144   -1.7360   -3.9007 H   0  0  0  0  0  0  0  0  0  0  0  0
    2.0973    0.0802   -3.4431 H   0  0  0  0  0  0  0  0  0  0  0  0
   -0.3785   -1.6916   -3.2768 H   0  0  0  0  0  0  0  0  0  0  0  0
   -0.2959    0.0665   -3.4969 H   0  0  0  0  0  0  0  0  0  0  0  0
    0.2662   -1.0132   -4.7847 H   0  0  0  0  0  0  0  0  0  0  0  0
    0.5491   -0.3687   -0.8384 N   0  0  0  0  0  0  0  0  0  0  0  0
    0.5154   -0.1105    0.6136 C   0  0  2  0  0  0  0  0  0  0  0  0
    1.5097    0.9995    1.0278 C   0  0  0  0  0  0  0  0  0  0  0  0
    1.1041    2.1519    1.1186 O   0  0  0  0  0  0  0  0  0  0  0  0
    0.6760   -1.3784    1.4921 C   0  0  0  0  0  0  0  0  0  0  0  0
   -0.4686   -2.4212    1.4244 C   0  0  0  0  0  0  0  0  0  0  0  0
   -0.0502   -3.6511    2.2412 C   0  0  0  0  0  0  0  0  0  0  0  0
   -0.8298   -2.8992    0.0116 C   0  0  0  0  0  0  0  0  0  0  0  0
   -0.3054   -0.2291   -1.3692 H   0  0  0  0  0  0  0  0  0  0  0  0
   -0.4765    0.2924    0.8429 H   0  0  0  0  0  0  0  0  0  0  0  0
    0.7735   -1.0596    2.5357 H   0  0  0  0  0  0  0  0  0  0  0  0
    1.6117   -1.8769    1.2201 H   0  0  0  0  0  0  0  0  0  0  0  0
   -1.3655   -1.9844    1.8767 H   0  0  0  0  0  0  0  0  0  0  0  0
    0.8256   -4.1337    1.7951 H   0  0  0  0  0  0  0  0  0  0  0  0
   -0.8653   -4.3807    2.2809 H   0  0  0  0  0  0  0  0  0  0  0  0
    0.1969   -3.3617    3.2674 H   0  0  0  0  0  0  0  0  0  0  0  0
    0.0695   -3.2089   -0.5285 H   0  0  0  0  0  0  0  0  0  0  0  0
   -1.5130   -3.7531    0.0585 H   0  0  0  0  0  0  0  0  0  0  0  0
   -1.3327   -2.1091   -0.5513 H   0  0  0  0  0  0  0  0  0  0  0  0
    2.8102    0.6800    1.3787 N   0  0  0  0  0  0  0  0  0  0  0  0
    3.9072    1.6192    1.6900 C   0  0  2  0  0  0  0  0  0  0  0  0
    3.7638    2.4038    3.0150 C   0  0  0  0  0  0  0  0  0  0  0  0
    4.7410    2.5406    3.7403 O   0  0  0  0  0  0  0  0  0  0  0  0
    4.1553    2.5756    0.5160 C   0  0  0  0  0  0  0  0  0  0  0  0
    3.0895   -0.2382    1.0264 H   0  0  0  0  0  0  0  0  0  0  0  0
    4.8109    1.0116    1.8047 H   0  0  0  0  0  0  0  0  0  0  0  0
    3.3294    3.2833    0.4003 H   0  0  0  0  0  0  0  0  0  0  0  0
    5.0728    3.1474    0.6870 H   0  0  0  0  0  0  0  0  0  0  0  0
    4.2667    2.0120   -0.4151 H   0  0  0  0  0  0  0  0  0  0  0  0
    2.5704    2.9926    3.3815 N   0  0  0  0  0  0  0  0  0  0  0  0
    2.3989    3.8232    4.5648 C   0  0  0  0  0  0  0  0  0  0  0  0
    1.8102    2.9227    2.7001 H   0  0  0  0  0  0  0  0  0  0  0  0
    3.0295    4.7159    4.5006 H   0  0  0  0  0  0  0  0  0  0  0  0
    1.3555    4.1406    4.6544 H   0  0  0  0  0  0  0  0  0  0  0  0
    2.6686    3.2646    5.4670 H   0  0  0  0  0  0  0  0  0  0  0  0
  1  2  2  0  0  0  0
  1  3  1  0  0  0  0
  1  7  1  0  0  0  0
  3  4  1  0  0  0  0
  3  5  1  0  0  0  0
  3  6  1  0  0  0  0
  7  8  1  0  0  0  0
  7 12  1  0  0  0  0
  8  9  1  0  0  0  0
  8 11  1  0  0  0  0
  8 13  1  0  0  0  0
  9 10  2  0  0  0  0
  9 17  1  0  0  0  0
 11 14  1  0  0  0  0
 11 15  1  0  0  0  0
 11 16  1  0  0  0  0
 17 18  1  0  0  0  0
 17 25  1  0  0  0  0
 18 19  1  0  0  0  0
 18 21  1  0  0  0  0
 18 26  1  0  0  0  0
 19 20  2  0  0  0  0
 19 36  1  0  0  0  0
 21 22  1  0  0  0  0
 21 27  1  0  0  0  0
 21 28  1  0  0  0  0
 22 23  1  0  0  0  0
 22 24  1  0  0  0  0
 22 29  1  0  0  0  0
 23 30  1  0  0  0  0
 23 31  1  0  0  0  0
 23 32  1  0  0  0  0
 24 33  1  0  0  0  0
 24 34  1  0  0  0  0
 24 35  1  0  0  0  0
 36 37  1  0  0  0  0
 36 41  1  0  0  0  0
 37 38  1  0  0  0  0
 37 40  1  0  0  0  0
 37 42  1  0  0  0  0
 38 39  2  0  0  0  0
 38 46  1  0  0  0  0
 40 43  1  0  0  0  0
 40 44  1  0  0  0  0
 40 45  1  0  0  0  0
 46 47  1  0  0  0  0
 46 48  1  0  0  0  0
 47 49  1  0  0  0  0
 47 50  1  0  0  0  0
 47 51  1  0  0  0  0
M  END
$$$$

  -OEChem-05262216553D

 51 50  0     1  0  0  0  0  0999 V2000
    0.4182   -2.7780   -3.4900 C   0  0  0  0  0  0  0  0  0  0  0  0
   -0.3153   -1.8783   -3.1119 O   0  0  0  0  0  0  0  0  0  0  0  0
   -0.1836   -4.0939   -3.9446 C   0  0  0  0  0  0  0  0  0  0  0  0
    0.1198   -4.8972   -3.2687 H   0  0  0  0  0  0  0  0  0  0  0  0
   -1.2756   -4.0288   -3.9462 H   0  0  0  0  0  0  0  0  0  0  0  0
    0.1545   -4.3303   -4.9563 H   0  0  0  0  0  0  0  0  0  0  0  0
    1.7931   -2.6353   -3.4526 N   0  0  0  0  0  0  0  0  0  0  0  0
    2.5519   -1.4276   -3.0627 C   0  0  2  0  0  0  0  0  0  0  0  0
    2.4420   -1.0448   -1.5683 C   0  0  0  0  0  0  0  0  0  0  0  0
    3.4687   -0.9013   -0.9152 O   0  0  0  0  0  0  0  0  0  0  0  0
    2.1946   -0.2338   -3.9605 C   0  0  0  0  0  0  0  0  0  0  0  0
    2.3292   -3.4486   -3.7429 H   0  0  0  0  0  0  0  0  0  0  0  0
    3.6100   -1.6489   -3.2384 H   0  0  0  0  0  0  0  0  0  0  0  0
    1.1730    0.1119   -3.7780 H   0  0  0  0  0  0  0  0  0  0  0  0
    2.8751    0.6005   -3.7632 H   0  0  0  0  0  0  0  0  0  0  0  0
    2.2848   -0.5105   -5.0152 H   0  0  0  0  0  0  0  0  0  0  0  0
    1.2105   -0.8857   -0.9579 N   0  0  0  0  0  0  0  0  0  0  0  0
    0.9551   -0.5020    0.4441 C   0  0  2  0  0  0  0  0  0  0  0  0
    1.5358    0.8805    0.8218 C   0  0  0  0  0  0  0  0  0  0  0  0
    0.7643    1.7981    1.0727 O   0  0  0  0  0  0  0  0  0  0  0  0
    1.4030   -1.5692    1.4755 C   0  0  0  0  0  0  0  0  0  0  0  0
    0.6399   -2.9178    1.4650 C   0  0  0  0  0  0  0  0  0  0  0  0
    1.3307   -3.8724    2.4478 C   0  0  0  0  0  0  0  0  0  0  0  0
    0.5646   -3.6137    0.0997 C   0  0  0  0  0  0  0  0  0  0  0  0
    0.4037   -1.0394   -1.5713 H   0  0  0  0  0  0  0  0  0  0  0  0
   -0.1303   -0.4026    0.5491 H   0  0  0  0  0  0  0  0  0  0  0  0
    1.2974   -1.1374    2.4768 H   0  0  0  0  0  0  0  0  0  0  0  0
    2.4681   -1.7721    1.3270 H   0  0  0  0  0  0  0  0  0  0  0  0
   -0.3836   -2.7381    1.8110 H   0  0  0  0  0  0  0  0  0  0  0  0
    2.3474   -4.1027    2.1137 H   0  0  0  0  0  0  0  0  0  0  0  0
    0.7714   -4.8095    2.5293 H   0  0  0  0  0  0  0  0  0  0  0  0
    1.3859   -3.4219    3.4439 H   0  0  0  0  0  0  0  0  0  0  0  0
    1.5547   -3.6633   -0.3637 H   0  0  0  0  0  0  0  0  0  0  0  0
    0.1826   -4.6335    0.2087 H   0  0  0  0  0  0  0  0  0  0  0  0
   -0.1185   -3.0782   -0.5641 H   0  0  0  0  0  0  0  0  0  0  0  0
    2.8955    1.0425    1.0220 N   0  0  0  0  0  0  0  0  0  0  0  0
    3.6165    2.2869    1.3584 C   0  0  2  0  0  0  0  0  0  0  0  0
    3.3625    2.8361    2.7817 C   0  0  0  0  0  0  0  0  0  0  0  0
    4.3048    3.2537    3.4431 O   0  0  0  0  0  0  0  0  0  0  0  0
    3.3600    3.3714    0.3035 C   0  0  0  0  0  0  0  0  0  0  0  0
    3.4516    0.2747    0.6338 H   0  0  0  0  0  0  0  0  0  0  0  0
    4.6844    2.0480    1.3193 H   0  0  0  0  0  0  0  0  0  0  0  0
    2.3293    3.7347    0.3511 H   0  0  0  0  0  0  0  0  0  0  0  0
    4.0288    4.2216    0.4707 H   0  0  0  0  0  0  0  0  0  0  0  0
    3.5456    2.9769   -0.6999 H   0  0  0  0  0  0  0  0  0  0  0  0
    2.0909    2.8982    3.3155 N   0  0  0  0  0  0  0  0  0  0  0  0
    1.7780    3.4737    4.6156 C   0  0  0  0  0  0  0  0  0  0  0  0
    1.3300    2.6172    2.6913 H   0  0  0  0  0  0  0  0  0  0  0  0
    2.0513    4.5337    4.6410 H   0  0  0  0  0  0  0  0  0  0  0  0
    0.7063    3.3858    4.8181 H   0  0  0  0  0  0  0  0  0  0  0  0
    2.3231    2.9488    5.4069 H   0  0  0  0  0  0  0  0  0  0  0  0
  1  2  2  0  0  0  0
  1  3  1  0  0  0  0
  1  7  1  0  0  0  0
  3  4  1  0  0  0  0
  3  5  1  0  0  0  0
  3  6  1  0  0  0  0
  7  8  1  0  0  0  0
  7 12  1  0  0  0  0
  8  9  1  0  0  0  0
  8 11  1  0  0  0  0
  8 13  1  0  0  0  0
  9 10  2  0  0  0  0
  9 17  1  0  0  0  0
 11 14  1  0  0  0  0
 11 15  1  0  0  0  0
 11 16  1  0  0  0  0
 17 18  1  0  0  0  0
 17 25  1  0  0  0  0
 18 19  1  0  0  0  0
 18 21  1  0  0  0  0
 18 26  1  0  0  0  0
 19 20  2  0  0  0  0
 19 36  1  0  0  0  0
 21 22  1  0  0  0  0
 21 27  1  0  0  0  0
 21 28  1  0  0  0  0
 22 23  1  0  0  0  0
 22 24  1  0  0  0  0
 22 29  1  0  0  0  0
 23 30  1  0  0  0  0
 23 31  1  0  0  0  0
 23 32  1  0  0  0  0
 24 33  1  0  0  0  0
 24 34  1  0  0  0  0
 24 35  1  0  0  0  0
 36 37  1  0  0  0  0
 36 41  1  0  0  0  0
 37 38  1  0  0  0  0
 37 40  1  0  0  0  0
 37 42  1  0  0  0  0
 38 39  2  0  0  0  0
 38 46  1  0  0  0  0
 40 43  1  0  0  0  0
 40 44  1  0  0  0  0
 40 45  1  0  0  0  0
 46 47  1  0  0  0  0
 46 48  1  0  0  0  0
 47 49  1  0  0  0  0
 47 50  1  0  0  0  0
 47 51  1  0  0  0  0
M  END
$$$$

  -OEChem-05262216553D

 51 50  0     1  0  0  0  0  0999 V2000
    0.4353   -2.7073   -3.6080 C   0  0  0  0  0  0  0  0  0  0  0  0
   -0.2419   -1.7706   -3.2152 O   0  0  0  0  0  0  0  0  0  0  0  0
   -0.2447   -3.9391   -4.1750 C   0  0  0  0  0  0  0  0  0  0  0  0
   -0.0249   -4.8093   -3.5516 H   0  0  0  0  0  0  0  0  0  0  0  0
   -1.3282   -3.7921   -4.2043 H   0  0  0  0  0  0  0  0  0  0  0  0
    0.1104   -4.1278   -5.1911 H   0  0  0  0  0  0  0  0  0  0  0  0
    1.8136   -2.6782   -3.5006 N   0  0  0  0  0  0  0  0  0  0  0  0
    2.6485   -1.5486   -3.0379 C   0  0  2  0  0  0  0  0  0  0  0  0
    2.5026   -1.1892   -1.5412 C   0  0  0  0  0  0  0  0  0  0  0  0
    3.5133   -1.0895   -0.8575 O   0  0  0  0  0  0  0  0  0  0  0  0
    2.4328   -0.3060   -3.9134 C   0  0  0  0  0  0  0  0  0  0  0  0
    2.2973   -3.5114   -3.8248 H   0  0  0  0  0  0  0  0  0  0  0  0
    3.6918   -1.8531   -3.1724 H   0  0  0  0  0  0  0  0  0  0  0  0
    1.4340    0.1159   -3.7684 H   0  0  0  0  0  0  0  0  0  0  0  0
    3.1668    0.4644   -3.6570 H   0  0  0  0  0  0  0  0  0  0  0  0
    2.5535   -0.5590   -4.9710 H   0  0  0  0  0  0  0  0  0  0  0  0
    1.2585   -0.9778   -0.9745 N   0  0  0  0  0  0  0  0  0  0  0  0
    0.9450   -0.5460    0.4032 C   0  0  2  0  0  0  0  0  0  0  0  0
    1.5283    0.8329    0.7937 C   0  0  0  0  0  0  0  0  0  0  0  0
    0.7640    1.7011    1.1962 O   0  0  0  0  0  0  0  0  0  0  0  0
    1.3311   -1.5925    1.4782 C   0  0  0  0  0  0  0  0  0  0  0  0
    0.5458   -2.9290    1.4645 C   0  0  0  0  0  0  0  0  0  0  0  0
    1.1762   -3.8708    2.4988 C   0  0  0  0  0  0  0  0  0  0  0  0
    0.5150   -3.6591    0.1141 C   0  0  0  0  0  0  0  0  0  0  0  0
    0.4755   -1.0759   -1.6287 H   0  0  0  0  0  0  0  0  0  0  0  0
   -0.1427   -0.4296    0.4545 H   0  0  0  0  0  0  0  0  0  0  0  0
    1.1857   -1.1357    2.4635 H   0  0  0  0  0  0  0  0  0  0  0  0
    2.3995   -1.8114    1.3847 H   0  0  0  0  0  0  0  0  0  0  0  0
   -0.4883   -2.7236    1.7611 H   0  0  0  0  0  0  0  0  0  0  0  0
    2.2015   -4.1283    2.2139 H   0  0  0  0  0  0  0  0  0  0  0  0
    0.5951   -4.7949    2.5799 H   0  0  0  0  0  0  0  0  0  0  0  0
    1.1982   -3.3955    3.4847 H   0  0  0  0  0  0  0  0  0  0  0  0
    1.5232   -3.7444   -0.3027 H   0  0  0  0  0  0  0  0  0  0  0  0
    0.1042   -4.6664    0.2331 H   0  0  0  0  0  0  0  0  0  0  0  0
   -0.1242   -3.1275   -0.5956 H   0  0  0  0  0  0  0  0  0  0  0  0
    2.8907    1.0720    0.7748 N   0  0  0  0  0  0  0  0  0  0  0  0
    3.5903    2.3511    1.0109 C   0  0  2  0  0  0  0  0  0  0  0  0
    3.5470    2.8770    2.4648 C   0  0  0  0  0  0  0  0  0  0  0  0
    4.5490    3.3881    2.9495 O   0  0  0  0  0  0  0  0  0  0  0  0
    3.1021    3.4269    0.0314 C   0  0  0  0  0  0  0  0  0  0  0  0
    3.4390    0.3042    0.3748 H   0  0  0  0  0  0  0  0  0  0  0  0
    4.6478    2.1720    0.7916 H   0  0  0  0  0  0  0  0  0  0  0  0
    2.0761    3.7315    0.2585 H   0  0  0  0  0  0  0  0  0  0  0  0
    3.7429    4.3118    0.0980 H   0  0  0  0  0  0  0  0  0  0  0  0
    3.1363    3.0504   -0.9953 H   0  0  0  0  0  0  0  0  0  0  0  0
    2.3898    2.8277    3.2161 N   0  0  0  0  0  0  0  0  0  0  0  0
    2.2499    3.4216    4.5380 C   0  0  0  0  0  0  0  0  0  0  0  0
    1.5555    2.4983    2.7230 H   0  0  0  0  0  0  0  0  0  0  0  0
    1.2518    3.2189    4.9377 H   0  0  0  0  0  0  0  0  0  0  0  0
    2.9891    3.0015    5.2277 H   0  0  0  0  0  0  0  0  0  0  0  0
    2.3906    4.5060    4.4867 H   0  0  0  0  0  0  0  0  0  0  0  0
  1  2  2  0  0  0  0
  1  3  1  0  0  0  0
  1  7  1  0  0  0  0
  3  4  1  0  0  0  0
  3  5  1  0  0  0  0
  3  6  1  0  0  0  0
  7  8  1  0  0  0  0
  7 12  1  0  0  0  0
  8  9  1  0  0  0  0
  8 11  1  0  0  0  0
  8 13  1  0  0  0  0
  9 10  2  0  0  0  0
  9 17  1  0  0  0  0
 11 14  1  0  0  0  0
 11 15  1  0  0  0  0
 11 16  1  0  0  0  0
 17 18  1  0  0  0  0
 17 25  1  0  0  0  0
 18 19  1  0  0  0  0
 18 21  1  0  0  0  0
 18 26  1  0  0  0  0
 19 20  2  0  0  0  0
 19 36  1  0  0  0  0
 21 22  1  0  0  0  0
 21 27  1  0  0  0  0
 21 28  1  0  0  0  0
 22 23  1  0  0  0  0
 22 24  1  0  0  0  0
 22 29  1  0  0  0  0
 23 30  1  0  0  0  0
 23 31  1  0  0  0  0
 23 32  1  0  0  0  0
 24 33  1  0  0  0  0
 24 34  1  0  0  0  0
 24 35  1  0  0  0  0
 36 37  1  0  0  0  0
 36 41  1  0  0  0  0
 37 38  1  0  0  0  0
 37 40  1  0  0  0  0
 37 42  1  0  0  0  0
 38 39  2  0  0  0  0
 38 46  1  0  0  0  0
 40 43  1  0  0  0  0
 40 44  1  0  0  0  0
 40 45  1  0  0  0  0
 46 47  1  0  0  0  0
 46 48  1  0  0  0  0
 47 49  1  0  0  0  0
 47 50  1  0  0  0  0
 47 51  1  0  0  0  0
M  END
$$$$

  -OEChem-05262216553D

 51 50  0     1  0  0  0  0  0999 V2000
    2.0381   -3.5263   -3.5279 C   0  0  0  0  0  0  0  0  0  0  0  0
    1.0360   -3.8859   -2.9333 O   0  0  0  0  0  0  0  0  0  0  0  0
    3.1025   -4.5461   -3.8860 C   0  0  0  0  0  0  0  0  0  0  0  0
    4.0391   -4.3004   -3.3791 H   0  0  0  0  0  0  0  0  0  0  0  0
    2.7868   -5.5462   -3.5756 H   0  0  0  0  0  0  0  0  0  0  0  0
    3.2695   -4.5494   -4.9658 H   0  0  0  0  0  0  0  0  0  0  0  0
    2.2307   -2.2008   -3.8695 N   0  0  0  0  0  0  0  0  0  0  0  0
    1.4204   -1.0746   -3.3683 C   0  0  2  0  0  0  0  0  0  0  0  0
    1.5940   -0.8452   -1.8455 C   0  0  0  0  0  0  0  0  0  0  0  0
    2.7167   -0.9268   -1.3622 O   0  0  0  0  0  0  0  0  0  0  0  0
   -0.0499   -1.1966   -3.8090 C   0  0  0  0  0  0  0  0  0  0  0  0
    3.1636   -1.9810   -4.2067 H   0  0  0  0  0  0  0  0  0  0  0  0
    1.8073   -0.1695   -3.8464 H   0  0  0  0  0  0  0  0  0  0  0  0
   -0.5733   -1.9767   -3.2483 H   0  0  0  0  0  0  0  0  0  0  0  0
   -0.5743   -0.2498   -3.6499 H   0  0  0  0  0  0  0  0  0  0  0  0
   -0.1047   -1.4424   -4.8740 H   0  0  0  0  0  0  0  0  0  0  0  0
    0.5349   -0.4202   -1.0569 N   0  0  0  0  0  0  0  0  0  0  0  0
    0.5550   -0.0228    0.3710 C   0  0  2  0  0  0  0  0  0  0  0  0
    1.4636    1.1782    0.7390 C   0  0  0  0  0  0  0  0  0  0  0  0
    1.0231    2.0147    1.5178 O   0  0  0  0  0  0  0  0  0  0  0  0
    0.8796   -1.1957    1.3293 C   0  0  0  0  0  0  0  0  0  0  0  0
   -0.1625   -2.3395    1.4195 C   0  0  0  0  0  0  0  0  0  0  0  0
    0.4194   -3.4538    2.2993 C   0  0  0  0  0  0  0  0  0  0  0  0
   -0.5639   -2.9673    0.0790 C   0  0  0  0  0  0  0  0  0  0  0  0
   -0.3731   -0.4454   -1.5120 H   0  0  0  0  0  0  0  0  0  0  0  0
   -0.4609    0.3052    0.6134 H   0  0  0  0  0  0  0  0  0  0  0  0
    1.0049   -0.7881    2.3387 H   0  0  0  0  0  0  0  0  0  0  0  0
    1.8450   -1.6217    1.0366 H   0  0  0  0  0  0  0  0  0  0  0  0
   -1.0669   -1.9480    1.8973 H   0  0  0  0  0  0  0  0  0  0  0  0
    1.3128   -3.8861    1.8366 H   0  0  0  0  0  0  0  0  0  0  0  0
   -0.3164   -4.2510    2.4446 H   0  0  0  0  0  0  0  0  0  0  0  0
    0.6927   -3.0601    3.2832 H   0  0  0  0  0  0  0  0  0  0  0  0
    0.3267   -3.2446   -0.4912 H   0  0  0  0  0  0  0  0  0  0  0  0
   -1.1620   -3.8693    0.2412 H   0  0  0  0  0  0  0  0  0  0  0  0
   -1.1698   -2.2758   -0.5116 H   0  0  0  0  0  0  0  0  0  0  0  0
    2.7554    1.3074    0.2616 N   0  0  0  0  0  0  0  0  0  0  0  0
    3.7333    2.3779    0.5444 C   0  0  2  0  0  0  0  0  0  0  0  0
    4.2447    2.4332    2.0024 C   0  0  0  0  0  0  0  0  0  0  0  0
    5.4364    2.6156    2.2164 O   0  0  0  0  0  0  0  0  0  0  0  0
    3.1952    3.7464    0.1071 C   0  0  0  0  0  0  0  0  0  0  0  0
    3.0721    0.5172   -0.3081 H   0  0  0  0  0  0  0  0  0  0  0  0
    4.6126    2.1680   -0.0730 H   0  0  0  0  0  0  0  0  0  0  0  0
    2.3742    4.0737    0.7514 H   0  0  0  0  0  0  0  0  0  0  0  0
    3.9908    4.4960    0.1628 H   0  0  0  0  0  0  0  0  0  0  0  0
    2.8333    3.7006   -0.9239 H   0  0  0  0  0  0  0  0  0  0  0  0
    3.3799    2.3172    3.0721 N   0  0  0  0  0  0  0  0  0  0  0  0
    3.7821    2.4485    4.4650 C   0  0  0  0  0  0  0  0  0  0  0  0
    2.3854    2.2639    2.8374 H   0  0  0  0  0  0  0  0  0  0  0  0
    2.9285    2.2594    5.1229 H   0  0  0  0  0  0  0  0  0  0  0  0
    4.5695    1.7271    4.7066 H   0  0  0  0  0  0  0  0  0  0  0  0
    4.1565    3.4582    4.6615 H   0  0  0  0  0  0  0  0  0  0  0  0
  1  2  2  0  0  0  0
  1  3  1  0  0  0  0
  1  7  1  0  0  0  0
  3  4  1  0  0  0  0
  3  5  1  0  0  0  0
  3  6  1  0  0  0  0
  7  8  1  0  0  0  0
  7 12  1  0  0  0  0
  8  9  1  0  0  0  0
  8 11  1  0  0  0  0
  8 13  1  0  0  0  0
  9 10  2  0  0  0  0
  9 17  1  0  0  0  0
 11 14  1  0  0  0  0
 11 15  1  0  0  0  0
 11 16  1  0  0  0  0
 17 18  1  0  0  0  0
 17 25  1  0  0  0  0
 18 19  1  0  0  0  0
 18 21  1  0  0  0  0
 18 26  1  0  0  0  0
 19 20  2  0  0  0  0
 19 36  1  0  0  0  0
 21 22  1  0  0  0  0
 21 27  1  0  0  0  0
 21 28  1  0  0  0  0
 22 23  1  0  0  0  0
 22 24  1  0  0  0  0
 22 29  1  0  0  0  0
 23 30  1  0  0  0  0
 23 31  1  0  0  0  0
 23 32  1  0  0  0  0
 24 33  1  0  0  0  0
 24 34  1  0  0  0  0
 24 35  1  0  0  0  0
 36 37  1  0  0  0  0
 36 41  1  0  0  0  0
 37 38  1  0  0  0  0
 37 40  1  0  0  0  0
 37 42  1  0  0  0  0
 38 39  2  0  0  0  0
 38 46  1  0  0  0  0
 40 43  1  0  0  0  0
 40 44  1  0  0  0  0
 40 45  1  0  0  0  0
 46 47  1  0  0  0  0
 46 48  1  0  0  0  0
 47 49  1  0  0  0  0
 47 50  1  0  0  0  0
 47 51  1  0  0  0  0
M  END
$$$$

  -OEChem-05262216553D

 51 50  0     1  0  0  0  0  0999 V2000
    2.1012   -3.5202   -3.5147 C   0  0  0  0  0  0  0  0  0  0  0  0
    1.1382   -3.9263   -2.8861 O   0  0  0  0  0  0  0  0  0  0  0  0
    3.2190   -4.4797   -3.8769 C   0  0  0  0  0  0  0  0  0  0  0  0
    4.1466   -4.1715   -3.3880 H   0  0  0  0  0  0  0  0  0  0  0  0
    2.9685   -5.4926   -3.5490 H   0  0  0  0  0  0  0  0  0  0  0  0
    3.3694   -4.4877   -4.9592 H   0  0  0  0  0  0  0  0  0  0  0  0
    2.2025   -2.1937   -3.8903 N   0  0  0  0  0  0  0  0  0  0  0  0
    1.3369   -1.1087   -3.3904 C   0  0  2  0  0  0  0  0  0  0  0  0
    1.5333   -0.8374   -1.8773 C   0  0  0  0  0  0  0  0  0  0  0  0
    2.6694   -0.8502   -1.4201 O   0  0  0  0  0  0  0  0  0  0  0  0
   -0.1337   -1.3290   -3.7901 C   0  0  0  0  0  0  0  0  0  0  0  0
    3.1130   -1.9245   -4.2525 H   0  0  0  0  0  0  0  0  0  0  0  0
    1.6560   -0.1919   -3.8954 H   0  0  0  0  0  0  0  0  0  0  0  0
   -0.5949   -2.1237   -3.1963 H   0  0  0  0  0  0  0  0  0  0  0  0
   -0.7103   -0.4112   -3.6413 H   0  0  0  0  0  0  0  0  0  0  0  0
   -0.1995   -1.6053   -4.8470 H   0  0  0  0  0  0  0  0  0  0  0  0
    0.4789   -0.4189   -1.0790 N   0  0  0  0  0  0  0  0  0  0  0  0
    0.5149   -0.0044    0.3446 C   0  0  2  0  0  0  0  0  0  0  0  0
    1.4084    1.2134    0.6973 C   0  0  0  0  0  0  0  0  0  0  0  0
    1.0660    1.9224    1.6357 O   0  0  0  0  0  0  0  0  0  0  0  0
    0.8690   -1.1685    1.3041 C   0  0  0  0  0  0  0  0  0  0  0  0
   -0.1561   -2.3252    1.4193 C   0  0  0  0  0  0  0  0  0  0  0  0
    0.4578   -3.4247    2.2959 C   0  0  0  0  0  0  0  0  0  0  0  0
   -0.5784   -2.9647    0.0910 C   0  0  0  0  0  0  0  0  0  0  0  0
   -0.4385   -0.4996   -1.5081 H   0  0  0  0  0  0  0  0  0  0  0  0
   -0.5013    0.3136    0.5983 H   0  0  0  0  0  0  0  0  0  0  0  0
    1.0069   -0.7559    2.3097 H   0  0  0  0  0  0  0  0  0  0  0  0
    1.8346   -1.5834    0.9960 H   0  0  0  0  0  0  0  0  0  0  0  0
   -1.0556   -1.9417    1.9125 H   0  0  0  0  0  0  0  0  0  0  0  0
    1.3440   -3.8527    1.8162 H   0  0  0  0  0  0  0  0  0  0  0  0
   -0.2658   -4.2277    2.4667 H   0  0  0  0  0  0  0  0  0  0  0  0
    0.7512   -3.0184    3.2688 H   0  0  0  0  0  0  0  0  0  0  0  0
    0.3026   -3.2351   -0.4970 H   0  0  0  0  0  0  0  0  0  0  0  0
   -1.1627   -3.8725    0.2707 H   0  0  0  0  0  0  0  0  0  0  0  0
   -1.2047   -2.2830   -0.4894 H   0  0  0  0  0  0  0  0  0  0  0  0
    2.5570    1.5289   -0.0063 N   0  0  0  0  0  0  0  0  0  0  0  0
    3.4934    2.6455    0.2351 C   0  0  2  0  0  0  0  0  0  0  0  0
    4.2826    2.5628    1.5619 C   0  0  0  0  0  0  0  0  0  0  0  0
    5.4851    2.7929    1.5626 O   0  0  0  0  0  0  0  0  0  0  0  0
    2.7846    4.0008    0.1080 C   0  0  0  0  0  0  0  0  0  0  0  0
    2.8725    0.7836   -0.6329 H   0  0  0  0  0  0  0  0  0  0  0  0
    4.2419    2.6022   -0.5626 H   0  0  0  0  0  0  0  0  0  0  0  0
    2.0961    4.1681    0.9413 H   0  0  0  0  0  0  0  0  0  0  0  0
    3.5220    4.8096    0.1092 H   0  0  0  0  0  0  0  0  0  0  0  0
    2.2195    4.0479   -0.8274 H   0  0  0  0  0  0  0  0  0  0  0  0
    3.6526    2.2666    2.7541 N   0  0  0  0  0  0  0  0  0  0  0  0
    4.3206    2.2356    4.0472 C   0  0  0  0  0  0  0  0  0  0  0  0
    2.6360    2.1595    2.7084 H   0  0  0  0  0  0  0  0  0  0  0  0
    3.6167    1.9311    4.8275 H   0  0  0  0  0  0  0  0  0  0  0  0
    5.1501    1.5211    4.0325 H   0  0  0  0  0  0  0  0  0  0  0  0
    4.7120    3.2264    4.2996 H   0  0  0  0  0  0  0  0  0  0  0  0
  1  2  2  0  0  0  0
  1  3  1  0  0  0  0
  1  7  1  0  0  0  0
  3  4  1  0  0  0  0
  3  5  1  0  0  0  0
  3  6  1  0  0  0  0
  7  8  1  0  0  0  0
  7 12  1  0  0  0  0
  8  9  1  0  0  0  0
  8 11  1  0  0  0  0
  8 13  1  0  0  0  0
  9 10  2  0  0  0  0
  9 17  1  0  0  0  0
 11 14  1  0  0  0  0
 11 15  1  0  0  0  0
 11 16  1  0  0  0  0
 17 18  1  0  0  0  0
 17 25  1  0  0  0  0
 18 19  1  0  0  0  0
 18 21  1  0  0  0  0
 18 26  1  0  0  0  0
 19 20  2  0  0  0  0
 19 36  1  0  0  0  0
 21 22  1  0  0  0  0
 21 27  1  0  0  0  0
 21 28  1  0  0  0  0
 22 23  1  0  0  0  0
 22 24  1  0  0  0  0
 22 29  1  0  0  0  0
 23 30  1  0  0  0  0
 23 31  1  0  0  0  0
 23 32  1  0  0  0  0
 24 33  1  0  0  0  0
 24 34  1  0  0  0  0
 24 35  1  0  0  0  0
 36 37  1  0  0  0  0
 36 41  1  0  0  0  0
 37 38  1  0  0  0  0
 37 40  1  0  0  0  0
 37 42  1  0  0  0  0
 38 39  2  0  0  0  0
 38 46  1  0  0  0  0
 40 43  1  0  0  0  0
 40 44  1  0  0  0  0
 40 45  1  0  0  0  0
 46 47  1  0  0  0  0
 46 48  1  0  0  0  0
 47 49  1  0  0  0  0
 47 50  1  0  0  0  0
 47 51  1  0  0  0  0
M  END
$$$$

  -OEChem-05262216553D

 51 50  0     1  0  0  0  0  0999 V2000
    2.2157   -3.4858   -3.4595 C   0  0  0  0  0  0  0  0  0  0  0  0
    1.3329   -3.9589   -2.7636 O   0  0  0  0  0  0  0  0  0  0  0  0
    3.3972   -4.3496   -3.8596 C   0  0  0  0  0  0  0  0  0  0  0  0
    4.3221   -3.9223   -3.4643 H   0  0  0  0  0  0  0  0  0  0  0  0
    3.2785   -5.3606   -3.4595 H   0  0  0  0  0  0  0  0  0  0  0  0
    3.4655   -4.4086   -4.9485 H   0  0  0  0  0  0  0  0  0  0  0  0
    2.1652   -2.1706   -3.8828 N   0  0  0  0  0  0  0  0  0  0  0  0
    1.2199   -1.1565   -3.3770 C   0  0  2  0  0  0  0  0  0  0  0  0
    1.4547   -0.8053   -1.8858 C   0  0  0  0  0  0  0  0  0  0  0  0
    2.6039   -0.7311   -1.4703 O   0  0  0  0  0  0  0  0  0  0  0  0
   -0.2379   -1.5369   -3.6943 C   0  0  0  0  0  0  0  0  0  0  0  0
    3.0240   -1.8285   -4.3045 H   0  0  0  0  0  0  0  0  0  0  0  0
    1.4217   -0.2340   -3.9297 H   0  0  0  0  0  0  0  0  0  0  0  0
   -0.5896   -2.3474   -3.0494 H   0  0  0  0  0  0  0  0  0  0  0  0
   -0.8963   -0.6749   -3.5520 H   0  0  0  0  0  0  0  0  0  0  0  0
   -0.3240   -1.8632   -4.7353 H   0  0  0  0  0  0  0  0  0  0  0  0
    0.4131   -0.3803   -1.0742 N   0  0  0  0  0  0  0  0  0  0  0  0
    0.4820    0.0242    0.3517 C   0  0  2  0  0  0  0  0  0  0  0  0
    1.3985    1.2289    0.6996 C   0  0  0  0  0  0  0  0  0  0  0  0
    1.2030    1.8154    1.7574 O   0  0  0  0  0  0  0  0  0  0  0  0
    0.8303   -1.1666    1.2824 C   0  0  0  0  0  0  0  0  0  0  0  0
   -0.2170   -2.3047    1.3979 C   0  0  0  0  0  0  0  0  0  0  0  0
    0.3916   -3.4333    2.2405 C   0  0  0  0  0  0  0  0  0  0  0  0
   -0.6895   -2.9101    0.0707 C   0  0  0  0  0  0  0  0  0  0  0  0
   -0.5144   -0.5308   -1.4603 H   0  0  0  0  0  0  0  0  0  0  0  0
   -0.5227    0.3584    0.6287 H   0  0  0  0  0  0  0  0  0  0  0  0
    0.9984   -0.7793    2.2932 H   0  0  0  0  0  0  0  0  0  0  0  0
    1.7801   -1.5949    0.9453 H   0  0  0  0  0  0  0  0  0  0  0  0
   -1.0956   -1.9122    1.9209 H   0  0  0  0  0  0  0  0  0  0  0  0
    1.2570   -3.8708    1.7320 H   0  0  0  0  0  0  0  0  0  0  0  0
   -0.3454   -4.2238    2.4133 H   0  0  0  0  0  0  0  0  0  0  0  0
    0.7159   -3.0522    3.2140 H   0  0  0  0  0  0  0  0  0  0  0  0
    0.1681   -3.1883   -0.5470 H   0  0  0  0  0  0  0  0  0  0  0  0
   -1.2881   -3.8086    0.2507 H   0  0  0  0  0  0  0  0  0  0  0  0
   -1.3172   -2.2039   -0.4782 H   0  0  0  0  0  0  0  0  0  0  0  0
    2.3513    1.7167   -0.1775 N   0  0  0  0  0  0  0  0  0  0  0  0
    3.2371    2.8853    0.0034 C   0  0  2  0  0  0  0  0  0  0  0  0
    4.2807    2.7533    1.1361 C   0  0  0  0  0  0  0  0  0  0  0  0
    5.4447    3.0668    0.9210 O   0  0  0  0  0  0  0  0  0  0  0  0
    2.4227    4.1764    0.1639 C   0  0  0  0  0  0  0  0  0  0  0  0
    2.6263    1.0341   -0.8878 H   0  0  0  0  0  0  0  0  0  0  0  0
    3.8118    2.9861   -0.9230 H   0  0  0  0  0  0  0  0  0  0  0  0
    1.9072    4.2030    1.1283 H   0  0  0  0  0  0  0  0  0  0  0  0
    3.0857    5.0457    0.1088 H   0  0  0  0  0  0  0  0  0  0  0  0
    1.6778    4.2577   -0.6331 H   0  0  0  0  0  0  0  0  0  0  0  0
    3.9207    2.3262    2.3982 N   0  0  0  0  0  0  0  0  0  0  0  0
    4.8431    2.2198    3.5191 C   0  0  0  0  0  0  0  0  0  0  0  0
    2.9281    2.1189    2.5369 H   0  0  0  0  0  0  0  0  0  0  0  0
    4.3086    1.8971    4.4176 H   0  0  0  0  0  0  0  0  0  0  0  0
    5.6273    1.4879    3.2992 H   0  0  0  0  0  0  0  0  0  0  0  0
    5.3103    3.1888    3.7237 H   0  0  0  0  0  0  0  0  0  0  0  0
  1  2  2  0  0  0  0
  1  3  1  0  0  0  0
  1  7  1  0  0  0  0
  3  4  1  0  0  0  0
  3  5  1  0  0  0  0
  3  6  1  0  0  0  0
  7  8  1  0  0  0  0
  7 12  1  0  0  0  0
  8  9  1  0  0  0  0
  8 11  1  0  0  0  0
  8 13  1  0  0  0  0
  9 10  2  0  0  0  0
  9 17  1  0  0  0  0
 11 14  1  0  0  0  0
 11 15  1  0  0  0  0
 11 16  1  0  0  0  0
 17 18  1  0  0  0  0
 17 25  1  0  0  0  0
 18 19  1  0  0  0  0
 18 21  1  0  0  0  0
 18 26  1  0  0  0  0
 19 20  2  0  0  0  0
 19 36  1  0  0  0  0
 21 22  1  0  0  0  0
 21 27  1  0  0  0  0
 21 28  1  0  0  0  0
 22 23  1  0  0  0  0
 22 24  1  0  0  0  0
 22 29  1  0  0  0  0
 23 30  1  0  0  0  0
 23 31  1  0  0  0  0
 23 32  1  0  0  0  0
 24 33  1  0  0  0  0
 24 34  1  0  0  0  0
 24 35  1  0  0  0  0
 36 37  1  0  0  0  0
 36 41  1  0  0  0  0
 37 38  1  0  0  0  0
 37 40  1  0  0  0  0
 37 42  1  0  0  0  0
 38 39  2  0  0  0  0
 38 46  1  0  0  0  0
 40 43  1  0  0  0  0
 40 44  1  0  0  0  0
 40 45  1  0  0  0  0
 46 47  1  0  0  0  0
 46 48  1  0  0  0  0
 47 49  1  0  0  0  0
 47 50  1  0  0  0  0
 47 51  1  0  0  0  0
M  END
$$$$

  -OEChem-05262216553D

 51 50  0     1  0  0  0  0  0999 V2000
    2.3503   -3.4421   -3.3346 C   0  0  0  0  0  0  0  0  0  0  0  0
    1.5112   -3.9435   -2.6055 O   0  0  0  0  0  0  0  0  0  0  0  0
    3.5963   -4.2292   -3.6949 C   0  0  0  0  0  0  0  0  0  0  0  0
    4.4868   -3.6913   -3.3599 H   0  0  0  0  0  0  0  0  0  0  0  0
    3.5763   -5.2095   -3.2104 H   0  0  0  0  0  0  0  0  0  0  0  0
    3.6497   -4.3722   -4.7768 H   0  0  0  0  0  0  0  0  0  0  0  0
    2.1942   -2.1597   -3.8273 N   0  0  0  0  0  0  0  0  0  0  0  0
    1.1835   -1.1947   -3.3538 C   0  0  2  0  0  0  0  0  0  0  0  0
    1.4056   -0.7704   -1.8797 C   0  0  0  0  0  0  0  0  0  0  0  0
    2.5495   -0.5892   -1.4845 O   0  0  0  0  0  0  0  0  0  0  0  0
   -0.2448   -1.6891   -3.6447 C   0  0  0  0  0  0  0  0  0  0  0  0
    3.0217   -1.7754   -4.2744 H   0  0  0  0  0  0  0  0  0  0  0  0
    1.3162   -0.2825   -3.9436 H   0  0  0  0  0  0  0  0  0  0  0  0
   -0.5300   -2.5058   -2.9758 H   0  0  0  0  0  0  0  0  0  0  0  0
   -0.9638   -0.8744   -3.5179 H   0  0  0  0  0  0  0  0  0  0  0  0
   -0.3152   -2.0488   -4.6758 H   0  0  0  0  0  0  0  0  0  0  0  0
    0.3520   -0.3561   -1.0785 N   0  0  0  0  0  0  0  0  0  0  0  0
    0.4272    0.0468    0.3476 C   0  0  2  0  0  0  0  0  0  0  0  0
    1.3435    1.2581    0.6764 C   0  0  0  0  0  0  0  0  0  0  0  0
    1.3153    1.7267    1.8083 O   0  0  0  0  0  0  0  0  0  0  0  0
    0.7763   -1.1504    1.2720 C   0  0  0  0  0  0  0  0  0  0  0  0
   -0.2733   -2.2868    1.3882 C   0  0  0  0  0  0  0  0  0  0  0  0
    0.3376   -3.4201    2.2232 C   0  0  0  0  0  0  0  0  0  0  0  0
   -0.7579   -2.8868    0.0631 C   0  0  0  0  0  0  0  0  0  0  0  0
   -0.5695   -0.5884   -1.4371 H   0  0  0  0  0  0  0  0  0  0  0  0
   -0.5745    0.3839    0.6312 H   0  0  0  0  0  0  0  0  0  0  0  0
    0.9508   -0.7721    2.2850 H   0  0  0  0  0  0  0  0  0  0  0  0
    1.7231   -1.5795    0.9267 H   0  0  0  0  0  0  0  0  0  0  0  0
   -1.1471   -1.8935    1.9185 H   0  0  0  0  0  0  0  0  0  0  0  0
    1.2011   -3.8560    1.7100 H   0  0  0  0  0  0  0  0  0  0  0  0
   -0.3992   -4.2110    2.3951 H   0  0  0  0  0  0  0  0  0  0  0  0
    0.6653   -3.0434    3.1971 H   0  0  0  0  0  0  0  0  0  0  0  0
    0.0941   -3.1751   -0.5575 H   0  0  0  0  0  0  0  0  0  0  0  0
   -1.3657   -3.7784    0.2460 H   0  0  0  0  0  0  0  0  0  0  0  0
   -1.3803   -2.1743   -0.4834 H   0  0  0  0  0  0  0  0  0  0  0  0
    2.0523    1.9203   -0.3115 N   0  0  0  0  0  0  0  0  0  0  0  0
    2.8710    3.1428   -0.1703 C   0  0  2  0  0  0  0  0  0  0  0  0
    4.1318    2.9950    0.7124 C   0  0  0  0  0  0  0  0  0  0  0  0
    5.1972    3.4544    0.3203 O   0  0  0  0  0  0  0  0  0  0  0  0
    2.0192    4.3322    0.2948 C   0  0  0  0  0  0  0  0  0  0  0  0
    2.2743    1.3103   -1.1001 H   0  0  0  0  0  0  0  0  0  0  0  0
    3.2363    3.3889   -1.1723 H   0  0  0  0  0  0  0  0  0  0  0  0
    1.7011    4.2116    1.3342 H   0  0  0  0  0  0  0  0  0  0  0  0
    2.5985    5.2579    0.2228 H   0  0  0  0  0  0  0  0  0  0  0  0
    1.1291    4.4310   -0.3333 H   0  0  0  0  0  0  0  0  0  0  0  0
    4.0744    2.3899    1.9517 N   0  0  0  0  0  0  0  0  0  0  0  0
    5.2086    2.2668    2.8555 C   0  0  0  0  0  0  0  0  0  0  0  0
    3.1485    2.0783    2.2569 H   0  0  0  0  0  0  0  0  0  0  0  0
    4.9176    1.7087    3.7507 H   0  0  0  0  0  0  0  0  0  0  0  0
    6.0307    1.7329    2.3674 H   0  0  0  0  0  0  0  0  0  0  0  0
    5.5619    3.2568    3.1620 H   0  0  0  0  0  0  0  0  0  0  0  0
  1  2  2  0  0  0  0
  1  3  1  0  0  0  0
  1  7  1  0  0  0  0
  3  4  1  0  0  0  0
  3  5  1  0  0  0  0
  3  6  1  0  0  0  0
  7  8  1  0  0  0  0
  7 12  1  0  0  0  0
  8  9  1  0  0  0  0
  8 11  1  0  0  0  0
  8 13  1  0  0  0  0
  9 10  2  0  0  0  0
  9 17  1  0  0  0  0
 11 14  1  0  0  0  0
 11 15  1  0  0  0  0
 11 16  1  0  0  0  0
 17 18  1  0  0  0  0
 17 25  1  0  0  0  0
 18 19  1  0  0  0  0
 18 21  1  0  0  0  0
 18 26  1  0  0  0  0
 19 20  2  0  0  0  0
 19 36  1  0  0  0  0
 21 22  1  0  0  0  0
 21 27  1  0  0  0  0
 21 28  1  0  0  0  0
 22 23  1  0  0  0  0
 22 24  1  0  0  0  0
 22 29  1  0  0  0  0
 23 30  1  0  0  0  0
 23 31  1  0  0  0  0
 23 32  1  0  0  0  0
 24 33  1  0  0  0  0
 24 34  1  0  0  0  0
 24 35  1  0  0  0  0
 36 37  1  0  0  0  0
 36 41  1  0  0  0  0
 37 38  1  0  0  0  0
 37 40  1  0  0  0  0
 37 42  1  0  0  0  0
 38 39  2  0  0  0  0
 38 46  1  0  0  0  0
 40 43  1  0  0  0  0
 40 44  1  0  0  0  0
 40 45  1  0  0  0  0
 46 47  1  0  0  0  0
 46 48  1  0  0  0  0
 47 49  1  0  0  0  0
 47 50  1  0  0  0  0
 47 51  1  0  0  0  0
M  END
$$$$

  -OEChem-05262216553D

 51 50  0     1  0  0  0  0  0999 V2000
    2.3926   -3.4528   -3.2006 C   0  0  0  0  0  0  0  0  0  0  0  0
    1.5058   -3.9455   -2.5241 O   0  0  0  0  0  0  0  0  0  0  0  0
    3.6515   -4.2522   -3.4792 C   0  0  0  0  0  0  0  0  0  0  0  0
    4.5277   -3.7066   -3.1200 H   0  0  0  0  0  0  0  0  0  0  0  0
    3.6060   -5.2177   -2.9674 H   0  0  0  0  0  0  0  0  0  0  0  0
    3.7528   -4.4271   -4.5528 H   0  0  0  0  0  0  0  0  0  0  0  0
    2.2765   -2.1725   -3.7087 N   0  0  0  0  0  0  0  0  0  0  0  0
    1.2480   -1.1954   -3.3042 C   0  0  2  0  0  0  0  0  0  0  0  0
    1.4109   -0.7341   -1.8338 C   0  0  0  0  0  0  0  0  0  0  0  0
    2.5345   -0.4944   -1.4150 O   0  0  0  0  0  0  0  0  0  0  0  0
   -0.1700   -1.6871   -3.6457 C   0  0  0  0  0  0  0  0  0  0  0  0
    3.1347   -1.7956   -4.1016 H   0  0  0  0  0  0  0  0  0  0  0  0
    1.4120   -0.2995   -3.9103 H   0  0  0  0  0  0  0  0  0  0  0  0
   -0.4940   -2.4807   -2.9666 H   0  0  0  0  0  0  0  0  0  0  0  0
   -0.8859   -0.8628   -3.5768 H   0  0  0  0  0  0  0  0  0  0  0  0
   -0.1964   -2.0769   -4.6679 H   0  0  0  0  0  0  0  0  0  0  0  0
    0.3244   -0.3368   -1.0684 N   0  0  0  0  0  0  0  0  0  0  0  0
    0.3731    0.0771    0.3559 C   0  0  2  0  0  0  0  0  0  0  0  0
    1.2722    1.3098    0.6557 C   0  0  0  0  0  0  0  0  0  0  0  0
    1.4463    1.6694    1.8142 O   0  0  0  0  0  0  0  0  0  0  0  0
    0.7162   -1.1103    1.2982 C   0  0  0  0  0  0  0  0  0  0  0  0
   -0.3275   -2.2533    1.4064 C   0  0  0  0  0  0  0  0  0  0  0  0
    0.2748   -3.3767    2.2616 C   0  0  0  0  0  0  0  0  0  0  0  0
   -0.7856   -2.8662    0.0782 C   0  0  0  0  0  0  0  0  0  0  0  0
   -0.5784   -0.6321   -1.4289 H   0  0  0  0  0  0  0  0  0  0  0  0
   -0.6340    0.4097    0.6238 H   0  0  0  0  0  0  0  0  0  0  0  0
    0.8689   -0.7251    2.3119 H   0  0  0  0  0  0  0  0  0  0  0  0
    1.6727   -1.5340    0.9736 H   0  0  0  0  0  0  0  0  0  0  0  0
   -1.2124   -1.8612    1.9188 H   0  0  0  0  0  0  0  0  0  0  0  0
    1.1486   -3.8135    1.7669 H   0  0  0  0  0  0  0  0  0  0  0  0
   -0.4612   -4.1695    2.4282 H   0  0  0  0  0  0  0  0  0  0  0  0
    0.5851   -2.9909    3.2378 H   0  0  0  0  0  0  0  0  0  0  0  0
    0.0791   -3.1462   -0.5278 H   0  0  0  0  0  0  0  0  0  0  0  0
   -1.3841   -3.7650    0.2566 H   0  0  0  0  0  0  0  0  0  0  0  0
   -1.4089   -2.1645   -0.4810 H   0  0  0  0  0  0  0  0  0  0  0  0
    1.7095    2.1242   -0.3759 N   0  0  0  0  0  0  0  0  0  0  0  0
    2.4735    3.3847   -0.2661 C   0  0  2  0  0  0  0  0  0  0  0  0
    3.8990    3.2434    0.3162 C   0  0  0  0  0  0  0  0  0  0  0  0
    4.8357    3.7896   -0.2533 O   0  0  0  0  0  0  0  0  0  0  0  0
    1.6794    4.4536    0.4973 C   0  0  0  0  0  0  0  0  0  0  0  0
    1.7773    1.6263   -1.2606 H   0  0  0  0  0  0  0  0  0  0  0  0
    2.6034    3.7591   -1.2864 H   0  0  0  0  0  0  0  0  0  0  0  0
    1.6068    4.2106    1.5613 H   0  0  0  0  0  0  0  0  0  0  0  0
    2.1755    5.4248    0.4043 H   0  0  0  0  0  0  0  0  0  0  0  0
    0.6683    4.5403    0.0890 H   0  0  0  0  0  0  0  0  0  0  0  0
    4.1335    2.5455    1.4837 N   0  0  0  0  0  0  0  0  0  0  0  0
    5.4459    2.3847    2.0924 C   0  0  0  0  0  0  0  0  0  0  0  0
    3.3137    2.1255    1.9295 H   0  0  0  0  0  0  0  0  0  0  0  0
    6.1315    1.8889    1.3975 H   0  0  0  0  0  0  0  0  0  0  0  0
    5.8630    3.3593    2.3657 H   0  0  0  0  0  0  0  0  0  0  0  0
    5.3695    1.7746    2.9972 H   0  0  0  0  0  0  0  0  0  0  0  0
  1  2  2  0  0  0  0
  1  3  1  0  0  0  0
  1  7  1  0  0  0  0
  3  4  1  0  0  0  0
  3  5  1  0  0  0  0
  3  6  1  0  0  0  0
  7  8  1  0  0  0  0
  7 12  1  0  0  0  0
  8  9  1  0  0  0  0
  8 11  1  0  0  0  0
  8 13  1  0  0  0  0
  9 10  2  0  0  0  0
  9 17  1  0  0  0  0
 11 14  1  0  0  0  0
 11 15  1  0  0  0  0
 11 16  1  0  0  0  0
 17 18  1  0  0  0  0
 17 25  1  0  0  0  0
 18 19  1  0  0  0  0
 18 21  1  0  0  0  0
 18 26  1  0  0  0  0
 19 20  2  0  0  0  0
 19 36  1  0  0  0  0
 21 22  1  0  0  0  0
 21 27  1  0  0  0  0
 21 28  1  0  0  0  0
 22 23  1  0  0  0  0
 22 24  1  0  0  0  0
 22 29  1  0  0  0  0
 23 30  1  0  0  0  0
 23 31  1  0  0  0  0
 23 32  1  0  0  0  0
 24 33  1  0  0  0  0
 24 34  1  0  0  0  0
 24 35  1  0  0  0  0
 36 37  1  0  0  0  0
 36 41  1  0  0  0  0
 37 38  1  0  0  0  0
 37 40  1  0  0  0  0
 37 42  1  0  0  0  0
 38 39  2  0  0  0  0
 38 46  1  0  0  0  0
 40 43  1  0  0  0  0
 40 44  1  0  0  0  0
 40 45  1  0  0  0  0
 46 47  1  0  0  0  0
 46 48  1  0  0  0  0
 47 49  1  0  0  0  0
 47 50  1  0  0  0  0
 47 51  1  0  0  0  0
M  END
$$$$

  -OEChem-05262216553D

 51 50  0     1  0  0  0  0  0999 V2000
    2.6894   -3.1971   -3.0342 C   0  0  0  0  0  0  0  0  0  0  0  0
    1.7929   -3.7717   -2.4394 O   0  0  0  0  0  0  0  0  0  0  0  0
    4.0330   -3.8810   -3.2034 C   0  0  0  0  0  0  0  0  0  0  0  0
    4.8122   -3.2981   -2.7057 H   0  0  0  0  0  0  0  0  0  0  0  0
    4.0056   -4.8808   -2.7606 H   0  0  0  0  0  0  0  0  0  0  0  0
    4.2764   -3.9726   -4.2646 H   0  0  0  0  0  0  0  0  0  0  0  0
    2.5119   -1.9225   -3.5390 N   0  0  0  0  0  0  0  0  0  0  0  0
    1.3883   -1.0317   -3.1927 C   0  0  2  0  0  0  0  0  0  0  0  0
    1.4161   -0.5945   -1.7069 C   0  0  0  0  0  0  0  0  0  0  0  0
    2.4928   -0.3160   -1.1982 O   0  0  0  0  0  0  0  0  0  0  0  0
    0.0357   -1.6149   -3.6393 C   0  0  0  0  0  0  0  0  0  0  0  0
    3.3703   -1.4707   -3.8427 H   0  0  0  0  0  0  0  0  0  0  0  0
    1.5287   -0.1130   -3.7701 H   0  0  0  0  0  0  0  0  0  0  0  0
   -0.2702   -2.4502   -3.0035 H   0  0  0  0  0  0  0  0  0  0  0  0
   -0.7428   -0.8476   -3.5956 H   0  0  0  0  0  0  0  0  0  0  0  0
    0.1032   -1.9737   -4.6709 H   0  0  0  0  0  0  0  0  0  0  0  0
    0.2515   -0.2993   -1.0104 N   0  0  0  0  0  0  0  0  0  0  0  0
    0.2050    0.0751    0.4233 C   0  0  2  0  0  0  0  0  0  0  0  0
    1.0145    1.3614    0.7483 C   0  0  0  0  0  0  0  0  0  0  0  0
    1.4693    1.5636    1.8676 O   0  0  0  0  0  0  0  0  0  0  0  0
    0.5677   -1.1106    1.3591 C   0  0  0  0  0  0  0  0  0  0  0  0
   -0.4139   -2.3114    1.3866 C   0  0  0  0  0  0  0  0  0  0  0  0
    0.2071   -3.4175    2.2502 C   0  0  0  0  0  0  0  0  0  0  0  0
   -0.7672   -2.9180    0.0235 C   0  0  0  0  0  0  0  0  0  0  0  0
   -0.5970   -0.6820   -1.4179 H   0  0  0  0  0  0  0  0  0  0  0  0
   -0.8306    0.3426    0.6521 H   0  0  0  0  0  0  0  0  0  0  0  0
    0.6395   -0.7390    2.3866 H   0  0  0  0  0  0  0  0  0  0  0  0
    1.5638   -1.4715    1.0813 H   0  0  0  0  0  0  0  0  0  0  0  0
   -1.3451   -1.9812    1.8590 H   0  0  0  0  0  0  0  0  0  0  0  0
    1.1232   -3.7993    1.7873 H   0  0  0  0  0  0  0  0  0  0  0  0
   -0.4935   -4.2497    2.3713 H   0  0  0  0  0  0  0  0  0  0  0  0
    0.4544   -3.0341    3.2451 H   0  0  0  0  0  0  0  0  0  0  0  0
    0.1415   -3.1322   -0.5439 H   0  0  0  0  0  0  0  0  0  0  0  0
   -1.3186   -3.8546    0.1530 H   0  0  0  0  0  0  0  0  0  0  0  0
   -1.4034   -2.2414   -0.5519 H   0  0  0  0  0  0  0  0  0  0  0  0
    1.1431    2.3388   -0.2262 N   0  0  0  0  0  0  0  0  0  0  0  0
    1.9180    3.5939   -0.1370 C   0  0  2  0  0  0  0  0  0  0  0  0
    3.4471    3.3916   -0.0346 C   0  0  0  0  0  0  0  0  0  0  0  0
    4.1828    3.9871   -0.8126 O   0  0  0  0  0  0  0  0  0  0  0  0
    1.4051    4.5004    0.9911 C   0  0  0  0  0  0  0  0  0  0  0  0
    0.9039    2.0146   -1.1577 H   0  0  0  0  0  0  0  0  0  0  0  0
    1.7476    4.1344   -1.0735 H   0  0  0  0  0  0  0  0  0  0  0  0
    1.6511    4.0917    1.9754 H   0  0  0  0  0  0  0  0  0  0  0  0
    1.8650    5.4904    0.9121 H   0  0  0  0  0  0  0  0  0  0  0  0
    0.3194    4.6154    0.9221 H   0  0  0  0  0  0  0  0  0  0  0  0
    3.9947    2.5470    0.9097 N   0  0  0  0  0  0  0  0  0  0  0  0
    5.4071    2.1995    0.9657 C   0  0  0  0  0  0  0  0  0  0  0  0
    3.3260    2.0207    1.4784 H   0  0  0  0  0  0  0  0  0  0  0  0
    5.7044    1.6644    0.0577 H   0  0  0  0  0  0  0  0  0  0  0  0
    6.0208    3.1014    1.0622 H   0  0  0  0  0  0  0  0  0  0  0  0
    5.6019    1.5557    1.8288 H   0  0  0  0  0  0  0  0  0  0  0  0
  1  2  2  0  0  0  0
  1  3  1  0  0  0  0
  1  7  1  0  0  0  0
  3  4  1  0  0  0  0
  3  5  1  0  0  0  0
  3  6  1  0  0  0  0
  7  8  1  0  0  0  0
  7 12  1  0  0  0  0
  8  9  1  0  0  0  0
  8 11  1  0  0  0  0
  8 13  1  0  0  0  0
  9 10  2  0  0  0  0
  9 17  1  0  0  0  0
 11 14  1  0  0  0  0
 11 15  1  0  0  0  0
 11 16  1  0  0  0  0
 17 18  1  0  0  0  0
 17 25  1  0  0  0  0
 18 19  1  0  0  0  0
 18 21  1  0  0  0  0
 18 26  1  0  0  0  0
 19 20  2  0  0  0  0
 19 36  1  0  0  0  0
 21 22  1  0  0  0  0
 21 27  1  0  0  0  0
 21 28  1  0  0  0  0
 22 23  1  0  0  0  0
 22 24  1  0  0  0  0
 22 29  1  0  0  0  0
 23 30  1  0  0  0  0
 23 31  1  0  0  0  0
 23 32  1  0  0  0  0
 24 33  1  0  0  0  0
 24 34  1  0  0  0  0
 24 35  1  0  0  0  0
 36 37  1  0  0  0  0
 36 41  1  0  0  0  0
 37 38  1  0  0  0  0
 37 40  1  0  0  0  0
 37 42  1  0  0  0  0
 38 39  2  0  0  0  0
 38 46  1  0  0  0  0
 40 43  1  0  0  0  0
 40 44  1  0  0  0  0
 40 45  1  0  0  0  0
 46 47  1  0  0  0  0
 46 48  1  0  0  0  0
 47 49  1  0  0  0  0
 47 50  1  0  0  0  0
 47 51  1  0  0  0  0
M  END
$$$$

  -OEChem-05262216553D

 51 50  0     1  0  0  0  0  0999 V2000
    2.8713   -2.9449   -2.9642 C   0  0  0  0  0  0  0  0  0  0  0  0
    1.9647   -3.5770   -2.4478 O   0  0  0  0  0  0  0  0  0  0  0  0
    4.2385   -3.5853   -3.1145 C   0  0  0  0  0  0  0  0  0  0  0  0
    4.9844   -3.0051   -2.5654 H   0  0  0  0  0  0  0  0  0  0  0  0
    4.2239   -4.6040   -2.7168 H   0  0  0  0  0  0  0  0  0  0  0  0
    4.5193   -3.6236   -4.1697 H   0  0  0  0  0  0  0  0  0  0  0  0
    2.6810   -1.6483   -3.4039 N   0  0  0  0  0  0  0  0  0  0  0  0
    1.5149   -0.8115   -3.0651 C   0  0  2  0  0  0  0  0  0  0  0  0
    1.4483   -0.4703   -1.5557 C   0  0  0  0  0  0  0  0  0  0  0  0
    2.4897   -0.2162   -0.9662 O   0  0  0  0  0  0  0  0  0  0  0  0
    0.2088   -1.4043   -3.6236 C   0  0  0  0  0  0  0  0  0  0  0  0
    3.5381   -1.1556   -3.6395 H   0  0  0  0  0  0  0  0  0  0  0  0
    1.6572    0.1468   -3.5738 H   0  0  0  0  0  0  0  0  0  0  0  0
   -0.1093   -2.2815   -3.0530 H   0  0  0  0  0  0  0  0  0  0  0  0
   -0.5932   -0.6612   -3.5868 H   0  0  0  0  0  0  0  0  0  0  0  0
    0.3484   -1.7040   -4.6668 H   0  0  0  0  0  0  0  0  0  0  0  0
    0.2357   -0.2472   -0.9150 N   0  0  0  0  0  0  0  0  0  0  0  0
    0.0970    0.0666    0.5257 C   0  0  2  0  0  0  0  0  0  0  0  0
    0.8484    1.3706    0.9045 C   0  0  0  0  0  0  0  0  0  0  0  0
    1.5301    1.4586    1.9184 O   0  0  0  0  0  0  0  0  0  0  0  0
    0.4619   -1.1311    1.4441 C   0  0  0  0  0  0  0  0  0  0  0  0
   -0.4638   -2.3739    1.3793 C   0  0  0  0  0  0  0  0  0  0  0  0
    0.1569   -3.4804    2.2424 C   0  0  0  0  0  0  0  0  0  0  0  0
   -0.7085   -2.9483   -0.0216 C   0  0  0  0  0  0  0  0  0  0  0  0
   -0.5755   -0.6315   -1.3906 H   0  0  0  0  0  0  0  0  0  0  0  0
   -0.9576    0.2874    0.7142 H   0  0  0  0  0  0  0  0  0  0  0  0
    0.4613   -0.7849    2.4833 H   0  0  0  0  0  0  0  0  0  0  0  0
    1.4874   -1.4389    1.2122 H   0  0  0  0  0  0  0  0  0  0  0  0
   -1.4350   -2.1018    1.8060 H   0  0  0  0  0  0  0  0  0  0  0  0
    1.1182   -3.8013    1.8274 H   0  0  0  0  0  0  0  0  0  0  0  0
   -0.5074   -4.3490    2.2902 H   0  0  0  0  0  0  0  0  0  0  0  0
    0.3221   -3.1218    3.2633 H   0  0  0  0  0  0  0  0  0  0  0  0
    0.2406   -3.1074   -0.5397 H   0  0  0  0  0  0  0  0  0  0  0  0
   -1.2278   -3.9096    0.0443 H   0  0  0  0  0  0  0  0  0  0  0  0
   -1.3365   -2.2787   -0.6140 H   0  0  0  0  0  0  0  0  0  0  0  0
    0.7067    2.4705    0.0725 N   0  0  0  0  0  0  0  0  0  0  0  0
    1.5090    3.7103    0.1117 C   0  0  2  0  0  0  0  0  0  0  0  0
    2.9967    3.4842   -0.2399 C   0  0  0  0  0  0  0  0  0  0  0  0
    3.4732    4.0548   -1.2141 O   0  0  0  0  0  0  0  0  0  0  0  0
    1.3561    4.4631    1.4416 C   0  0  0  0  0  0  0  0  0  0  0  0
    0.2452    2.2594   -0.8064 H   0  0  0  0  0  0  0  0  0  0  0  0
    1.1086    4.3704   -0.6643 H   0  0  0  0  0  0  0  0  0  0  0  0
    1.8561    3.9375    2.2601 H   0  0  0  0  0  0  0  0  0  0  0  0
    1.8014    5.4594    1.3590 H   0  0  0  0  0  0  0  0  0  0  0  0
    0.2978    4.5763    1.6947 H   0  0  0  0  0  0  0  0  0  0  0  0
    3.7681    2.5957    0.4814 N   0  0  0  0  0  0  0  0  0  0  0  0
    5.0716    2.1283    0.0339 C   0  0  0  0  0  0  0  0  0  0  0  0
    3.2538    2.0256    1.1591 H   0  0  0  0  0  0  0  0  0  0  0  0
    5.5205    1.4830    0.7949 H   0  0  0  0  0  0  0  0  0  0  0  0
    4.9716    1.5553   -0.8937 H   0  0  0  0  0  0  0  0  0  0  0  0
    5.7450    2.9735   -0.1417 H   0  0  0  0  0  0  0  0  0  0  0  0
  1  2  2  0  0  0  0
  1  3  1  0  0  0  0
  1  7  1  0  0  0  0
  3  4  1  0  0  0  0
  3  5  1  0  0  0  0
  3  6  1  0  0  0  0
  7  8  1  0  0  0  0
  7 12  1  0  0  0  0
  8  9  1  0  0  0  0
  8 11  1  0  0  0  0
  8 13  1  0  0  0  0
  9 10  2  0  0  0  0
  9 17  1  0  0  0  0
 11 14  1  0  0  0  0
 11 15  1  0  0  0  0
 11 16  1  0  0  0  0
 17 18  1  0  0  0  0
 17 25  1  0  0  0  0
 18 19  1  0  0  0  0
 18 21  1  0  0  0  0
 18 26  1  0  0  0  0
 19 20  2  0  0  0  0
 19 36  1  0  0  0  0
 21 22  1  0  0  0  0
 21 27  1  0  0  0  0
 21 28  1  0  0  0  0
 22 23  1  0  0  0  0
 22 24  1  0  0  0  0
 22 29  1  0  0  0  0
 23 30  1  0  0  0  0
 23 31  1  0  0  0  0
 23 32  1  0  0  0  0
 24 33  1  0  0  0  0
 24 34  1  0  0  0  0
 24 35  1  0  0  0  0
 36 37  1  0  0  0  0
 36 41  1  0  0  0  0
 37 38  1  0  0  0  0
 37 40  1  0  0  0  0
 37 42  1  0  0  0  0
 38 39  2  0  0  0  0
 38 46  1  0  0  0  0
 40 43  1  0  0  0  0
 40 44  1  0  0  0  0
 40 45  1  0  0  0  0
 46 47  1  0  0  0  0
 46 48  1  0  0  0  0
 47 49  1  0  0  0  0
 47 50  1  0  0  0  0
 47 51  1  0  0  0  0
M  END
$$$$

  -OEChem-05262216553D

 51 50  0     1  0  0  0  0  0999 V2000
    2.8011   -2.9541   -3.0370 C   0  0  0  0  0  0  0  0  0  0  0  0
    1.8316   -3.5603   -2.6123 O   0  0  0  0  0  0  0  0  0  0  0  0
    4.1294   -3.6735   -3.1770 C   0  0  0  0  0  0  0  0  0  0  0  0
    4.8690   -3.2219   -2.5109 H   0  0  0  0  0  0  0  0  0  0  0  0
    4.0163   -4.7288   -2.9133 H   0  0  0  0  0  0  0  0  0  0  0  0
    4.4863   -3.6053   -4.2073 H   0  0  0  0  0  0  0  0  0  0  0  0
    2.7187   -1.6177   -3.3804 N   0  0  0  0  0  0  0  0  0  0  0  0
    1.5970   -0.7251   -3.0333 C   0  0  2  0  0  0  0  0  0  0  0  0
    1.5095   -0.4473   -1.5122 C   0  0  0  0  0  0  0  0  0  0  0  0
    2.5466   -0.2387   -0.8983 O   0  0  0  0  0  0  0  0  0  0  0  0
    0.2713   -1.2037   -3.6526 C   0  0  0  0  0  0  0  0  0  0  0  0
    3.6171   -1.1707   -3.5416 H   0  0  0  0  0  0  0  0  0  0  0  0
    1.8145    0.2436   -3.4933 H   0  0  0  0  0  0  0  0  0  0  0  0
   -0.1265   -2.0741   -3.1233 H   0  0  0  0  0  0  0  0  0  0  0  0
   -0.4768   -0.4067   -3.6133 H   0  0  0  0  0  0  0  0  0  0  0  0
    0.4235   -1.4774   -4.7013 H   0  0  0  0  0  0  0  0  0  0  0  0
    0.2886   -0.2331   -0.8857 N   0  0  0  0  0  0  0  0  0  0  0  0
    0.1142    0.0493    0.5565 C   0  0  2  0  0  0  0  0  0  0  0  0
    0.8604    1.3414    0.9761 C   0  0  0  0  0  0  0  0  0  0  0  0
    1.6951    1.3504    1.8723 O   0  0  0  0  0  0  0  0  0  0  0  0
    0.4590   -1.1604    1.4651 C   0  0  0  0  0  0  0  0  0  0  0  0
   -0.4604   -2.4044    1.3571 C   0  0  0  0  0  0  0  0  0  0  0  0
    0.1401   -3.5228    2.2187 C   0  0  0  0  0  0  0  0  0  0  0  0
   -0.6608   -2.9555   -0.0597 C   0  0  0  0  0  0  0  0  0  0  0  0
   -0.5183   -0.5754   -1.3989 H   0  0  0  0  0  0  0  0  0  0  0  0
   -0.9446    0.2648    0.7257 H   0  0  0  0  0  0  0  0  0  0  0  0
    0.4325   -0.8266    2.5081 H   0  0  0  0  0  0  0  0  0  0  0  0
    1.4906   -1.4625    1.2542 H   0  0  0  0  0  0  0  0  0  0  0  0
   -1.4442   -2.1425    1.7603 H   0  0  0  0  0  0  0  0  0  0  0  0
    1.1112   -3.8373    1.8225 H   0  0  0  0  0  0  0  0  0  0  0  0
   -0.5248   -4.3919    2.2374 H   0  0  0  0  0  0  0  0  0  0  0  0
    0.2801   -3.1789    3.2483 H   0  0  0  0  0  0  0  0  0  0  0  0
    0.3046   -3.0972   -0.5521 H   0  0  0  0  0  0  0  0  0  0  0  0
   -1.1738   -3.9219   -0.0264 H   0  0  0  0  0  0  0  0  0  0  0  0
   -1.2764   -2.2794   -0.6575 H   0  0  0  0  0  0  0  0  0  0  0  0
    0.5043    2.5307    0.3590 N   0  0  0  0  0  0  0  0  0  0  0  0
    1.2250    3.8167    0.4603 C   0  0  2  0  0  0  0  0  0  0  0  0
    2.6491    3.7706   -0.1406 C   0  0  0  0  0  0  0  0  0  0  0  0
    2.9315    4.5217   -1.0661 O   0  0  0  0  0  0  0  0  0  0  0  0
    1.2431    4.3605    1.8965 C   0  0  0  0  0  0  0  0  0  0  0  0
   -0.1096    2.4177   -0.4413 H   0  0  0  0  0  0  0  0  0  0  0  0
    0.6639    4.5416   -0.1384 H   0  0  0  0  0  0  0  0  0  0  0  0
    1.9100    3.7767    2.5372 H   0  0  0  0  0  0  0  0  0  0  0  0
    1.5953    5.3965    1.8981 H   0  0  0  0  0  0  0  0  0  0  0  0
    0.2374    4.3355    2.3260 H   0  0  0  0  0  0  0  0  0  0  0  0
    3.5752    2.8428    0.2917 N   0  0  0  0  0  0  0  0  0  0  0  0
    4.8336    2.5824   -0.3910 C   0  0  0  0  0  0  0  0  0  0  0  0
    3.2201    2.1380    0.9450 H   0  0  0  0  0  0  0  0  0  0  0  0
    5.4246    3.5004   -0.4731 H   0  0  0  0  0  0  0  0  0  0  0  0
    5.4174    1.8452    0.1685 H   0  0  0  0  0  0  0  0  0  0  0  0
    4.6480    2.1883   -1.3953 H   0  0  0  0  0  0  0  0  0  0  0  0
  1  2  2  0  0  0  0
  1  3  1  0  0  0  0
  1  7  1  0  0  0  0
  3  4  1  0  0  0  0
  3  5  1  0  0  0  0
  3  6  1  0  0  0  0
  7  8  1  0  0  0  0
  7 12  1  0  0  0  0
  8  9  1  0  0  0  0
  8 11  1  0  0  0  0
  8 13  1  0  0  0  0
  9 10  2  0  0  0  0
  9 17  1  0  0  0  0
 11 14  1  0  0  0  0
 11 15  1  0  0  0  0
 11 16  1  0  0  0  0
 17 18  1  0  0  0  0
 17 25  1  0  0  0  0
 18 19  1  0  0  0  0
 18 21  1  0  0  0  0
 18 26  1  0  0  0  0
 19 20  2  0  0  0  0
 19 36  1  0  0  0  0
 21 22  1  0  0  0  0
 21 27  1  0  0  0  0
 21 28  1  0  0  0  0
 22 23  1  0  0  0  0
 22 24  1  0  0  0  0
 22 29  1  0  0  0  0
 23 30  1  0  0  0  0
 23 31  1  0  0  0  0
 23 32  1  0  0  0  0
 24 33  1  0  0  0  0
 24 34  1  0  0  0  0
 24 35  1  0  0  0  0
 36 37  1  0  0  0  0
 36 41  1  0  0  0  0
 37 38  1  0  0  0  0
 37 40  1  0  0  0  0
 37 42  1  0  0  0  0
 38 39  2  0  0  0  0
 38 46  1  0  0  0  0
 40 43  1  0  0  0  0
 40 44  1  0  0  0  0
 40 45  1  0  0  0  0
 46 47  1  0  0  0  0
 46 48  1  0  0  0  0
 47 49  1  0  0  0  0
 47 50  1  0  0  0  0
 47 51  1  0  0  0  0
M  END
$$$$

  -OEChem-05262216553D

 51 50  0     1  0  0  0  0  0999 V2000
    2.8394   -2.9055   -3.0220 C   0  0  0  0  0  0  0  0  0  0  0  0
    1.8733   -3.5245   -2.6076 O   0  0  0  0  0  0  0  0  0  0  0  0
    4.1758   -3.6106   -3.1614 C   0  0  0  0  0  0  0  0  0  0  0  0
    4.9031   -3.1672   -2.4766 H   0  0  0  0  0  0  0  0  0  0  0  0
    4.0697   -4.6724   -2.9219 H   0  0  0  0  0  0  0  0  0  0  0  0
    4.5443   -3.5167   -4.1857 H   0  0  0  0  0  0  0  0  0  0  0  0
    2.7471   -1.5666   -3.3529 N   0  0  0  0  0  0  0  0  0  0  0  0
    1.6189   -0.6864   -2.9942 C   0  0  2  0  0  0  0  0  0  0  0  0
    1.5277   -0.4307   -1.4693 C   0  0  0  0  0  0  0  0  0  0  0  0
    2.5650   -0.2438   -0.8497 O   0  0  0  0  0  0  0  0  0  0  0  0
    0.2970   -1.1645   -3.6219 C   0  0  0  0  0  0  0  0  0  0  0  0
    3.6434   -1.1113   -3.5009 H   0  0  0  0  0  0  0  0  0  0  0  0
    1.8301    0.2905   -3.4394 H   0  0  0  0  0  0  0  0  0  0  0  0
   -0.0986   -2.0424   -3.1030 H   0  0  0  0  0  0  0  0  0  0  0  0
   -0.4543   -0.3706   -3.5759 H   0  0  0  0  0  0  0  0  0  0  0  0
    0.4527   -1.4262   -4.6731 H   0  0  0  0  0  0  0  0  0  0  0  0
    0.3045   -0.2092   -0.8503 N   0  0  0  0  0  0  0  0  0  0  0  0
    0.1063    0.0515    0.5924 C   0  0  2  0  0  0  0  0  0  0  0  0
    0.8592    1.3247    1.0532 C   0  0  0  0  0  0  0  0  0  0  0  0
    1.8343    1.2708    1.7917 O   0  0  0  0  0  0  0  0  0  0  0  0
    0.4296   -1.1723    1.4883 C   0  0  0  0  0  0  0  0  0  0  0  0
   -0.4922   -2.4108    1.3469 C   0  0  0  0  0  0  0  0  0  0  0  0
    0.0902   -3.5432    2.2029 C   0  0  0  0  0  0  0  0  0  0  0  0
   -0.6680   -2.9396   -0.0818 C   0  0  0  0  0  0  0  0  0  0  0  0
   -0.5013   -0.5191   -1.3847 H   0  0  0  0  0  0  0  0  0  0  0  0
   -0.9542    0.2684    0.7465 H   0  0  0  0  0  0  0  0  0  0  0  0
    0.3899   -0.8507    2.5347 H   0  0  0  0  0  0  0  0  0  0  0  0
    1.4628   -1.4770    1.2886 H   0  0  0  0  0  0  0  0  0  0  0  0
   -1.4824   -2.1515    1.7366 H   0  0  0  0  0  0  0  0  0  0  0  0
    1.0705   -3.8496    1.8233 H   0  0  0  0  0  0  0  0  0  0  0  0
   -0.5736   -4.4134    2.1920 H   0  0  0  0  0  0  0  0  0  0  0  0
    0.2062   -3.2170    3.2411 H   0  0  0  0  0  0  0  0  0  0  0  0
    0.3057   -3.0687   -0.5616 H   0  0  0  0  0  0  0  0  0  0  0  0
   -1.1769   -3.9086   -0.0723 H   0  0  0  0  0  0  0  0  0  0  0  0
   -1.2773   -2.2562   -0.6782 H   0  0  0  0  0  0  0  0  0  0  0  0
    0.3402    2.5620    0.7039 N   0  0  0  0  0  0  0  0  0  0  0  0
    1.0264    3.8626    0.8556 C   0  0  2  0  0  0  0  0  0  0  0  0
    2.3156    3.9835    0.0089 C   0  0  0  0  0  0  0  0  0  0  0  0
    2.4241    4.9108   -0.7836 O   0  0  0  0  0  0  0  0  0  0  0  0
    1.2935    4.2118    2.3270 C   0  0  0  0  0  0  0  0  0  0  0  0
   -0.4168    2.5274    0.0286 H   0  0  0  0  0  0  0  0  0  0  0  0
    0.3396    4.6260    0.4758 H   0  0  0  0  0  0  0  0  0  0  0  0
    2.0837    3.5856    2.7503 H   0  0  0  0  0  0  0  0  0  0  0  0
    1.6103    5.2559    2.4106 H   0  0  0  0  0  0  0  0  0  0  0  0
    0.3847    4.0761    2.9206 H   0  0  0  0  0  0  0  0  0  0  0  0
    3.3077    3.0250    0.0693 N   0  0  0  0  0  0  0  0  0  0  0  0
    4.4596    2.9843   -0.8183 C   0  0  0  0  0  0  0  0  0  0  0  0
    3.1165    2.2133    0.6661 H   0  0  0  0  0  0  0  0  0  0  0  0
    5.0589    3.8943   -0.7112 H   0  0  0  0  0  0  0  0  0  0  0  0
    5.0894    2.1236   -0.5732 H   0  0  0  0  0  0  0  0  0  0  0  0
    4.1369    2.8919   -1.8602 H   0  0  0  0  0  0  0  0  0  0  0  0
  1  2  2  0  0  0  0
  1  3  1  0  0  0  0
  1  7  1  0  0  0  0
  3  4  1  0  0  0  0
  3  5  1  0  0  0  0
  3  6  1  0  0  0  0
  7  8  1  0  0  0  0
  7 12  1  0  0  0  0
  8  9  1  0  0  0  0
  8 11  1  0  0  0  0
  8 13  1  0  0  0  0
  9 10  2  0  0  0  0
  9 17  1  0  0  0  0
 11 14  1  0  0  0  0
 11 15  1  0  0  0  0
 11 16  1  0  0  0  0
 17 18  1  0  0  0  0
 17 25  1  0  0  0  0
 18 19  1  0  0  0  0
 18 21  1  0  0  0  0
 18 26  1  0  0  0  0
 19 20  2  0  0  0  0
 19 36  1  0  0  0  0
 21 22  1  0  0  0  0
 21 27  1  0  0  0  0
 21 28  1  0  0  0  0
 22 23  1  0  0  0  0
 22 24  1  0  0  0  0
 22 29  1  0  0  0  0
 23 30  1  0  0  0  0
 23 31  1  0  0  0  0
 23 32  1  0  0  0  0
 24 33  1  0  0  0  0
 24 34  1  0  0  0  0
 24 35  1  0  0  0  0
 36 37  1  0  0  0  0
 36 41  1  0  0  0  0
 37 38  1  0  0  0  0
 37 40  1  0  0  0  0
 37 42  1  0  0  0  0
 38 39  2  0  0  0  0
 38 46  1  0  0  0  0
 40 43  1  0  0  0  0
 40 44  1  0  0  0  0
 40 45  1  0  0  0  0
 46 47  1  0  0  0  0
 46 48  1  0  0  0  0
 47 49  1  0  0  0  0
 47 50  1  0  0  0  0
 47 51  1  0  0  0  0
M  END
$$$$

  -OEChem-05262216553D

 51 50  0     1  0  0  0  0  0999 V2000
    0.9439   -2.5964   -3.3756 C   0  0  0  0  0  0  0  0  0  0  0  0
    0.0680   -1.7806   -3.1313 O   0  0  0  0  0  0  0  0  0  0  0  0
    0.5643   -3.9661   -3.9050 C   0  0  0  0  0  0  0  0  0  0  0  0
    0.8234   -4.7343   -3.1722 H   0  0  0  0  0  0  0  0  0  0  0  0
   -0.5113   -4.0124   -4.0982 H   0  0  0  0  0  0  0  0  0  0  0  0
    1.0965   -4.1674   -4.8379 H   0  0  0  0  0  0  0  0  0  0  0  0
    2.2718   -2.3159   -3.1118 N   0  0  0  0  0  0  0  0  0  0  0  0
    2.8388   -1.0371   -2.6307 C   0  0  2  0  0  0  0  0  0  0  0  0
    2.4505   -0.6415   -1.1872 C   0  0  0  0  0  0  0  0  0  0  0  0
    3.3325   -0.2884   -0.4214 O   0  0  0  0  0  0  0  0  0  0  0  0
    2.5273    0.1065   -3.6061 C   0  0  0  0  0  0  0  0  0  0  0  0
    2.9273   -3.0682   -3.3062 H   0  0  0  0  0  0  0  0  0  0  0  0
    3.9270   -1.1586   -2.6228 H   0  0  0  0  0  0  0  0  0  0  0  0
    1.4605    0.3484   -3.6089 H   0  0  0  0  0  0  0  0  0  0  0  0
    3.0790    1.0063   -3.3150 H   0  0  0  0  0  0  0  0  0  0  0  0
    2.8257   -0.1679   -4.6223 H   0  0  0  0  0  0  0  0  0  0  0  0
    1.1274   -0.6593   -0.7829 N   0  0  0  0  0  0  0  0  0  0  0  0
    0.5875   -0.2940    0.5397 C   0  0  2  0  0  0  0  0  0  0  0  0
    0.9077    1.1756    0.9100 C   0  0  0  0  0  0  0  0  0  0  0  0
    1.8319    1.4725    1.6562 O   0  0  0  0  0  0  0  0  0  0  0  0
    1.0298   -1.2654    1.6653 C   0  0  0  0  0  0  0  0  0  0  0  0
    0.5034   -2.7217    1.5882 C   0  0  0  0  0  0  0  0  0  0  0  0
    1.1770   -3.5339    2.7023 C   0  0  0  0  0  0  0  0  0  0  0  0
    0.7588   -3.4413    0.2563 C   0  0  0  0  0  0  0  0  0  0  0  0
    0.4724   -0.9777   -1.5021 H   0  0  0  0  0  0  0  0  0  0  0  0
   -0.5022   -0.3645    0.4828 H   0  0  0  0  0  0  0  0  0  0  0  0
    0.7028   -0.8461    2.6230 H   0  0  0  0  0  0  0  0  0  0  0  0
    2.1246   -1.2880    1.6884 H   0  0  0  0  0  0  0  0  0  0  0  0
   -0.5772   -2.7094    1.7657 H   0  0  0  0  0  0  0  0  0  0  0  0
    2.2576   -3.5962    2.5371 H   0  0  0  0  0  0  0  0  0  0  0  0
    0.7714   -4.5498    2.7364 H   0  0  0  0  0  0  0  0  0  0  0  0
    1.0021   -3.0643    3.6755 H   0  0  0  0  0  0  0  0  0  0  0  0
    1.8058   -3.3360   -0.0448 H   0  0  0  0  0  0  0  0  0  0  0  0
    0.5319   -4.5081    0.3470 H   0  0  0  0  0  0  0  0  0  0  0  0
    0.1157   -3.0351   -0.5284 H   0  0  0  0  0  0  0  0  0  0  0  0
    0.0050    2.1608    0.5390 N   0  0  0  0  0  0  0  0  0  0  0  0
    0.1316    3.6143    0.7814 C   0  0  2  0  0  0  0  0  0  0  0  0
    1.3374    4.2857    0.0806 C   0  0  0  0  0  0  0  0  0  0  0  0
    1.1666    5.3382   -0.5218 O   0  0  0  0  0  0  0  0  0  0  0  0
    0.1212    3.9398    2.2817 C   0  0  0  0  0  0  0  0  0  0  0  0
   -0.7040    1.8671   -0.1262 H   0  0  0  0  0  0  0  0  0  0  0  0
   -0.7609    4.0821    0.3533 H   0  0  0  0  0  0  0  0  0  0  0  0
    1.0474    3.6173    2.7661 H   0  0  0  0  0  0  0  0  0  0  0  0
    0.0215    5.0199    2.4284 H   0  0  0  0  0  0  0  0  0  0  0  0
   -0.7210    3.4435    2.7728 H   0  0  0  0  0  0  0  0  0  0  0  0
    2.5971    3.7200    0.1034 N   0  0  0  0  0  0  0  0  0  0  0  0
    3.7761    4.3180   -0.5050 C   0  0  0  0  0  0  0  0  0  0  0  0
    2.7009    2.8655    0.6605 H   0  0  0  0  0  0  0  0  0  0  0  0
    4.0246    5.2617   -0.0091 H   0  0  0  0  0  0  0  0  0  0  0  0
    4.6304    3.6405   -0.4121 H   0  0  0  0  0  0  0  0  0  0  0  0
    3.6034    4.5115   -1.5686 H   0  0  0  0  0  0  0  0  0  0  0  0
  1  2  2  0  0  0  0
  1  3  1  0  0  0  0
  1  7  1  0  0  0  0
  3  4  1  0  0  0  0
  3  5  1  0  0  0  0
  3  6  1  0  0  0  0
  7  8  1  0  0  0  0
  7 12  1  0  0  0  0
  8  9  1  0  0  0  0
  8 11  1  0  0  0  0
  8 13  1  0  0  0  0
  9 10  2  0  0  0  0
  9 17  1  0  0  0  0
 11 14  1  0  0  0  0
 11 15  1  0  0  0  0
 11 16  1  0  0  0  0
 17 18  1  0  0  0  0
 17 25  1  0  0  0  0
 18 19  1  0  0  0  0
 18 21  1  0  0  0  0
 18 26  1  0  0  0  0
 19 20  2  0  0  0  0
 19 36  1  0  0  0  0
 21 22  1  0  0  0  0
 21 27  1  0  0  0  0
 21 28  1  0  0  0  0
 22 23  1  0  0  0  0
 22 24  1  0  0  0  0
 22 29  1  0  0  0  0
 23 30  1  0  0  0  0
 23 31  1  0  0  0  0
 23 32  1  0  0  0  0
 24 33  1  0  0  0  0
 24 34  1  0  0  0  0
 24 35  1  0  0  0  0
 36 37  1  0  0  0  0
 36 41  1  0  0  0  0
 37 38  1  0  0  0  0
 37 40  1  0  0  0  0
 37 42  1  0  0  0  0
 38 39  2  0  0  0  0
 38 46  1  0  0  0  0
 40 43  1  0  0  0  0
 40 44  1  0  0  0  0
 40 45  1  0  0  0  0
 46 47  1  0  0  0  0
 46 48  1  0  0  0  0
 47 49  1  0  0  0  0
 47 50  1  0  0  0  0
 47 51  1  0  0  0  0
M  END
$$$$

  -OEChem-05262216553D

 51 50  0     1  0  0  0  0  0999 V2000
    0.9715   -2.5066   -3.4197 C   0  0  0  0  0  0  0  0  0  0  0  0
    0.0978   -1.7039   -3.1278 O   0  0  0  0  0  0  0  0  0  0  0  0
    0.5884   -3.8456   -4.0206 C   0  0  0  0  0  0  0  0  0  0  0  0
    0.9488   -4.6579   -3.3844 H   0  0  0  0  0  0  0  0  0  0  0  0
   -0.4992   -3.9237   -4.1083 H   0  0  0  0  0  0  0  0  0  0  0  0
    1.0288   -3.9478   -5.0154 H   0  0  0  0  0  0  0  0  0  0  0  0
    2.3026   -2.2376   -3.1602 N   0  0  0  0  0  0  0  0  0  0  0  0
    2.8721   -0.9888   -2.6098 C   0  0  2  0  0  0  0  0  0  0  0  0
    2.4996   -0.6898   -1.1395 C   0  0  0  0  0  0  0  0  0  0  0  0
    3.4008   -0.4723   -0.3468 O   0  0  0  0  0  0  0  0  0  0  0  0
    2.5437    0.2130   -3.5072 C   0  0  0  0  0  0  0  0  0  0  0  0
    2.9562   -2.9806   -3.3924 H   0  0  0  0  0  0  0  0  0  0  0  0
    3.9611   -1.1049   -2.6237 H   0  0  0  0  0  0  0  0  0  0  0  0
    1.4766    0.4515   -3.4807 H   0  0  0  0  0  0  0  0  0  0  0  0
    3.0971    1.0945   -3.1675 H   0  0  0  0  0  0  0  0  0  0  0  0
    2.8283    0.0043   -4.5429 H   0  0  0  0  0  0  0  0  0  0  0  0
    1.1743   -0.6850   -0.7403 N   0  0  0  0  0  0  0  0  0  0  0  0
    0.6242   -0.3134    0.5771 C   0  0  2  0  0  0  0  0  0  0  0  0
    0.9451    1.1483    0.9798 C   0  0  0  0  0  0  0  0  0  0  0  0
    2.0062    1.4661    1.4986 O   0  0  0  0  0  0  0  0  0  0  0  0
    1.0378   -1.2885    1.7093 C   0  0  0  0  0  0  0  0  0  0  0  0
    0.4895   -2.7368    1.6233 C   0  0  0  0  0  0  0  0  0  0  0  0
    1.1324   -3.5638    2.7443 C   0  0  0  0  0  0  0  0  0  0  0  0
    0.7519   -3.4590    0.2938 C   0  0  0  0  0  0  0  0  0  0  0  0
    0.5139   -0.9123   -1.4890 H   0  0  0  0  0  0  0  0  0  0  0  0
   -0.4643   -0.3792    0.4993 H   0  0  0  0  0  0  0  0  0  0  0  0
    0.7045   -0.8631    2.6619 H   0  0  0  0  0  0  0  0  0  0  0  0
    2.1315   -1.3276    1.7485 H   0  0  0  0  0  0  0  0  0  0  0  0
   -0.5930   -2.7066    1.7850 H   0  0  0  0  0  0  0  0  0  0  0  0
    2.2137   -3.6461    2.5934 H   0  0  0  0  0  0  0  0  0  0  0  0
    0.7071   -4.5719    2.7692 H   0  0  0  0  0  0  0  0  0  0  0  0
    0.9524   -3.0946    3.7167 H   0  0  0  0  0  0  0  0  0  0  0  0
    1.8068   -3.3793    0.0129 H   0  0  0  0  0  0  0  0  0  0  0  0
    0.4963   -4.5198    0.3779 H   0  0  0  0  0  0  0  0  0  0  0  0
    0.1344   -3.0364   -0.5028 H   0  0  0  0  0  0  0  0  0  0  0  0
   -0.0663    2.0949    0.9032 N   0  0  0  0  0  0  0  0  0  0  0  0
    0.0351    3.5315    1.2401 C   0  0  2  0  0  0  0  0  0  0  0  0
    1.0047    4.3356    0.3414 C   0  0  0  0  0  0  0  0  0  0  0  0
    0.6086    5.3600   -0.2001 O   0  0  0  0  0  0  0  0  0  0  0  0
    0.3631    3.7415    2.7256 C   0  0  0  0  0  0  0  0  0  0  0  0
   -0.9112    1.7940    0.4271 H   0  0  0  0  0  0  0  0  0  0  0  0
   -0.9570    3.9639    1.0737 H   0  0  0  0  0  0  0  0  0  0  0  0
    1.3939    3.4536    2.9515 H   0  0  0  0  0  0  0  0  0  0  0  0
    0.2418    4.7966    2.9897 H   0  0  0  0  0  0  0  0  0  0  0  0
   -0.3092    3.1475    3.3513 H   0  0  0  0  0  0  0  0  0  0  0  0
    2.3006    3.9136    0.1201 N   0  0  0  0  0  0  0  0  0  0  0  0
    3.2634    4.6198   -0.7119 C   0  0  0  0  0  0  0  0  0  0  0  0
    2.5825    3.0491    0.5942 H   0  0  0  0  0  0  0  0  0  0  0  0
    3.4642    5.6153   -0.3030 H   0  0  0  0  0  0  0  0  0  0  0  0
    4.2051    4.0639   -0.7504 H   0  0  0  0  0  0  0  0  0  0  0  0
    2.8821    4.7265   -1.7326 H   0  0  0  0  0  0  0  0  0  0  0  0
  1  2  2  0  0  0  0
  1  3  1  0  0  0  0
  1  7  1  0  0  0  0
  3  4  1  0  0  0  0
  3  5  1  0  0  0  0
  3  6  1  0  0  0  0
  7  8  1  0  0  0  0
  7 12  1  0  0  0  0
  8  9  1  0  0  0  0
  8 11  1  0  0  0  0
  8 13  1  0  0  0  0
  9 10  2  0  0  0  0
  9 17  1  0  0  0  0
 11 14  1  0  0  0  0
 11 15  1  0  0  0  0
 11 16  1  0  0  0  0
 17 18  1  0  0  0  0
 17 25  1  0  0  0  0
 18 19  1  0  0  0  0
 18 21  1  0  0  0  0
 18 26  1  0  0  0  0
 19 20  2  0  0  0  0
 19 36  1  0  0  0  0
 21 22  1  0  0  0  0
 21 27  1  0  0  0  0
 21 28  1  0  0  0  0
 22 23  1  0  0  0  0
 22 24  1  0  0  0  0
 22 29  1  0  0  0  0
 23 30  1  0  0  0  0
 23 31  1  0  0  0  0
 23 32  1  0  0  0  0
 24 33  1  0  0  0  0
 24 34  1  0  0  0  0
 24 35  1  0  0  0  0
 36 37  1  0  0  0  0
 36 41  1  0  0  0  0
 37 38  1  0  0  0  0
 37 40  1  0  0  0  0
 37 42  1  0  0  0  0
 38 39  2  0  0  0  0
 38 46  1  0  0  0  0
 40 43  1  0  0  0  0
 40 44  1  0  0  0  0
 40 45  1  0  0  0  0
 46 47  1  0  0  0  0
 46 48  1  0  0  0  0
 47 49  1  0  0  0  0
 47 50  1  0  0  0  0
 47 51  1  0  0  0  0
M  END
$$$$

  -OEChem-05262216553D

 51 50  0     1  0  0  0  0  0999 V2000
    1.0299   -2.4562   -3.4704 C   0  0  0  0  0  0  0  0  0  0  0  0
    0.1549   -1.6607   -3.1625 O   0  0  0  0  0  0  0  0  0  0  0  0
    0.6471   -3.7814   -4.1014 C   0  0  0  0  0  0  0  0  0  0  0  0
    0.9579   -4.6072   -3.4564 H   0  0  0  0  0  0  0  0  0  0  0  0
   -0.4365   -3.8337   -4.2417 H   0  0  0  0  0  0  0  0  0  0  0  0
    1.1323   -3.8862   -5.0750 H   0  0  0  0  0  0  0  0  0  0  0  0
    2.3611   -2.1911   -3.2074 N   0  0  0  0  0  0  0  0  0  0  0  0
    2.9236   -0.9700   -2.5918 C   0  0  2  0  0  0  0  0  0  0  0  0
    2.5465   -0.7641   -1.1070 C   0  0  0  0  0  0  0  0  0  0  0  0
    3.4432   -0.7223   -0.2802 O   0  0  0  0  0  0  0  0  0  0  0  0
    2.5840    0.2787   -3.4189 C   0  0  0  0  0  0  0  0  0  0  0  0
    3.0141   -2.9347   -3.4394 H   0  0  0  0  0  0  0  0  0  0  0  0
    4.0135   -1.0755   -2.6136 H   0  0  0  0  0  0  0  0  0  0  0  0
    1.5166    0.5130   -3.3703 H   0  0  0  0  0  0  0  0  0  0  0  0
    3.1380    1.1420   -3.0364 H   0  0  0  0  0  0  0  0  0  0  0  0
    2.8597    0.1276   -4.4667 H   0  0  0  0  0  0  0  0  0  0  0  0
    1.2143   -0.7142   -0.7340 N   0  0  0  0  0  0  0  0  0  0  0  0
    0.6446   -0.3272    0.5711 C   0  0  2  0  0  0  0  0  0  0  0  0
    0.9874    1.1205    1.0095 C   0  0  0  0  0  0  0  0  0  0  0  0
    2.1297    1.4830    1.2492 O   0  0  0  0  0  0  0  0  0  0  0  0
    1.0003   -1.3098    1.7149 C   0  0  0  0  0  0  0  0  0  0  0  0
    0.4113   -2.7406    1.6162 C   0  0  0  0  0  0  0  0  0  0  0  0
    1.0021   -3.5810    2.7560 C   0  0  0  0  0  0  0  0  0  0  0  0
    0.6878   -3.4728    0.2945 C   0  0  0  0  0  0  0  0  0  0  0  0
    0.5653   -0.8478   -1.5145 H   0  0  0  0  0  0  0  0  0  0  0  0
   -0.4419   -0.3655    0.4576 H   0  0  0  0  0  0  0  0  0  0  0  0
    0.6531   -0.8744    2.6580 H   0  0  0  0  0  0  0  0  0  0  0  0
    2.0906   -1.3800    1.7854 H   0  0  0  0  0  0  0  0  0  0  0  0
   -0.6738   -2.6790    1.7494 H   0  0  0  0  0  0  0  0  0  0  0  0
    2.0855   -3.6868    2.6367 H   0  0  0  0  0  0  0  0  0  0  0  0
    0.5546   -4.5796    2.7690 H   0  0  0  0  0  0  0  0  0  0  0  0
    0.8041   -3.1067    3.7224 H   0  0  0  0  0  0  0  0  0  0  0  0
    1.7522   -3.4268    0.0429 H   0  0  0  0  0  0  0  0  0  0  0  0
    0.3964   -4.5249    0.3713 H   0  0  0  0  0  0  0  0  0  0  0  0
    0.1072   -3.0317   -0.5199 H   0  0  0  0  0  0  0  0  0  0  0  0
   -0.0522    2.0144    1.2256 N   0  0  0  0  0  0  0  0  0  0  0  0
    0.0550    3.4141    1.6910 C   0  0  2  0  0  0  0  0  0  0  0  0
    0.7847    4.3706    0.7183 C   0  0  0  0  0  0  0  0  0  0  0  0
    0.2036    5.3687    0.3117 O   0  0  0  0  0  0  0  0  0  0  0  0
    0.6681    3.4855    3.0966 C   0  0  0  0  0  0  0  0  0  0  0  0
   -0.9790    1.6820    0.9777 H   0  0  0  0  0  0  0  0  0  0  0  0
   -0.9672    3.7972    1.7746 H   0  0  0  0  0  0  0  0  0  0  0  0
    1.7271    3.2121    3.0850 H   0  0  0  0  0  0  0  0  0  0  0  0
    0.5854    4.5039    3.4885 H   0  0  0  0  0  0  0  0  0  0  0  0
    0.1413    2.8084    3.7753 H   0  0  0  0  0  0  0  0  0  0  0  0
    2.0723    4.1181    0.2904 N   0  0  0  0  0  0  0  0  0  0  0  0
    2.7932    4.9399   -0.6703 C   0  0  0  0  0  0  0  0  0  0  0  0
    2.4796    3.2286    0.5975 H   0  0  0  0  0  0  0  0  0  0  0  0
    2.8457    5.9774   -0.3247 H   0  0  0  0  0  0  0  0  0  0  0  0
    3.8143    4.5658   -0.7924 H   0  0  0  0  0  0  0  0  0  0  0  0
    2.2945    4.9162   -1.6445 H   0  0  0  0  0  0  0  0  0  0  0  0
  1  2  2  0  0  0  0
  1  3  1  0  0  0  0
  1  7  1  0  0  0  0
  3  4  1  0  0  0  0
  3  5  1  0  0  0  0
  3  6  1  0  0  0  0
  7  8  1  0  0  0  0
  7 12  1  0  0  0  0
  8  9  1  0  0  0  0
  8 11  1  0  0  0  0
  8 13  1  0  0  0  0
  9 10  2  0  0  0  0
  9 17  1  0  0  0  0
 11 14  1  0  0  0  0
 11 15  1  0  0  0  0
 11 16  1  0  0  0  0
 17 18  1  0  0  0  0
 17 25  1  0  0  0  0
 18 19  1  0  0  0  0
 18 21  1  0  0  0  0
 18 26  1  0  0  0  0
 19 20  2  0  0  0  0
 19 36  1  0  0  0  0
 21 22  1  0  0  0  0
 21 27  1  0  0  0  0
 21 28  1  0  0  0  0
 22 23  1  0  0  0  0
 22 24  1  0  0  0  0
 22 29  1  0  0  0  0
 23 30  1  0  0  0  0
 23 31  1  0  0  0  0
 23 32  1  0  0  0  0
 24 33  1  0  0  0  0
 24 34  1  0  0  0  0
 24 35  1  0  0  0  0
 36 37  1  0  0  0  0
 36 41  1  0  0  0  0
 37 38  1  0  0  0  0
 37 40  1  0  0  0  0
 37 42  1  0  0  0  0
 38 39  2  0  0  0  0
 38 46  1  0  0  0  0
 40 43  1  0  0  0  0
 40 44  1  0  0  0  0
 40 45  1  0  0  0  0
 46 47  1  0  0  0  0
 46 48  1  0  0  0  0
 47 49  1  0  0  0  0
 47 50  1  0  0  0  0
 47 51  1  0  0  0  0
M  END
$$$$

  -OEChem-05262216553D

 51 50  0     1  0  0  0  0  0999 V2000
    1.1565   -1.9433   -3.6285 C   0  0  0  0  0  0  0  0  0  0  0  0
    0.3625   -1.1144   -3.2100 O   0  0  0  0  0  0  0  0  0  0  0  0
    0.6748   -3.0299   -4.5710 C   0  0  0  0  0  0  0  0  0  0  0  0
    0.7920   -4.0100   -4.1017 H   0  0  0  0  0  0  0  0  0  0  0  0
   -0.3814   -2.8793   -4.8126 H   0  0  0  0  0  0  0  0  0  0  0  0
    1.2529   -3.0052   -5.4981 H   0  0  0  0  0  0  0  0  0  0  0  0
    2.4770   -1.9395   -3.2185 N   0  0  0  0  0  0  0  0  0  0  0  0
    3.1251   -0.9745   -2.3045 C   0  0  2  0  0  0  0  0  0  0  0  0
    2.6289   -1.0315   -0.8425 C   0  0  0  0  0  0  0  0  0  0  0  0
    3.4431   -1.2441    0.0444 O   0  0  0  0  0  0  0  0  0  0  0  0
    3.0328    0.4588   -2.8480 C   0  0  0  0  0  0  0  0  0  0  0  0
    3.0528   -2.6972   -3.5749 H   0  0  0  0  0  0  0  0  0  0  0  0
    4.1892   -1.2316   -2.2706 H   0  0  0  0  0  0  0  0  0  0  0  0
    2.0046    0.8309   -2.8220 H   0  0  0  0  0  0  0  0  0  0  0  0
    3.6496    1.1280   -2.2394 H   0  0  0  0  0  0  0  0  0  0  0  0
    3.3922    0.4992   -3.8804 H   0  0  0  0  0  0  0  0  0  0  0  0
    1.2786   -0.9096   -0.5592 N   0  0  0  0  0  0  0  0  0  0  0  0
    0.6927   -0.4857    0.7273 C   0  0  2  0  0  0  0  0  0  0  0  0
    1.1128    0.9382    1.1797 C   0  0  0  0  0  0  0  0  0  0  0  0
    2.2260    1.3968    0.9608 O   0  0  0  0  0  0  0  0  0  0  0  0
    0.9049   -1.4833    1.8936 C   0  0  0  0  0  0  0  0  0  0  0  0
    0.1956   -2.8559    1.7683 C   0  0  0  0  0  0  0  0  0  0  0  0
    0.6481   -3.7407    2.9376 C   0  0  0  0  0  0  0  0  0  0  0  0
    0.4783   -3.6143    0.4632 C   0  0  0  0  0  0  0  0  0  0  0  0
    0.7083   -0.7688   -1.3978 H   0  0  0  0  0  0  0  0  0  0  0  0
   -0.3861   -0.4393    0.5567 H   0  0  0  0  0  0  0  0  0  0  0  0
    0.5470   -1.0123    2.8150 H   0  0  0  0  0  0  0  0  0  0  0  0
    1.9784   -1.6486    2.0256 H   0  0  0  0  0  0  0  0  0  0  0  0
   -0.8853   -2.6984    1.8423 H   0  0  0  0  0  0  0  0  0  0  0  0
    1.7222   -3.9446    2.8754 H   0  0  0  0  0  0  0  0  0  0  0  0
    0.1123   -4.6950    2.9270 H   0  0  0  0  0  0  0  0  0  0  0  0
    0.4435   -3.2465    3.8926 H   0  0  0  0  0  0  0  0  0  0  0  0
    1.5548   -3.6606    0.2703 H   0  0  0  0  0  0  0  0  0  0  0  0
    0.0939   -4.6370    0.5239 H   0  0  0  0  0  0  0  0  0  0  0  0
   -0.0157   -3.1288   -0.3827 H   0  0  0  0  0  0  0  0  0  0  0  0
    0.1323    1.7906    1.6683 N   0  0  0  0  0  0  0  0  0  0  0  0
    0.2944    3.2026    2.0789 C   0  0  2  0  0  0  0  0  0  0  0  0
    0.5748    4.1876    0.9198 C   0  0  0  0  0  0  0  0  0  0  0  0
   -0.1475    5.1657    0.7757 O   0  0  0  0  0  0  0  0  0  0  0  0
    1.3467    3.3455    3.1887 C   0  0  0  0  0  0  0  0  0  0  0  0
   -0.7980    1.3919    1.7510 H   0  0  0  0  0  0  0  0  0  0  0  0
   -0.6612    3.5162    2.5117 H   0  0  0  0  0  0  0  0  0  0  0  0
    2.3556    3.1611    2.8080 H   0  0  0  0  0  0  0  0  0  0  0  0
    1.3196    4.3592    3.6005 H   0  0  0  0  0  0  0  0  0  0  0  0
    1.1458    2.6377    3.9984 H   0  0  0  0  0  0  0  0  0  0  0  0
    1.6154    3.9828    0.0366 N   0  0  0  0  0  0  0  0  0  0  0  0
    1.9108    4.8478   -1.0964 C   0  0  0  0  0  0  0  0  0  0  0  0
    2.1649    3.1301    0.1805 H   0  0  0  0  0  0  0  0  0  0  0  0
    2.0967    5.8725   -0.7582 H   0  0  0  0  0  0  0  0  0  0  0  0
    2.8020    4.4907   -1.6210 H   0  0  0  0  0  0  0  0  0  0  0  0
    1.0723    4.8549   -1.8003 H   0  0  0  0  0  0  0  0  0  0  0  0
  1  2  2  0  0  0  0
  1  3  1  0  0  0  0
  1  7  1  0  0  0  0
  3  4  1  0  0  0  0
  3  5  1  0  0  0  0
  3  6  1  0  0  0  0
  7  8  1  0  0  0  0
  7 12  1  0  0  0  0
  8  9  1  0  0  0  0
  8 11  1  0  0  0  0
  8 13  1  0  0  0  0
  9 10  2  0  0  0  0
  9 17  1  0  0  0  0
 11 14  1  0  0  0  0
 11 15  1  0  0  0  0
 11 16  1  0  0  0  0
 17 18  1  0  0  0  0
 17 25  1  0  0  0  0
 18 19  1  0  0  0  0
 18 21  1  0  0  0  0
 18 26  1  0  0  0  0
 19 20  2  0  0  0  0
 19 36  1  0  0  0  0
 21 22  1  0  0  0  0
 21 27  1  0  0  0  0
 21 28  1  0  0  0  0
 22 23  1  0  0  0  0
 22 24  1  0  0  0  0
 22 29  1  0  0  0  0
 23 30  1  0  0  0  0
 23 31  1  0  0  0  0
 23 32  1  0  0  0  0
 24 33  1  0  0  0  0
 24 34  1  0  0  0  0
 24 35  1  0  0  0  0
 36 37  1  0  0  0  0
 36 41  1  0  0  0  0
 37 38  1  0  0  0  0
 37 40  1  0  0  0  0
 37 42  1  0  0  0  0
 38 39  2  0  0  0  0
 38 46  1  0  0  0  0
 40 43  1  0  0  0  0
 40 44  1  0  0  0  0
 40 45  1  0  0  0  0
 46 47  1  0  0  0  0
 46 48  1  0  0  0  0
 47 49  1  0  0  0  0
 47 50  1  0  0  0  0
 47 51  1  0  0  0  0
M  END
$$$$

  -OEChem-05262216553D

 51 50  0     1  0  0  0  0  0999 V2000
    1.0980   -2.0753   -3.5771 C   0  0  0  0  0  0  0  0  0  0  0  0
    0.3173   -1.2190   -3.1899 O   0  0  0  0  0  0  0  0  0  0  0  0
    0.5842   -3.2304   -4.4160 C   0  0  0  0  0  0  0  0  0  0  0  0
    0.7775   -4.1776   -3.9062 H   0  0  0  0  0  0  0  0  0  0  0  0
   -0.4933   -3.1316   -4.5758 H   0  0  0  0  0  0  0  0  0  0  0  0
    1.0839   -3.2389   -5.3878 H   0  0  0  0  0  0  0  0  0  0  0  0
    2.4340   -2.0407   -3.2218 N   0  0  0  0  0  0  0  0  0  0  0  0
    3.1105   -1.0236   -2.3881 C   0  0  2  0  0  0  0  0  0  0  0  0
    2.6570   -0.9949   -0.9111 C   0  0  0  0  0  0  0  0  0  0  0  0
    3.4882   -1.1953   -0.0361 O   0  0  0  0  0  0  0  0  0  0  0  0
    3.0050    0.3738   -3.0148 C   0  0  0  0  0  0  0  0  0  0  0  0
    2.9966   -2.8236   -3.5430 H   0  0  0  0  0  0  0  0  0  0  0  0
    4.1748   -1.2812   -2.3708 H   0  0  0  0  0  0  0  0  0  0  0  0
    1.9756    0.7426   -2.9980 H   0  0  0  0  0  0  0  0  0  0  0  0
    3.6268    1.0810   -2.4561 H   0  0  0  0  0  0  0  0  0  0  0  0
    3.3516    0.3524   -4.0521 H   0  0  0  0  0  0  0  0  0  0  0  0
    1.3197   -0.8268   -0.5939 N   0  0  0  0  0  0  0  0  0  0  0  0
    0.7803   -0.4363    0.7219 C   0  0  2  0  0  0  0  0  0  0  0  0
    1.2701    0.9452    1.2333 C   0  0  0  0  0  0  0  0  0  0  0  0
    2.2363    1.5195    0.7463 O   0  0  0  0  0  0  0  0  0  0  0  0
    0.9680   -1.5080    1.8267 C   0  0  0  0  0  0  0  0  0  0  0  0
    0.1872   -2.8348    1.6411 C   0  0  0  0  0  0  0  0  0  0  0  0
    0.6194   -3.8063    2.7474 C   0  0  0  0  0  0  0  0  0  0  0  0
    0.4029   -3.5327    0.2896 C   0  0  0  0  0  0  0  0  0  0  0  0
    0.7187   -0.6954   -1.4120 H   0  0  0  0  0  0  0  0  0  0  0  0
   -0.2983   -0.3269    0.5784 H   0  0  0  0  0  0  0  0  0  0  0  0
    0.6576   -1.0764    2.7837 H   0  0  0  0  0  0  0  0  0  0  0  0
    2.0339   -1.7345    1.9212 H   0  0  0  0  0  0  0  0  0  0  0  0
   -0.8827   -2.6283    1.7499 H   0  0  0  0  0  0  0  0  0  0  0  0
    1.6799   -4.0598    2.6466 H   0  0  0  0  0  0  0  0  0  0  0  0
    0.0350   -4.7303    2.6967 H   0  0  0  0  0  0  0  0  0  0  0  0
    0.4617   -3.3579    3.7334 H   0  0  0  0  0  0  0  0  0  0  0  0
    1.4713   -3.6187    0.0664 H   0  0  0  0  0  0  0  0  0  0  0  0
   -0.0289   -4.5382    0.3047 H   0  0  0  0  0  0  0  0  0  0  0  0
   -0.0875   -2.9785   -0.5152 H   0  0  0  0  0  0  0  0  0  0  0  0
    0.4227    1.6732    2.0572 N   0  0  0  0  0  0  0  0  0  0  0  0
    0.6432    3.0312    2.6006 C   0  0  2  0  0  0  0  0  0  0  0  0
    0.5545    4.1756    1.5642 C   0  0  0  0  0  0  0  0  0  0  0  0
   -0.1618    5.1407    1.7979 O   0  0  0  0  0  0  0  0  0  0  0  0
    1.9592    3.1103    3.3876 C   0  0  0  0  0  0  0  0  0  0  0  0
   -0.4180    1.1900    2.3584 H   0  0  0  0  0  0  0  0  0  0  0  0
   -0.1631    3.2163    3.3179 H   0  0  0  0  0  0  0  0  0  0  0  0
    2.8249    3.0401    2.7225 H   0  0  0  0  0  0  0  0  0  0  0  0
    2.0183    4.0638    3.9217 H   0  0  0  0  0  0  0  0  0  0  0  0
    2.0155    2.2991    4.1193 H   0  0  0  0  0  0  0  0  0  0  0  0
    1.2678    4.1356    0.3836 N   0  0  0  0  0  0  0  0  0  0  0  0
    1.2406    5.1820   -0.6280 C   0  0  0  0  0  0  0  0  0  0  0  0
    1.8504    3.3054    0.2390 H   0  0  0  0  0  0  0  0  0  0  0  0
    1.5845    6.1318   -0.2057 H   0  0  0  0  0  0  0  0  0  0  0  0
    1.8969    4.9160   -1.4621 H   0  0  0  0  0  0  0  0  0  0  0  0
    0.2249    5.3140   -1.0146 H   0  0  0  0  0  0  0  0  0  0  0  0
  1  2  2  0  0  0  0
  1  3  1  0  0  0  0
  1  7  1  0  0  0  0
  3  4  1  0  0  0  0
  3  5  1  0  0  0  0
  3  6  1  0  0  0  0
  7  8  1  0  0  0  0
  7 12  1  0  0  0  0
  8  9  1  0  0  0  0
  8 11  1  0  0  0  0
  8 13  1  0  0  0  0
  9 10  2  0  0  0  0
  9 17  1  0  0  0  0
 11 14  1  0  0  0  0
 11 15  1  0  0  0  0
 11 16  1  0  0  0  0
 17 18  1  0  0  0  0
 17 25  1  0  0  0  0
 18 19  1  0  0  0  0
 18 21  1  0  0  0  0
 18 26  1  0  0  0  0
 19 20  2  0  0  0  0
 19 36  1  0  0  0  0
 21 22  1  0  0  0  0
 21 27  1  0  0  0  0
 21 28  1  0  0  0  0
 22 23  1  0  0  0  0
 22 24  1  0  0  0  0
 22 29  1  0  0  0  0
 23 30  1  0  0  0  0
 23 31  1  0  0  0  0
 23 32  1  0  0  0  0
 24 33  1  0  0  0  0
 24 34  1  0  0  0  0
 24 35  1  0  0  0  0
 36 37  1  0  0  0  0
 36 41  1  0  0  0  0
 37 38  1  0  0  0  0
 37 40  1  0  0  0  0
 37 42  1  0  0  0  0
 38 39  2  0  0  0  0
 38 46  1  0  0  0  0
 40 43  1  0  0  0  0
 40 44  1  0  0  0  0
 40 45  1  0  0  0  0
 46 47  1  0  0  0  0
 46 48  1  0  0  0  0
 47 49  1  0  0  0  0
 47 50  1  0  0  0  0
 47 51  1  0  0  0  0
M  END
$$$$

  -OEChem-05262216553D

 51 50  0     1  0  0  0  0  0999 V2000
    1.0168   -2.1299   -3.5600 C   0  0  0  0  0  0  0  0  0  0  0  0
    0.2414   -1.2763   -3.1565 O   0  0  0  0  0  0  0  0  0  0  0  0
    0.4911   -3.2860   -4.3898 C   0  0  0  0  0  0  0  0  0  0  0  0
    0.7077   -4.2339   -3.8907 H   0  0  0  0  0  0  0  0  0  0  0  0
   -0.5913   -3.1969   -4.5195 H   0  0  0  0  0  0  0  0  0  0  0  0
    0.9641   -3.2838   -5.3750 H   0  0  0  0  0  0  0  0  0  0  0  0
    2.3612   -2.0869   -3.2398 N   0  0  0  0  0  0  0  0  0  0  0  0
    3.0548   -1.0547   -2.4403 C   0  0  2  0  0  0  0  0  0  0  0  0
    2.6427   -1.0072   -0.9521 C   0  0  0  0  0  0  0  0  0  0  0  0
    3.4961   -1.1875   -0.0936 O   0  0  0  0  0  0  0  0  0  0  0  0
    2.9205    0.3328   -3.0844 C   0  0  0  0  0  0  0  0  0  0  0  0
    2.9215   -2.8636   -3.5792 H   0  0  0  0  0  0  0  0  0  0  0  0
    4.1207   -1.3051   -2.4497 H   0  0  0  0  0  0  0  0  0  0  0  0
    1.8918    0.7006   -3.0309 H   0  0  0  0  0  0  0  0  0  0  0  0
    3.5626    1.0502   -2.5632 H   0  0  0  0  0  0  0  0  0  0  0  0
    3.2239    0.2956   -4.1347 H   0  0  0  0  0  0  0  0  0  0  0  0
    1.3188   -0.8078   -0.6017 N   0  0  0  0  0  0  0  0  0  0  0  0
    0.8237   -0.4350    0.7357 C   0  0  2  0  0  0  0  0  0  0  0  0
    1.3796    0.9197    1.2540 C   0  0  0  0  0  0  0  0  0  0  0  0
    2.1656    1.5895    0.5931 O   0  0  0  0  0  0  0  0  0  0  0  0
    1.0008   -1.5529    1.7990 C   0  0  0  0  0  0  0  0  0  0  0  0
    0.1685   -2.8451    1.5891 C   0  0  0  0  0  0  0  0  0  0  0  0
    0.5921   -3.8709    2.6487 C   0  0  0  0  0  0  0  0  0  0  0  0
    0.3217   -3.5035    0.2100 C   0  0  0  0  0  0  0  0  0  0  0  0
    0.6914   -0.6803   -1.4004 H   0  0  0  0  0  0  0  0  0  0  0  0
   -0.2532   -0.2792    0.6269 H   0  0  0  0  0  0  0  0  0  0  0  0
    0.7303   -1.1495    2.7796 H   0  0  0  0  0  0  0  0  0  0  0  0
    2.0598   -1.8205    1.8551 H   0  0  0  0  0  0  0  0  0  0  0  0
   -0.8900   -2.6047    1.7342 H   0  0  0  0  0  0  0  0  0  0  0  0
    1.6414   -4.1540    2.5148 H   0  0  0  0  0  0  0  0  0  0  0  0
   -0.0227   -4.7736    2.5768 H   0  0  0  0  0  0  0  0  0  0  0  0
    0.4699   -3.4558    3.6538 H   0  0  0  0  0  0  0  0  0  0  0  0
    1.3795   -3.6212   -0.0462 H   0  0  0  0  0  0  0  0  0  0  0  0
   -0.1469   -4.4925    0.2035 H   0  0  0  0  0  0  0  0  0  0  0  0
   -0.1693   -2.9045   -0.5616 H   0  0  0  0  0  0  0  0  0  0  0  0
    0.7576    1.5214    2.3395 N   0  0  0  0  0  0  0  0  0  0  0  0
    1.0762    2.8327    2.9458 C   0  0  2  0  0  0  0  0  0  0  0  0
    0.6936    4.0643    2.0921 C   0  0  0  0  0  0  0  0  0  0  0  0
    0.0352    4.9636    2.5991 O   0  0  0  0  0  0  0  0  0  0  0  0
    2.5487    2.9035    3.3749 C   0  0  0  0  0  0  0  0  0  0  0  0
    0.0445    0.9640    2.7997 H   0  0  0  0  0  0  0  0  0  0  0  0
    0.4791    2.9084    3.8602 H   0  0  0  0  0  0  0  0  0  0  0  0
    3.2143    2.9403    2.5075 H   0  0  0  0  0  0  0  0  0  0  0  0
    2.7208    3.8034    3.9737 H   0  0  0  0  0  0  0  0  0  0  0  0
    2.8121    2.0301    3.9788 H   0  0  0  0  0  0  0  0  0  0  0  0
    1.0859    4.1778    0.7740 N   0  0  0  0  0  0  0  0  0  0  0  0
    0.7921    5.3232   -0.0748 C   0  0  0  0  0  0  0  0  0  0  0  0
    1.6395    3.4002    0.4022 H   0  0  0  0  0  0  0  0  0  0  0  0
    1.2426    6.2309    0.3394 H   0  0  0  0  0  0  0  0  0  0  0  0
    1.1975    5.1617   -1.0783 H   0  0  0  0  0  0  0  0  0  0  0  0
   -0.2894    5.4716   -0.1577 H   0  0  0  0  0  0  0  0  0  0  0  0
  1  2  2  0  0  0  0
  1  3  1  0  0  0  0
  1  7  1  0  0  0  0
  3  4  1  0  0  0  0
  3  5  1  0  0  0  0
  3  6  1  0  0  0  0
  7  8  1  0  0  0  0
  7 12  1  0  0  0  0
  8  9  1  0  0  0  0
  8 11  1  0  0  0  0
  8 13  1  0  0  0  0
  9 10  2  0  0  0  0
  9 17  1  0  0  0  0
 11 14  1  0  0  0  0
 11 15  1  0  0  0  0
 11 16  1  0  0  0  0
 17 18  1  0  0  0  0
 17 25  1  0  0  0  0
 18 19  1  0  0  0  0
 18 21  1  0  0  0  0
 18 26  1  0  0  0  0
 19 20  2  0  0  0  0
 19 36  1  0  0  0  0
 21 22  1  0  0  0  0
 21 27  1  0  0  0  0
 21 28  1  0  0  0  0
 22 23  1  0  0  0  0
 22 24  1  0  0  0  0
 22 29  1  0  0  0  0
 23 30  1  0  0  0  0
 23 31  1  0  0  0  0
 23 32  1  0  0  0  0
 24 33  1  0  0  0  0
 24 34  1  0  0  0  0
 24 35  1  0  0  0  0
 36 37  1  0  0  0  0
 36 41  1  0  0  0  0
 37 38  1  0  0  0  0
 37 40  1  0  0  0  0
 37 42  1  0  0  0  0
 38 39  2  0  0  0  0
 38 46  1  0  0  0  0
 40 43  1  0  0  0  0
 40 44  1  0  0  0  0
 40 45  1  0  0  0  0
 46 47  1  0  0  0  0
 46 48  1  0  0  0  0
 47 49  1  0  0  0  0
 47 50  1  0  0  0  0
 47 51  1  0  0  0  0
M  END
$$$$

  -OEChem-05262216553D

 51 50  0     1  0  0  0  0  0999 V2000
    1.0672   -2.2359   -3.4399 C   0  0  0  0  0  0  0  0  0  0  0  0
    0.2382   -1.4118   -3.0853 O   0  0  0  0  0  0  0  0  0  0  0  0
    0.6083   -3.5201   -4.1045 C   0  0  0  0  0  0  0  0  0  0  0  0
    0.8763   -4.3783   -3.4832 H   0  0  0  0  0  0  0  0  0  0  0  0
   -0.4770   -3.5085   -4.2395 H   0  0  0  0  0  0  0  0  0  0  0  0
    1.0820   -3.6254   -5.0836 H   0  0  0  0  0  0  0  0  0  0  0  0
    2.4153   -2.0457   -3.1990 N   0  0  0  0  0  0  0  0  0  0  0  0
    3.0471   -0.8759   -2.5532 C   0  0  2  0  0  0  0  0  0  0  0  0
    2.6952   -0.6987   -1.0588 C   0  0  0  0  0  0  0  0  0  0  0  0
    3.5995   -0.7081   -0.2345 O   0  0  0  0  0  0  0  0  0  0  0  0
    2.7639    0.4138   -3.3372 C   0  0  0  0  0  0  0  0  0  0  0  0
    3.0272   -2.8056   -3.4832 H   0  0  0  0  0  0  0  0  0  0  0  0
    4.1298   -1.0366   -2.5904 H   0  0  0  0  0  0  0  0  0  0  0  0
    1.7088    0.6960   -3.2765 H   0  0  0  0  0  0  0  0  0  0  0  0
    3.3579    1.2367   -2.9270 H   0  0  0  0  0  0  0  0  0  0  0  0
    3.0302    0.2857   -4.3904 H   0  0  0  0  0  0  0  0  0  0  0  0
    1.3806   -0.5197   -0.6677 N   0  0  0  0  0  0  0  0  0  0  0  0
    0.8916   -0.2625    0.6997 C   0  0  2  0  0  0  0  0  0  0  0  0
    1.1754    1.1954    1.1526 C   0  0  0  0  0  0  0  0  0  0  0  0
    1.5640    2.0385    0.3509 O   0  0  0  0  0  0  0  0  0  0  0  0
    1.3088   -1.3189    1.7633 C   0  0  0  0  0  0  0  0  0  0  0  0
    0.7182   -2.7425    1.5866 C   0  0  0  0  0  0  0  0  0  0  0  0
    1.3559   -3.6666    2.6322 C   0  0  0  0  0  0  0  0  0  0  0  0
    0.9351   -3.3753    0.2052 C   0  0  0  0  0  0  0  0  0  0  0  0
    0.7017   -0.5387   -1.4335 H   0  0  0  0  0  0  0  0  0  0  0  0
   -0.1988   -0.3216    0.6411 H   0  0  0  0  0  0  0  0  0  0  0  0
    0.9927   -0.9682    2.7495 H   0  0  0  0  0  0  0  0  0  0  0  0
    2.3995   -1.3855    1.7964 H   0  0  0  0  0  0  0  0  0  0  0  0
   -0.3605   -2.6952    1.7700 H   0  0  0  0  0  0  0  0  0  0  0  0
    2.4332   -3.7593    2.4597 H   0  0  0  0  0  0  0  0  0  0  0  0
    0.9095   -4.6648    2.5848 H   0  0  0  0  0  0  0  0  0  0  0  0
    1.1978   -3.2715    3.6405 H   0  0  0  0  0  0  0  0  0  0  0  0
    1.9887   -3.3179   -0.0847 H   0  0  0  0  0  0  0  0  0  0  0  0
    0.6380   -4.4285    0.2161 H   0  0  0  0  0  0  0  0  0  0  0  0
    0.3256   -2.8719   -0.5493 H   0  0  0  0  0  0  0  0  0  0  0  0
    0.7840    1.6154    2.4167 N   0  0  0  0  0  0  0  0  0  0  0  0
    0.9443    2.9629    3.0053 C   0  0  2  0  0  0  0  0  0  0  0  0
    0.0356    4.0536    2.3925 C   0  0  0  0  0  0  0  0  0  0  0  0
   -0.6787    4.7227    3.1282 O   0  0  0  0  0  0  0  0  0  0  0  0
    2.4151    3.4048    2.9949 C   0  0  0  0  0  0  0  0  0  0  0  0
    0.4044    0.8926    3.0201 H   0  0  0  0  0  0  0  0  0  0  0  0
    0.6479    2.8838    4.0564 H   0  0  0  0  0  0  0  0  0  0  0  0
    2.7619    3.6114    1.9782 H   0  0  0  0  0  0  0  0  0  0  0  0
    2.5361    4.3178    3.5861 H   0  0  0  0  0  0  0  0  0  0  0  0
    3.0494    2.6253    3.4271 H   0  0  0  0  0  0  0  0  0  0  0  0
    0.0054    4.2826    1.0322 N   0  0  0  0  0  0  0  0  0  0  0  0
   -0.8559    5.2608    0.3837 C   0  0  0  0  0  0  0  0  0  0  0  0
    0.5936    3.6683    0.4611 H   0  0  0  0  0  0  0  0  0  0  0  0
   -0.6709    5.2678   -0.6947 H   0  0  0  0  0  0  0  0  0  0  0  0
   -1.9092    5.0158    0.5540 H   0  0  0  0  0  0  0  0  0  0  0  0
   -0.6591    6.2644    0.7746 H   0  0  0  0  0  0  0  0  0  0  0  0
  1  2  2  0  0  0  0
  1  3  1  0  0  0  0
  1  7  1  0  0  0  0
  3  4  1  0  0  0  0
  3  5  1  0  0  0  0
  3  6  1  0  0  0  0
  7  8  1  0  0  0  0
  7 12  1  0  0  0  0
  8  9  1  0  0  0  0
  8 11  1  0  0  0  0
  8 13  1  0  0  0  0
  9 10  2  0  0  0  0
  9 17  1  0  0  0  0
 11 14  1  0  0  0  0
 11 15  1  0  0  0  0
 11 16  1  0  0  0  0
 17 18  1  0  0  0  0
 17 25  1  0  0  0  0
 18 19  1  0  0  0  0
 18 21  1  0  0  0  0
 18 26  1  0  0  0  0
 19 20  2  0  0  0  0
 19 36  1  0  0  0  0
 21 22  1  0  0  0  0
 21 27  1  0  0  0  0
 21 28  1  0  0  0  0
 22 23  1  0  0  0  0
 22 24  1  0  0  0  0
 22 29  1  0  0  0  0
 23 30  1  0  0  0  0
 23 31  1  0  0  0  0
 23 32  1  0  0  0  0
 24 33  1  0  0  0  0
 24 34  1  0  0  0  0
 24 35  1  0  0  0  0
 36 37  1  0  0  0  0
 36 41  1  0  0  0  0
 37 38  1  0  0  0  0
 37 40  1  0  0  0  0
 37 42  1  0  0  0  0
 38 39  2  0  0  0  0
 38 46  1  0  0  0  0
 40 43  1  0  0  0  0
 40 44  1  0  0  0  0
 40 45  1  0  0  0  0
 46 47  1  0  0  0  0
 46 48  1  0  0  0  0
 47 49  1  0  0  0  0
 47 50  1  0  0  0  0
 47 51  1  0  0  0  0
M  END
$$$$

  -OEChem-05262216553D

 51 50  0     1  0  0  0  0  0999 V2000
    0.9420   -2.2720   -3.4432 C   0  0  0  0  0  0  0  0  0  0  0  0
    0.1276   -1.4558   -3.0407 O   0  0  0  0  0  0  0  0  0  0  0  0
    0.4584   -3.5242   -4.1495 C   0  0  0  0  0  0  0  0  0  0  0  0
    0.7172   -4.4085   -3.5619 H   0  0  0  0  0  0  0  0  0  0  0  0
   -0.6276   -3.4904   -4.2756 H   0  0  0  0  0  0  0  0  0  0  0  0
    0.9231   -3.6009   -5.1355 H   0  0  0  0  0  0  0  0  0  0  0  0
    2.2971   -2.0973   -3.2315 N   0  0  0  0  0  0  0  0  0  0  0  0
    2.9558   -0.9366   -2.5963 C   0  0  2  0  0  0  0  0  0  0  0  0
    2.6474   -0.7543   -1.0929 C   0  0  0  0  0  0  0  0  0  0  0  0
    3.5779   -0.7268   -0.2983 O   0  0  0  0  0  0  0  0  0  0  0  0
    2.6643    0.3565   -3.3711 C   0  0  0  0  0  0  0  0  0  0  0  0
    2.8977   -2.8410   -3.5759 H   0  0  0  0  0  0  0  0  0  0  0  0
    4.0354   -1.1080   -2.6609 H   0  0  0  0  0  0  0  0  0  0  0  0
    1.6115    0.6420   -3.2899 H   0  0  0  0  0  0  0  0  0  0  0  0
    3.2686    1.1765   -2.9699 H   0  0  0  0  0  0  0  0  0  0  0  0
    2.9107    0.2299   -4.4294 H   0  0  0  0  0  0  0  0  0  0  0  0
    1.3467   -0.5771   -0.6586 N   0  0  0  0  0  0  0  0  0  0  0  0
    0.9090   -0.3134    0.7244 C   0  0  2  0  0  0  0  0  0  0  0  0
    1.2179    1.1537    1.1324 C   0  0  0  0  0  0  0  0  0  0  0  0
    1.3291    2.0208    0.2718 O   0  0  0  0  0  0  0  0  0  0  0  0
    1.3672   -1.3692    1.7734 C   0  0  0  0  0  0  0  0  0  0  0  0
    0.7707   -2.7928    1.6220 C   0  0  0  0  0  0  0  0  0  0  0  0
    1.4503   -3.7135    2.6446 C   0  0  0  0  0  0  0  0  0  0  0  0
    0.9338   -3.4283    0.2339 C   0  0  0  0  0  0  0  0  0  0  0  0
    0.6412   -0.5906   -1.4004 H   0  0  0  0  0  0  0  0  0  0  0  0
   -0.1834   -0.3687    0.7141 H   0  0  0  0  0  0  0  0  0  0  0  0
    1.0811   -1.0222    2.7696 H   0  0  0  0  0  0  0  0  0  0  0  0
    2.4585   -1.4351    1.7688 H   0  0  0  0  0  0  0  0  0  0  0  0
   -0.3002   -2.7454    1.8469 H   0  0  0  0  0  0  0  0  0  0  0  0
    2.5206   -3.8035    2.4320 H   0  0  0  0  0  0  0  0  0  0  0  0
    1.0057   -4.7132    2.6159 H   0  0  0  0  0  0  0  0  0  0  0  0
    1.3294   -3.3169    3.6573 H   0  0  0  0  0  0  0  0  0  0  0  0
    1.9752   -3.3712   -0.0973 H   0  0  0  0  0  0  0  0  0  0  0  0
    0.6377   -4.4815    0.2590 H   0  0  0  0  0  0  0  0  0  0  0  0
    0.2950   -2.9270   -0.4979 H   0  0  0  0  0  0  0  0  0  0  0  0
    1.1846    1.5447    2.4640 N   0  0  0  0  0  0  0  0  0  0  0  0
    1.4864    2.8847    3.0134 C   0  0  2  0  0  0  0  0  0  0  0  0
    0.4336    3.9761    2.7097 C   0  0  0  0  0  0  0  0  0  0  0  0
    0.0003    4.6633    3.6259 O   0  0  0  0  0  0  0  0  0  0  0  0
    2.8896    3.3492    2.5990 C   0  0  0  0  0  0  0  0  0  0  0  0
    1.0681    0.7919    3.1345 H   0  0  0  0  0  0  0  0  0  0  0  0
    1.4991    2.7800    4.1031 H   0  0  0  0  0  0  0  0  0  0  0  0
    2.9295    3.5905    1.5329 H   0  0  0  0  0  0  0  0  0  0  0  0
    3.1676    4.2459    3.1613 H   0  0  0  0  0  0  0  0  0  0  0  0
    3.6264    2.5676    2.8067 H   0  0  0  0  0  0  0  0  0  0  0  0
   -0.0222    4.2002    1.4268 N   0  0  0  0  0  0  0  0  0  0  0  0
   -0.9936    5.2227    1.0668 C   0  0  0  0  0  0  0  0  0  0  0  0
    0.3805    3.6047    0.6971 H   0  0  0  0  0  0  0  0  0  0  0  0
   -0.6025    6.2194    1.2954 H   0  0  0  0  0  0  0  0  0  0  0  0
   -1.2124    5.1730   -0.0042 H   0  0  0  0  0  0  0  0  0  0  0  0
   -1.9277    5.0740    1.6181 H   0  0  0  0  0  0  0  0  0  0  0  0
  1  2  2  0  0  0  0
  1  3  1  0  0  0  0
  1  7  1  0  0  0  0
  3  4  1  0  0  0  0
  3  5  1  0  0  0  0
  3  6  1  0  0  0  0
  7  8  1  0  0  0  0
  7 12  1  0  0  0  0
  8  9  1  0  0  0  0
  8 11  1  0  0  0  0
  8 13  1  0  0  0  0
  9 10  2  0  0  0  0
  9 17  1  0  0  0  0
 11 14  1  0  0  0  0
 11 15  1  0  0  0  0
 11 16  1  0  0  0  0
 17 18  1  0  0  0  0
 17 25  1  0  0  0  0
 18 19  1  0  0  0  0
 18 21  1  0  0  0  0
 18 26  1  0  0  0  0
 19 20  2  0  0  0  0
 19 36  1  0  0  0  0
 21 22  1  0  0  0  0
 21 27  1  0  0  0  0
 21 28  1  0  0  0  0
 22 23  1  0  0  0  0
 22 24  1  0  0  0  0
 22 29  1  0  0  0  0
 23 30  1  0  0  0  0
 23 31  1  0  0  0  0
 23 32  1  0  0  0  0
 24 33  1  0  0  0  0
 24 34  1  0  0  0  0
 24 35  1  0  0  0  0
 36 37  1  0  0  0  0
 36 41  1  0  0  0  0
 37 38  1  0  0  0  0
 37 40  1  0  0  0  0
 37 42  1  0  0  0  0
 38 39  2  0  0  0  0
 38 46  1  0  0  0  0
 40 43  1  0  0  0  0
 40 44  1  0  0  0  0
 40 45  1  0  0  0  0
 46 47  1  0  0  0  0
 46 48  1  0  0  0  0
 47 49  1  0  0  0  0
 47 50  1  0  0  0  0
 47 51  1  0  0  0  0
M  END
$$$$

  -OEChem-05262216553D

 51 50  0     1  0  0  0  0  0999 V2000
    0.8543   -2.3561   -3.4015 C   0  0  0  0  0  0  0  0  0  0  0  0
    0.0740   -1.4922   -3.0330 O   0  0  0  0  0  0  0  0  0  0  0  0
    0.3173   -3.6390   -4.0070 C   0  0  0  0  0  0  0  0  0  0  0  0
    0.5829   -4.4901   -3.3752 H   0  0  0  0  0  0  0  0  0  0  0  0
   -0.7722   -3.5893   -4.0912 H   0  0  0  0  0  0  0  0  0  0  0  0
    0.7396   -3.7871   -5.0039 H   0  0  0  0  0  0  0  0  0  0  0  0
    2.2182   -2.2088   -3.2282 N   0  0  0  0  0  0  0  0  0  0  0  0
    2.9215   -1.0321   -2.6743 C   0  0  2  0  0  0  0  0  0  0  0  0
    2.6589   -0.7666   -1.1746 C   0  0  0  0  0  0  0  0  0  0  0  0
    3.6099   -0.7054   -0.4064 O   0  0  0  0  0  0  0  0  0  0  0  0
    2.6393    0.2259   -3.5089 C   0  0  0  0  0  0  0  0  0  0  0  0
    2.7890   -2.9971   -3.5207 H   0  0  0  0  0  0  0  0  0  0  0  0
    3.9943   -1.2332   -2.7599 H   0  0  0  0  0  0  0  0  0  0  0  0
    1.5993    0.5497   -3.4062 H   0  0  0  0  0  0  0  0  0  0  0  0
    3.2824    1.0468   -3.1760 H   0  0  0  0  0  0  0  0  0  0  0  0
    2.8421    0.0346   -4.5669 H   0  0  0  0  0  0  0  0  0  0  0  0
    1.3740   -0.5658   -0.7070 N   0  0  0  0  0  0  0  0  0  0  0  0
    0.9830   -0.2966    0.6883 C   0  0  2  0  0  0  0  0  0  0  0  0
    1.3368    1.1638    1.0774 C   0  0  0  0  0  0  0  0  0  0  0  0
    1.1724    2.0613    0.2579 O   0  0  0  0  0  0  0  0  0  0  0  0
    1.4429   -1.3650    1.7230 C   0  0  0  0  0  0  0  0  0  0  0  0
    0.8082   -2.7731    1.5888 C   0  0  0  0  0  0  0  0  0  0  0  0
    1.4948   -3.7082    2.5927 C   0  0  0  0  0  0  0  0  0  0  0  0
    0.9145   -3.4112    0.1972 C   0  0  0  0  0  0  0  0  0  0  0  0
    0.6417   -0.6072   -1.4218 H   0  0  0  0  0  0  0  0  0  0  0  0
   -0.1104   -0.3239    0.7116 H   0  0  0  0  0  0  0  0  0  0  0  0
    1.1857   -1.0119    2.7255 H   0  0  0  0  0  0  0  0  0  0  0  0
    2.5320   -1.4563    1.6896 H   0  0  0  0  0  0  0  0  0  0  0  0
   -0.2541   -2.7001    1.8456 H   0  0  0  0  0  0  0  0  0  0  0  0
    2.5543   -3.8299    2.3443 H   0  0  0  0  0  0  0  0  0  0  0  0
    1.0206   -4.6946    2.5845 H   0  0  0  0  0  0  0  0  0  0  0  0
    1.4199   -3.3036    3.6069 H   0  0  0  0  0  0  0  0  0  0  0  0
    1.9464   -3.3784   -0.1658 H   0  0  0  0  0  0  0  0  0  0  0  0
    0.5939   -4.4572    0.2302 H   0  0  0  0  0  0  0  0  0  0  0  0
    0.2655   -2.8934   -0.5133 H   0  0  0  0  0  0  0  0  0  0  0  0
    1.6592    1.5016    2.3842 N   0  0  0  0  0  0  0  0  0  0  0  0
    2.0087    2.8397    2.9068 C   0  0  2  0  0  0  0  0  0  0  0  0
    0.8366    3.8469    2.9621 C   0  0  0  0  0  0  0  0  0  0  0  0
    0.6129    4.4519    4.0030 O   0  0  0  0  0  0  0  0  0  0  0  0
    3.2075    3.4346    2.1549 C   0  0  0  0  0  0  0  0  0  0  0  0
    1.8052    0.7144    3.0080 H   0  0  0  0  0  0  0  0  0  0  0  0
    2.3277    2.6974    3.9445 H   0  0  0  0  0  0  0  0  0  0  0  0
    2.9390    3.7074    1.1302 H   0  0  0  0  0  0  0  0  0  0  0  0
    3.5590    4.3365    2.6659 H   0  0  0  0  0  0  0  0  0  0  0  0
    4.0295    2.7133    2.1191 H   0  0  0  0  0  0  0  0  0  0  0  0
    0.0343    4.0780    1.8634 N   0  0  0  0  0  0  0  0  0  0  0  0
   -1.0792    5.0157    1.8428 C   0  0  0  0  0  0  0  0  0  0  0  0
    0.2674    3.5485    1.0181 H   0  0  0  0  0  0  0  0  0  0  0  0
   -0.7236    6.0341    2.0300 H   0  0  0  0  0  0  0  0  0  0  0  0
   -1.5723    4.9942    0.8661 H   0  0  0  0  0  0  0  0  0  0  0  0
   -1.8165    4.7523    2.6083 H   0  0  0  0  0  0  0  0  0  0  0  0
  1  2  2  0  0  0  0
  1  3  1  0  0  0  0
  1  7  1  0  0  0  0
  3  4  1  0  0  0  0
  3  5  1  0  0  0  0
  3  6  1  0  0  0  0
  7  8  1  0  0  0  0
  7 12  1  0  0  0  0
  8  9  1  0  0  0  0
  8 11  1  0  0  0  0
  8 13  1  0  0  0  0
  9 10  2  0  0  0  0
  9 17  1  0  0  0  0
 11 14  1  0  0  0  0
 11 15  1  0  0  0  0
 11 16  1  0  0  0  0
 17 18  1  0  0  0  0
 17 25  1  0  0  0  0
 18 19  1  0  0  0  0
 18 21  1  0  0  0  0
 18 26  1  0  0  0  0
 19 20  2  0  0  0  0
 19 36  1  0  0  0  0
 21 22  1  0  0  0  0
 21 27  1  0  0  0  0
 21 28  1  0  0  0  0
 22 23  1  0  0  0  0
 22 24  1  0  0  0  0
 22 29  1  0  0  0  0
 23 30  1  0  0  0  0
 23 31  1  0  0  0  0
 23 32  1  0  0  0  0
 24 33  1  0  0  0  0
 24 34  1  0  0  0  0
 24 35  1  0  0  0  0
 36 37  1  0  0  0  0
 36 41  1  0  0  0  0
 37 38  1  0  0  0  0
 37 40  1  0  0  0  0
 37 42  1  0  0  0  0
 38 39  2  0  0  0  0
 38 46  1  0  0  0  0
 40 43  1  0  0  0  0
 40 44  1  0  0  0  0
 40 45  1  0  0  0  0
 46 47  1  0  0  0  0
 46 48  1  0  0  0  0
 47 49  1  0  0  0  0
 47 50  1  0  0  0  0
 47 51  1  0  0  0  0
M  END
$$$$

  -OEChem-05262216553D

 51 50  0     1  0  0  0  0  0999 V2000
    0.7998   -2.4666   -3.3802 C   0  0  0  0  0  0  0  0  0  0  0  0
    0.0014   -1.6260   -2.9973 O   0  0  0  0  0  0  0  0  0  0  0  0
    0.2908   -3.7786   -3.9466 C   0  0  0  0  0  0  0  0  0  0  0  0
    0.6091   -4.6087   -3.3107 H   0  0  0  0  0  0  0  0  0  0  0  0
   -0.8020   -3.7709   -3.9936 H   0  0  0  0  0  0  0  0  0  0  0  0
    0.6838   -3.9287   -4.9553 H   0  0  0  0  0  0  0  0  0  0  0  0
    2.1621   -2.2669   -3.2549 N   0  0  0  0  0  0  0  0  0  0  0  0
    2.8387   -1.0581   -2.7399 C   0  0  2  0  0  0  0  0  0  0  0  0
    2.6074   -0.7753   -1.2379 C   0  0  0  0  0  0  0  0  0  0  0  0
    3.5761   -0.6628   -0.4976 O   0  0  0  0  0  0  0  0  0  0  0  0
    2.4910    0.1734   -3.5889 C   0  0  0  0  0  0  0  0  0  0  0  0
    2.7519   -3.0331   -3.5674 H   0  0  0  0  0  0  0  0  0  0  0  0
    3.9152   -1.2248   -2.8509 H   0  0  0  0  0  0  0  0  0  0  0  0
    1.4445    0.4649   -3.4602 H   0  0  0  0  0  0  0  0  0  0  0  0
    3.1169    1.0212   -3.2925 H   0  0  0  0  0  0  0  0  0  0  0  0
    2.6670   -0.0328   -4.6489 H   0  0  0  0  0  0  0  0  0  0  0  0
    1.3328   -0.5935   -0.7355 N   0  0  0  0  0  0  0  0  0  0  0  0
    0.9854   -0.3276    0.6710 C   0  0  2  0  0  0  0  0  0  0  0  0
    1.3348    1.1377    1.0329 C   0  0  0  0  0  0  0  0  0  0  0  0
    0.9140    2.0426    0.3207 O   0  0  0  0  0  0  0  0  0  0  0  0
    1.4871   -1.3809    1.7003 C   0  0  0  0  0  0  0  0  0  0  0  0
    0.8638   -2.7966    1.5954 C   0  0  0  0  0  0  0  0  0  0  0  0
    1.5850   -3.7217    2.5842 C   0  0  0  0  0  0  0  0  0  0  0  0
    0.9351   -3.4419    0.2052 C   0  0  0  0  0  0  0  0  0  0  0  0
    0.5761   -0.6882   -1.4195 H   0  0  0  0  0  0  0  0  0  0  0  0
   -0.1064   -0.3664    0.7302 H   0  0  0  0  0  0  0  0  0  0  0  0
    1.2574   -1.0146    2.7060 H   0  0  0  0  0  0  0  0  0  0  0  0
    2.5751   -1.4644    1.6319 H   0  0  0  0  0  0  0  0  0  0  0  0
   -0.1911   -2.7312    1.8827 H   0  0  0  0  0  0  0  0  0  0  0  0
    2.6381   -3.8387    2.3077 H   0  0  0  0  0  0  0  0  0  0  0  0
    1.1165   -4.7110    2.5939 H   0  0  0  0  0  0  0  0  0  0  0  0
    1.5344   -3.3122    3.5978 H   0  0  0  0  0  0  0  0  0  0  0  0
    1.9543   -3.3964   -0.1903 H   0  0  0  0  0  0  0  0  0  0  0  0
    0.6308   -4.4920    0.2543 H   0  0  0  0  0  0  0  0  0  0  0  0
    0.2560   -2.9374   -0.4862 H   0  0  0  0  0  0  0  0  0  0  0  0
    1.9881    1.4521    2.2156 N   0  0  0  0  0  0  0  0  0  0  0  0
    2.4371    2.7884    2.6603 C   0  0  2  0  0  0  0  0  0  0  0  0
    1.3056    3.7620    3.0630 C   0  0  0  0  0  0  0  0  0  0  0  0
    1.3741    4.3528    4.1333 O   0  0  0  0  0  0  0  0  0  0  0  0
    3.3692    3.4314    1.6233 C   0  0  0  0  0  0  0  0  0  0  0  0
    2.3671    0.6531    2.7151 H   0  0  0  0  0  0  0  0  0  0  0  0
    3.0315    2.6336    3.5665 H   0  0  0  0  0  0  0  0  0  0  0  0
    2.8214    3.7202    0.7216 H   0  0  0  0  0  0  0  0  0  0  0  0
    3.8321    4.3303    2.0422 H   0  0  0  0  0  0  0  0  0  0  0  0
    4.1623    2.7329    1.3394 H   0  0  0  0  0  0  0  0  0  0  0  0
    0.2237    3.9908    2.2374 N   0  0  0  0  0  0  0  0  0  0  0  0
   -0.8572    4.9172    2.5413 C   0  0  0  0  0  0  0  0  0  0  0  0
    0.2208    3.4818    1.3487 H   0  0  0  0  0  0  0  0  0  0  0  0
   -0.4671    5.9328    2.6650 H   0  0  0  0  0  0  0  0  0  0  0  0
   -1.5881    4.9239    1.7271 H   0  0  0  0  0  0  0  0  0  0  0  0
   -1.3676    4.6198    3.4631 H   0  0  0  0  0  0  0  0  0  0  0  0
  1  2  2  0  0  0  0
  1  3  1  0  0  0  0
  1  7  1  0  0  0  0
  3  4  1  0  0  0  0
  3  5  1  0  0  0  0
  3  6  1  0  0  0  0
  7  8  1  0  0  0  0
  7 12  1  0  0  0  0
  8  9  1  0  0  0  0
  8 11  1  0  0  0  0
  8 13  1  0  0  0  0
  9 10  2  0  0  0  0
  9 17  1  0  0  0  0
 11 14  1  0  0  0  0
 11 15  1  0  0  0  0
 11 16  1  0  0  0  0
 17 18  1  0  0  0  0
 17 25  1  0  0  0  0
 18 19  1  0  0  0  0
 18 21  1  0  0  0  0
 18 26  1  0  0  0  0
 19 20  2  0  0  0  0
 19 36  1  0  0  0  0
 21 22  1  0  0  0  0
 21 27  1  0  0  0  0
 21 28  1  0  0  0  0
 22 23  1  0  0  0  0
 22 24  1  0  0  0  0
 22 29  1  0  0  0  0
 23 30  1  0  0  0  0
 23 31  1  0  0  0  0
 23 32  1  0  0  0  0
 24 33  1  0  0  0  0
 24 34  1  0  0  0  0
 24 35  1  0  0  0  0
 36 37  1  0  0  0  0
 36 41  1  0  0  0  0
 37 38  1  0  0  0  0
 37 40  1  0  0  0  0
 37 42  1  0  0  0  0
 38 39  2  0  0  0  0
 38 46  1  0  0  0  0
 40 43  1  0  0  0  0
 40 44  1  0  0  0  0
 40 45  1  0  0  0  0
 46 47  1  0  0  0  0
 46 48  1  0  0  0  0
 47 49  1  0  0  0  0
 47 50  1  0  0  0  0
 47 51  1  0  0  0  0
M  END
$$$$

  -OEChem-05262216553D

 51 50  0     1  0  0  0  0  0999 V2000
    2.4171   -3.1321   -3.3918 C   0  0  0  0  0  0  0  0  0  0  0  0
    1.3626   -3.5763   -2.9688 O   0  0  0  0  0  0  0  0  0  0  0  0
    3.5419   -4.0867   -3.7460 C   0  0  0  0  0  0  0  0  0  0  0  0
    4.4056   -3.8985   -3.1038 H   0  0  0  0  0  0  0  0  0  0  0  0
    3.2171   -5.1214   -3.6050 H   0  0  0  0  0  0  0  0  0  0  0  0
    3.8347   -3.9496   -4.7898 H   0  0  0  0  0  0  0  0  0  0  0  0
    2.6156   -1.7727   -3.5446 N   0  0  0  0  0  0  0  0  0  0  0  0
    1.7229   -0.7241   -3.0156 C   0  0  2  0  0  0  0  0  0  0  0  0
    1.7186   -0.6672   -1.4679 C   0  0  0  0  0  0  0  0  0  0  0  0
    2.7783   -0.7962   -0.8645 O   0  0  0  0  0  0  0  0  0  0  0  0
    0.3132   -0.8211   -3.6271 C   0  0  0  0  0  0  0  0  0  0  0  0
    3.5779   -1.5024   -3.7263 H   0  0  0  0  0  0  0  0  0  0  0  0
    2.1329    0.2363   -3.3427 H   0  0  0  0  0  0  0  0  0  0  0  0
   -0.2546   -1.6479   -3.1897 H   0  0  0  0  0  0  0  0  0  0  0  0
   -0.2413    0.1058   -3.4527 H   0  0  0  0  0  0  0  0  0  0  0  0
    0.3798   -0.9808   -4.7077 H   0  0  0  0  0  0  0  0  0  0  0  0
    0.5905   -0.2673   -0.7698 N   0  0  0  0  0  0  0  0  0  0  0  0
    0.5158   -0.0550    0.6872 C   0  0  2  0  0  0  0  0  0  0  0  0
    1.2250    1.2687    1.0502 C   0  0  0  0  0  0  0  0  0  0  0  0
    0.7630    2.3192    0.6185 O   0  0  0  0  0  0  0  0  0  0  0  0
    0.9227   -1.2549    1.5879 C   0  0  0  0  0  0  0  0  0  0  0  0
    0.0060   -2.5022    1.5253 C   0  0  0  0  0  0  0  0  0  0  0  0
    0.6478   -3.6190    2.3595 C   0  0  0  0  0  0  0  0  0  0  0  0
   -0.2336   -3.0534    0.1141 C   0  0  0  0  0  0  0  0  0  0  0  0
   -0.2396   -0.0789   -1.3233 H   0  0  0  0  0  0  0  0  0  0  0  0
   -0.5379    0.1268    0.9197 H   0  0  0  0  0  0  0  0  0  0  0  0
    0.9273   -0.9138    2.6286 H   0  0  0  0  0  0  0  0  0  0  0  0
    1.9451   -1.5592    1.3477 H   0  0  0  0  0  0  0  0  0  0  0  0
   -0.9652   -2.2461    1.9624 H   0  0  0  0  0  0  0  0  0  0  0  0
    1.6095   -3.9190    1.9308 H   0  0  0  0  0  0  0  0  0  0  0  0
   -0.0058   -4.4964    2.3923 H   0  0  0  0  0  0  0  0  0  0  0  0
    0.8149   -3.2809    3.3869 H   0  0  0  0  0  0  0  0  0  0  0  0
    0.7186   -3.1999   -0.4034 H   0  0  0  0  0  0  0  0  0  0  0  0
   -0.7506   -4.0167    0.1604 H   0  0  0  0  0  0  0  0  0  0  0  0
   -0.8597   -2.3748   -0.4704 H   0  0  0  0  0  0  0  0  0  0  0  0
    2.3128    1.2844    1.9086 N   0  0  0  0  0  0  0  0  0  0  0  0
    3.1571    2.4457    2.2566 C   0  0  2  0  0  0  0  0  0  0  0  0
    2.4736    3.5191    3.1349 C   0  0  0  0  0  0  0  0  0  0  0  0
    3.0470    3.9335    4.1342 O   0  0  0  0  0  0  0  0  0  0  0  0
    3.7665    3.0762    0.9968 C   0  0  0  0  0  0  0  0  0  0  0  0
    2.7017    0.3651    2.1025 H   0  0  0  0  0  0  0  0  0  0  0  0
    3.9897    2.0595    2.8539 H   0  0  0  0  0  0  0  0  0  0  0  0
    3.0043    3.5844    0.3990 H   0  0  0  0  0  0  0  0  0  0  0  0
    4.5266    3.8125    1.2765 H   0  0  0  0  0  0  0  0  0  0  0  0
    4.2393    2.3072    0.3781 H   0  0  0  0  0  0  0  0  0  0  0  0
    1.2373    4.0379    2.8070 N   0  0  0  0  0  0  0  0  0  0  0  0
    0.5600    5.0789    3.5664 C   0  0  0  0  0  0  0  0  0  0  0  0
    0.8105    3.6761    1.9497 H   0  0  0  0  0  0  0  0  0  0  0  0
    1.1758    5.9832    3.6078 H   0  0  0  0  0  0  0  0  0  0  0  0
   -0.3942    5.3306    3.0939 H   0  0  0  0  0  0  0  0  0  0  0  0
    0.3621    4.7392    4.5882 H   0  0  0  0  0  0  0  0  0  0  0  0
  1  2  2  0  0  0  0
  1  3  1  0  0  0  0
  1  7  1  0  0  0  0
  3  4  1  0  0  0  0
  3  5  1  0  0  0  0
  3  6  1  0  0  0  0
  7  8  1  0  0  0  0
  7 12  1  0  0  0  0
  8  9  1  0  0  0  0
  8 11  1  0  0  0  0
  8 13  1  0  0  0  0
  9 10  2  0  0  0  0
  9 17  1  0  0  0  0
 11 14  1  0  0  0  0
 11 15  1  0  0  0  0
 11 16  1  0  0  0  0
 17 18  1  0  0  0  0
 17 25  1  0  0  0  0
 18 19  1  0  0  0  0
 18 21  1  0  0  0  0
 18 26  1  0  0  0  0
 19 20  2  0  0  0  0
 19 36  1  0  0  0  0
 21 22  1  0  0  0  0
 21 27  1  0  0  0  0
 21 28  1  0  0  0  0
 22 23  1  0  0  0  0
 22 24  1  0  0  0  0
 22 29  1  0  0  0  0
 23 30  1  0  0  0  0
 23 31  1  0  0  0  0
 23 32  1  0  0  0  0
 24 33  1  0  0  0  0
 24 34  1  0  0  0  0
 24 35  1  0  0  0  0
 36 37  1  0  0  0  0
 36 41  1  0  0  0  0
 37 38  1  0  0  0  0
 37 40  1  0  0  0  0
 37 42  1  0  0  0  0
 38 39  2  0  0  0  0
 38 46  1  0  0  0  0
 40 43  1  0  0  0  0
 40 44  1  0  0  0  0
 40 45  1  0  0  0  0
 46 47  1  0  0  0  0
 46 48  1  0  0  0  0
 47 49  1  0  0  0  0
 47 50  1  0  0  0  0
 47 51  1  0  0  0  0
M  END
$$$$

  -OEChem-05262216553D

 51 50  0     1  0  0  0  0  0999 V2000
    2.4222   -3.1887   -3.3735 C   0  0  0  0  0  0  0  0  0  0  0  0
    1.4000   -3.6590   -2.9025 O   0  0  0  0  0  0  0  0  0  0  0  0
    3.5753   -4.1105   -3.7254 C   0  0  0  0  0  0  0  0  0  0  0  0
    4.4555   -3.8492   -3.1328 H   0  0  0  0  0  0  0  0  0  0  0  0
    3.3061   -5.1495   -3.5142 H   0  0  0  0  0  0  0  0  0  0  0  0
    3.8175   -4.0185   -4.7872 H   0  0  0  0  0  0  0  0  0  0  0  0
    2.5574   -1.8288   -3.5829 N   0  0  0  0  0  0  0  0  0  0  0  0
    1.6344   -0.7972   -3.0720 C   0  0  2  0  0  0  0  0  0  0  0  0
    1.6704   -0.6712   -1.5286 C   0  0  0  0  0  0  0  0  0  0  0  0
    2.7491   -0.7395   -0.9478 O   0  0  0  0  0  0  0  0  0  0  0  0
    0.2141   -0.9788   -3.6382 C   0  0  0  0  0  0  0  0  0  0  0  0
    3.5004   -1.5259   -3.8092 H   0  0  0  0  0  0  0  0  0  0  0  0
    1.9931    0.1645   -3.4512 H   0  0  0  0  0  0  0  0  0  0  0  0
   -0.3027   -1.8169   -3.1610 H   0  0  0  0  0  0  0  0  0  0  0  0
   -0.3789   -0.0738   -3.4762 H   0  0  0  0  0  0  0  0  0  0  0  0
    0.2595   -1.1687   -4.7150 H   0  0  0  0  0  0  0  0  0  0  0  0
    0.5551   -0.2608   -0.8156 N   0  0  0  0  0  0  0  0  0  0  0  0
    0.5141   -0.0299    0.6398 C   0  0  2  0  0  0  0  0  0  0  0  0
    1.2315    1.2953    0.9731 C   0  0  0  0  0  0  0  0  0  0  0  0
    0.6425    2.3535    0.7860 O   0  0  0  0  0  0  0  0  0  0  0  0
    0.9518   -1.2084    1.5527 C   0  0  0  0  0  0  0  0  0  0  0  0
    0.0471   -2.4650    1.5362 C   0  0  0  0  0  0  0  0  0  0  0  0
    0.7209   -3.5576    2.3773 C   0  0  0  0  0  0  0  0  0  0  0  0
   -0.2190   -3.0464    0.1422 C   0  0  0  0  0  0  0  0  0  0  0  0
   -0.3079   -0.1587   -1.3413 H   0  0  0  0  0  0  0  0  0  0  0  0
   -0.5353    0.1502    0.8941 H   0  0  0  0  0  0  0  0  0  0  0  0
    0.9833   -0.8430    2.5849 H   0  0  0  0  0  0  0  0  0  0  0  0
    1.9699   -1.5101    1.2919 H   0  0  0  0  0  0  0  0  0  0  0  0
   -0.9161   -2.2098    1.9910 H   0  0  0  0  0  0  0  0  0  0  0  0
    1.6760   -3.8562    1.9331 H   0  0  0  0  0  0  0  0  0  0  0  0
    0.0786   -4.4415    2.4434 H   0  0  0  0  0  0  0  0  0  0  0  0
    0.9081   -3.1961    3.3933 H   0  0  0  0  0  0  0  0  0  0  0  0
    0.7227   -3.1928   -0.3938 H   0  0  0  0  0  0  0  0  0  0  0  0
   -0.7233   -4.0147    0.2194 H   0  0  0  0  0  0  0  0  0  0  0  0
   -0.8656   -2.3860   -0.4407 H   0  0  0  0  0  0  0  0  0  0  0  0
    2.4950    1.2794    1.5401 N   0  0  0  0  0  0  0  0  0  0  0  0
    3.3651    2.4413    1.8149 C   0  0  2  0  0  0  0  0  0  0  0  0
    2.8844    3.3784    2.9476 C   0  0  0  0  0  0  0  0  0  0  0  0
    3.6827    3.7559    3.7959 O   0  0  0  0  0  0  0  0  0  0  0  0
    3.6375    3.2353    0.5305 C   0  0  0  0  0  0  0  0  0  0  0  0
    2.9549    0.3728    1.4719 H   0  0  0  0  0  0  0  0  0  0  0  0
    4.3263    2.0386    2.1507 H   0  0  0  0  0  0  0  0  0  0  0  0
    2.7389    3.7576    0.1895 H   0  0  0  0  0  0  0  0  0  0  0  0
    4.4176    3.9815    0.7109 H   0  0  0  0  0  0  0  0  0  0  0  0
    3.9756    2.5652   -0.2659 H   0  0  0  0  0  0  0  0  0  0  0  0
    1.5785    3.8213    3.0111 N   0  0  0  0  0  0  0  0  0  0  0  0
    1.0707    4.7369    4.0228 C   0  0  0  0  0  0  0  0  0  0  0  0
    0.9638    3.5151    2.2522 H   0  0  0  0  0  0  0  0  0  0  0  0
    1.5955    5.6964    3.9690 H   0  0  0  0  0  0  0  0  0  0  0  0
    0.0026    4.9160    3.8657 H   0  0  0  0  0  0  0  0  0  0  0  0
    1.2067    4.3147    5.0238 H   0  0  0  0  0  0  0  0  0  0  0  0
  1  2  2  0  0  0  0
  1  3  1  0  0  0  0
  1  7  1  0  0  0  0
  3  4  1  0  0  0  0
  3  5  1  0  0  0  0
  3  6  1  0  0  0  0
  7  8  1  0  0  0  0
  7 12  1  0  0  0  0
  8  9  1  0  0  0  0
  8 11  1  0  0  0  0
  8 13  1  0  0  0  0
  9 10  2  0  0  0  0
  9 17  1  0  0  0  0
 11 14  1  0  0  0  0
 11 15  1  0  0  0  0
 11 16  1  0  0  0  0
 17 18  1  0  0  0  0
 17 25  1  0  0  0  0
 18 19  1  0  0  0  0
 18 21  1  0  0  0  0
 18 26  1  0  0  0  0
 19 20  2  0  0  0  0
 19 36  1  0  0  0  0
 21 22  1  0  0  0  0
 21 27  1  0  0  0  0
 21 28  1  0  0  0  0
 22 23  1  0  0  0  0
 22 24  1  0  0  0  0
 22 29  1  0  0  0  0
 23 30  1  0  0  0  0
 23 31  1  0  0  0  0
 23 32  1  0  0  0  0
 24 33  1  0  0  0  0
 24 34  1  0  0  0  0
 24 35  1  0  0  0  0
 36 37  1  0  0  0  0
 36 41  1  0  0  0  0
 37 38  1  0  0  0  0
 37 40  1  0  0  0  0
 37 42  1  0  0  0  0
 38 39  2  0  0  0  0
 38 46  1  0  0  0  0
 40 43  1  0  0  0  0
 40 44  1  0  0  0  0
 40 45  1  0  0  0  0
 46 47  1  0  0  0  0
 46 48  1  0  0  0  0
 47 49  1  0  0  0  0
 47 50  1  0  0  0  0
 47 51  1  0  0  0  0
M  END
$$$$

  -OEChem-05262216553D

 51 50  0     1  0  0  0  0  0999 V2000
    2.5026   -3.2127   -3.3402 C   0  0  0  0  0  0  0  0  0  0  0  0
    1.5395   -3.7469   -2.8164 O   0  0  0  0  0  0  0  0  0  0  0  0
    3.7326   -4.0411   -3.6608 C   0  0  0  0  0  0  0  0  0  0  0  0
    4.5919   -3.6638   -3.1010 H   0  0  0  0  0  0  0  0  0  0  0  0
    3.5657   -5.0863   -3.3855 H   0  0  0  0  0  0  0  0  0  0  0  0
    3.9504   -3.9901   -4.7302 H   0  0  0  0  0  0  0  0  0  0  0  0
    2.5054   -1.8609   -3.6309 N   0  0  0  0  0  0  0  0  0  0  0  0
    1.5135   -0.8872   -3.1345 C   0  0  2  0  0  0  0  0  0  0  0  0
    1.5986   -0.6722   -1.6026 C   0  0  0  0  0  0  0  0  0  0  0  0
    2.6975   -0.6806   -1.0549 O   0  0  0  0  0  0  0  0  0  0  0  0
    0.0934   -1.2245   -3.6240 C   0  0  0  0  0  0  0  0  0  0  0  0
    3.4104   -1.4900   -3.9056 H   0  0  0  0  0  0  0  0  0  0  0  0
    1.7685    0.0788   -3.5804 H   0  0  0  0  0  0  0  0  0  0  0  0
   -0.3286   -2.0692   -3.0714 H   0  0  0  0  0  0  0  0  0  0  0  0
   -0.5699   -0.3645   -3.4933 H   0  0  0  0  0  0  0  0  0  0  0  0
    0.1123   -1.4814   -4.6876 H   0  0  0  0  0  0  0  0  0  0  0  0
    0.4979   -0.2450   -0.8753 N   0  0  0  0  0  0  0  0  0  0  0  0
    0.4900    0.0082    0.5782 C   0  0  2  0  0  0  0  0  0  0  0  0
    1.2173    1.3312    0.8923 C   0  0  0  0  0  0  0  0  0  0  0  0
    0.5682    2.3652    0.9950 O   0  0  0  0  0  0  0  0  0  0  0  0
    0.9523   -1.1553    1.4961 C   0  0  0  0  0  0  0  0  0  0  0  0
    0.0509   -2.4143    1.5196 C   0  0  0  0  0  0  0  0  0  0  0  0
    0.7481   -3.4931    2.3588 C   0  0  0  0  0  0  0  0  0  0  0  0
   -0.2556   -3.0135    0.1424 C   0  0  0  0  0  0  0  0  0  0  0  0
   -0.3909   -0.2303   -1.3670 H   0  0  0  0  0  0  0  0  0  0  0  0
   -0.5541    0.1896    0.8527 H   0  0  0  0  0  0  0  0  0  0  0  0
    1.0108   -0.7727    2.5210 H   0  0  0  0  0  0  0  0  0  0  0  0
    1.9648   -1.4581    1.2146 H   0  0  0  0  0  0  0  0  0  0  0  0
   -0.8997   -2.1543    1.9975 H   0  0  0  0  0  0  0  0  0  0  0  0
    1.6882   -3.8010    1.8892 H   0  0  0  0  0  0  0  0  0  0  0  0
    0.1065   -4.3742    2.4604 H   0  0  0  0  0  0  0  0  0  0  0  0
    0.9680   -3.1147    3.3620 H   0  0  0  0  0  0  0  0  0  0  0  0
    0.6697   -3.1655   -0.4190 H   0  0  0  0  0  0  0  0  0  0  0  0
   -0.7560   -3.9812    0.2471 H   0  0  0  0  0  0  0  0  0  0  0  0
   -0.9209   -2.3613   -0.4286 H   0  0  0  0  0  0  0  0  0  0  0  0
    2.5793    1.3163    1.1370 N   0  0  0  0  0  0  0  0  0  0  0  0
    3.4618    2.4828    1.3408 C   0  0  2  0  0  0  0  0  0  0  0  0
    3.2510    3.2549    2.6641 C   0  0  0  0  0  0  0  0  0  0  0  0
    4.2261    3.6199    3.3086 O   0  0  0  0  0  0  0  0  0  0  0  0
    3.3929    3.4338    0.1386 C   0  0  0  0  0  0  0  0  0  0  0  0
    3.0275    0.4555    0.8154 H   0  0  0  0  0  0  0  0  0  0  0  0
    4.4849    2.0955    1.3852 H   0  0  0  0  0  0  0  0  0  0  0  0
    2.4228    3.9366    0.0869 H   0  0  0  0  0  0  0  0  0  0  0  0
    4.1699    4.2002    0.2223 H   0  0  0  0  0  0  0  0  0  0  0  0
    3.5499    2.8807   -0.7923 H   0  0  0  0  0  0  0  0  0  0  0  0
    1.9880    3.5730    3.1218 N   0  0  0  0  0  0  0  0  0  0  0  0
    1.7253    4.3572    4.3199 C   0  0  0  0  0  0  0  0  0  0  0  0
    1.2112    3.3135    2.5082 H   0  0  0  0  0  0  0  0  0  0  0  0
    2.1655    5.3553    4.2286 H   0  0  0  0  0  0  0  0  0  0  0  0
    0.6468    4.4664    4.4688 H   0  0  0  0  0  0  0  0  0  0  0  0
    2.1486    3.8635    5.2008 H   0  0  0  0  0  0  0  0  0  0  0  0
  1  2  2  0  0  0  0
  1  3  1  0  0  0  0
  1  7  1  0  0  0  0
  3  4  1  0  0  0  0
  3  5  1  0  0  0  0
  3  6  1  0  0  0  0
  7  8  1  0  0  0  0
  7 12  1  0  0  0  0
  8  9  1  0  0  0  0
  8 11  1  0  0  0  0
  8 13  1  0  0  0  0
  9 10  2  0  0  0  0
  9 17  1  0  0  0  0
 11 14  1  0  0  0  0
 11 15  1  0  0  0  0
 11 16  1  0  0  0  0
 17 18  1  0  0  0  0
 17 25  1  0  0  0  0
 18 19  1  0  0  0  0
 18 21  1  0  0  0  0
 18 26  1  0  0  0  0
 19 20  2  0  0  0  0
 19 36  1  0  0  0  0
 21 22  1  0  0  0  0
 21 27  1  0  0  0  0
 21 28  1  0  0  0  0
 22 23  1  0  0  0  0
 22 24  1  0  0  0  0
 22 29  1  0  0  0  0
 23 30  1  0  0  0  0
 23 31  1  0  0  0  0
 23 32  1  0  0  0  0
 24 33  1  0  0  0  0
 24 34  1  0  0  0  0
 24 35  1  0  0  0  0
 36 37  1  0  0  0  0
 36 41  1  0  0  0  0
 37 38  1  0  0  0  0
 37 40  1  0  0  0  0
 37 42  1  0  0  0  0
 38 39  2  0  0  0  0
 38 46  1  0  0  0  0
 40 43  1  0  0  0  0
 40 44  1  0  0  0  0
 40 45  1  0  0  0  0
 46 47  1  0  0  0  0
 46 48  1  0  0  0  0
 47 49  1  0  0  0  0
 47 50  1  0  0  0  0
 47 51  1  0  0  0  0
M  END
$$$$

  -OEChem-05262216553D

 51 50  0     1  0  0  0  0  0999 V2000
    2.5474   -3.2524   -3.3637 C   0  0  0  0  0  0  0  0  0  0  0  0
    1.6479   -3.8175   -2.7645 O   0  0  0  0  0  0  0  0  0  0  0  0
    3.7992   -4.0239   -3.7368 C   0  0  0  0  0  0  0  0  0  0  0  0
    4.6691   -3.5822   -3.2444 H   0  0  0  0  0  0  0  0  0  0  0  0
    3.7085   -5.0669   -3.4203 H   0  0  0  0  0  0  0  0  0  0  0  0
    3.9473   -3.9960   -4.8190 H   0  0  0  0  0  0  0  0  0  0  0  0
    2.4570   -1.9144   -3.6994 N   0  0  0  0  0  0  0  0  0  0  0  0
    1.4350   -0.9814   -3.1869 C   0  0  2  0  0  0  0  0  0  0  0  0
    1.5627   -0.7171   -1.6652 C   0  0  0  0  0  0  0  0  0  0  0  0
    2.6767   -0.6947   -1.1508 O   0  0  0  0  0  0  0  0  0  0  0  0
    0.0185   -1.4117   -3.6090 C   0  0  0  0  0  0  0  0  0  0  0  0
    3.3208   -1.5051   -4.0434 H   0  0  0  0  0  0  0  0  0  0  0  0
    1.6196   -0.0166   -3.6688 H   0  0  0  0  0  0  0  0  0  0  0  0
   -0.3310   -2.2650   -3.0201 H   0  0  0  0  0  0  0  0  0  0  0  0
   -0.6877   -0.5878   -3.4705 H   0  0  0  0  0  0  0  0  0  0  0  0
    0.0090   -1.6943   -4.6663 H   0  0  0  0  0  0  0  0  0  0  0  0
    0.4768   -0.2714   -0.9257 N   0  0  0  0  0  0  0  0  0  0  0  0
    0.4791    0.0268    0.5219 C   0  0  2  0  0  0  0  0  0  0  0  0
    1.1973    1.3585    0.8216 C   0  0  0  0  0  0  0  0  0  0  0  0
    0.5432    2.3320    1.1750 O   0  0  0  0  0  0  0  0  0  0  0  0
    0.9700   -1.1044    1.4627 C   0  0  0  0  0  0  0  0  0  0  0  0
    0.0916   -2.3788    1.5329 C   0  0  0  0  0  0  0  0  0  0  0  0
    0.8187   -3.4221    2.3916 C   0  0  0  0  0  0  0  0  0  0  0  0
   -0.2254   -3.0233    0.1784 C   0  0  0  0  0  0  0  0  0  0  0  0
   -0.4227   -0.3026   -1.3966 H   0  0  0  0  0  0  0  0  0  0  0  0
   -0.5658    0.2006    0.7993 H   0  0  0  0  0  0  0  0  0  0  0  0
    1.0367   -0.6936    2.4762 H   0  0  0  0  0  0  0  0  0  0  0  0
    1.9842   -1.3953    1.1744 H   0  0  0  0  0  0  0  0  0  0  0  0
   -0.8564   -2.1219    2.0177 H   0  0  0  0  0  0  0  0  0  0  0  0
    1.7544   -3.7310    1.9142 H   0  0  0  0  0  0  0  0  0  0  0  0
    0.1916   -4.3083    2.5311 H   0  0  0  0  0  0  0  0  0  0  0  0
    1.0512   -3.0113    3.3789 H   0  0  0  0  0  0  0  0  0  0  0  0
    0.6943   -3.1814   -0.3908 H   0  0  0  0  0  0  0  0  0  0  0  0
   -0.7120   -3.9934    0.3197 H   0  0  0  0  0  0  0  0  0  0  0  0
   -0.9068   -2.3974   -0.4026 H   0  0  0  0  0  0  0  0  0  0  0  0
    2.5782    1.4150    0.7631 N   0  0  0  0  0  0  0  0  0  0  0  0
    3.4377    2.6066    0.9080 C   0  0  2  0  0  0  0  0  0  0  0  0
    3.4951    3.2161    2.3277 C   0  0  0  0  0  0  0  0  0  0  0  0
    4.5697    3.5971    2.7745 O   0  0  0  0  0  0  0  0  0  0  0  0
    3.0610    3.6770   -0.1248 C   0  0  0  0  0  0  0  0  0  0  0  0
    2.9954    0.5911    0.3182 H   0  0  0  0  0  0  0  0  0  0  0  0
    4.4590    2.2832    0.6813 H   0  0  0  0  0  0  0  0  0  0  0  0
    2.0876    4.1207    0.1041 H   0  0  0  0  0  0  0  0  0  0  0  0
    3.8082    4.4767   -0.1249 H   0  0  0  0  0  0  0  0  0  0  0  0
    3.0192    3.2409   -1.1273 H   0  0  0  0  0  0  0  0  0  0  0  0
    2.3549    3.3848    3.0878 N   0  0  0  0  0  0  0  0  0  0  0  0
    2.3312    4.0531    4.3810 C   0  0  0  0  0  0  0  0  0  0  0  0
    1.4724    3.1408    2.6306 H   0  0  0  0  0  0  0  0  0  0  0  0
    2.6579    5.0932    4.2793 H   0  0  0  0  0  0  0  0  0  0  0  0
    1.3171    4.0458    4.7916 H   0  0  0  0  0  0  0  0  0  0  0  0
    2.9935    3.5421    5.0875 H   0  0  0  0  0  0  0  0  0  0  0  0
  1  2  2  0  0  0  0
  1  3  1  0  0  0  0
  1  7  1  0  0  0  0
  3  4  1  0  0  0  0
  3  5  1  0  0  0  0
  3  6  1  0  0  0  0
  7  8  1  0  0  0  0
  7 12  1  0  0  0  0
  8  9  1  0  0  0  0
  8 11  1  0  0  0  0
  8 13  1  0  0  0  0
  9 10  2  0  0  0  0
  9 17  1  0  0  0  0
 11 14  1  0  0  0  0
 11 15  1  0  0  0  0
 11 16  1  0  0  0  0
 17 18  1  0  0  0  0
 17 25  1  0  0  0  0
 18 19  1  0  0  0  0
 18 21  1  0  0  0  0
 18 26  1  0  0  0  0
 19 20  2  0  0  0  0
 19 36  1  0  0  0  0
 21 22  1  0  0  0  0
 21 27  1  0  0  0  0
 21 28  1  0  0  0  0
 22 23  1  0  0  0  0
 22 24  1  0  0  0  0
 22 29  1  0  0  0  0
 23 30  1  0  0  0  0
 23 31  1  0  0  0  0
 23 32  1  0  0  0  0
 24 33  1  0  0  0  0
 24 34  1  0  0  0  0
 24 35  1  0  0  0  0
 36 37  1  0  0  0  0
 36 41  1  0  0  0  0
 37 38  1  0  0  0  0
 37 40  1  0  0  0  0
 37 42  1  0  0  0  0
 38 39  2  0  0  0  0
 38 46  1  0  0  0  0
 40 43  1  0  0  0  0
 40 44  1  0  0  0  0
 40 45  1  0  0  0  0
 46 47  1  0  0  0  0
 46 48  1  0  0  0  0
 47 49  1  0  0  0  0
 47 50  1  0  0  0  0
 47 51  1  0  0  0  0
M  END
$$$$

  -OEChem-05262216553D

 51 50  0     1  0  0  0  0  0999 V2000
    2.3388   -3.3904   -3.4210 C   0  0  0  0  0  0  0  0  0  0  0  0
    1.3664   -3.8604   -2.8546 O   0  0  0  0  0  0  0  0  0  0  0  0
    3.5137   -4.2880   -3.7598 C   0  0  0  0  0  0  0  0  0  0  0  0
    4.4012   -3.9627   -3.2114 H   0  0  0  0  0  0  0  0  0  0  0  0
    3.2898   -5.3226   -3.4849 H   0  0  0  0  0  0  0  0  0  0  0  0
    3.7192   -4.2463   -4.8320 H   0  0  0  0  0  0  0  0  0  0  0  0
    2.3994   -2.0487   -3.7477 N   0  0  0  0  0  0  0  0  0  0  0  0
    1.4637   -1.0147   -3.2664 C   0  0  2  0  0  0  0  0  0  0  0  0
    1.6041   -0.7389   -1.7484 C   0  0  0  0  0  0  0  0  0  0  0  0
    2.7270   -0.6779   -1.2597 O   0  0  0  0  0  0  0  0  0  0  0  0
    0.0168   -1.3064   -3.7049 C   0  0  0  0  0  0  0  0  0  0  0  0
    3.3118   -1.7299   -4.0614 H   0  0  0  0  0  0  0  0  0  0  0  0
    1.7474   -0.0805   -3.7602 H   0  0  0  0  0  0  0  0  0  0  0  0
   -0.4265   -2.1109   -3.1107 H   0  0  0  0  0  0  0  0  0  0  0  0
   -0.6039   -0.4130   -3.5890 H   0  0  0  0  0  0  0  0  0  0  0  0
   -0.0057   -1.6024   -4.7582 H   0  0  0  0  0  0  0  0  0  0  0  0
    0.5165   -0.3270   -0.9926 N   0  0  0  0  0  0  0  0  0  0  0  0
    0.5143    0.0164    0.4471 C   0  0  2  0  0  0  0  0  0  0  0  0
    1.1583    1.3916    0.7241 C   0  0  0  0  0  0  0  0  0  0  0  0
    0.5092    2.2536    1.3033 O   0  0  0  0  0  0  0  0  0  0  0  0
    1.0891   -1.0479    1.4165 C   0  0  0  0  0  0  0  0  0  0  0  0
    0.3030   -2.3765    1.5408 C   0  0  0  0  0  0  0  0  0  0  0  0
    1.1119   -3.3351    2.4247 C   0  0  0  0  0  0  0  0  0  0  0  0
    0.0253   -3.0901    0.2131 C   0  0  0  0  0  0  0  0  0  0  0  0
   -0.3873   -0.4181   -1.4478 H   0  0  0  0  0  0  0  0  0  0  0  0
   -0.5373    0.1324    0.7291 H   0  0  0  0  0  0  0  0  0  0  0  0
    1.1374   -0.6014    2.4158 H   0  0  0  0  0  0  0  0  0  0  0  0
    2.1187   -1.2746    1.1243 H   0  0  0  0  0  0  0  0  0  0  0  0
   -0.6571   -2.1705    2.0256 H   0  0  0  0  0  0  0  0  0  0  0  0
    2.0721   -3.5762    1.9573 H   0  0  0  0  0  0  0  0  0  0  0  0
    0.5609   -4.2670    2.5849 H   0  0  0  0  0  0  0  0  0  0  0  0
    1.3054   -2.8821    3.4020 H   0  0  0  0  0  0  0  0  0  0  0  0
    0.9536   -3.2122   -0.3513 H   0  0  0  0  0  0  0  0  0  0  0  0
   -0.3998   -4.0826    0.3930 H   0  0  0  0  0  0  0  0  0  0  0  0
   -0.6937   -2.5311   -0.3906 H   0  0  0  0  0  0  0  0  0  0  0  0
    2.4761    1.6222    0.3725 N   0  0  0  0  0  0  0  0  0  0  0  0
    3.2542    2.8683    0.5195 C   0  0  2  0  0  0  0  0  0  0  0  0
    3.5594    3.2887    1.9759 C   0  0  0  0  0  0  0  0  0  0  0  0
    4.6848    3.6727    2.2680 O   0  0  0  0  0  0  0  0  0  0  0  0
    2.5938    4.0203   -0.2489 C   0  0  0  0  0  0  0  0  0  0  0  0
    2.9197    0.8396   -0.1195 H   0  0  0  0  0  0  0  0  0  0  0  0
    4.2273    2.6870    0.0519 H   0  0  0  0  0  0  0  0  0  0  0  0
    1.6466    4.3124    0.2138 H   0  0  0  0  0  0  0  0  0  0  0  0
    3.2540    4.8932   -0.2543 H   0  0  0  0  0  0  0  0  0  0  0  0
    2.4019    3.7257   -1.2847 H   0  0  0  0  0  0  0  0  0  0  0  0
    2.5798    3.2810    2.9487 N   0  0  0  0  0  0  0  0  0  0  0  0
    2.7829    3.7436    4.3143 C   0  0  0  0  0  0  0  0  0  0  0  0
    1.6401    3.0210    2.6377 H   0  0  0  0  0  0  0  0  0  0  0  0
    3.0762    4.7984    4.3209 H   0  0  0  0  0  0  0  0  0  0  0  0
    1.8589    3.6371    4.8904 H   0  0  0  0  0  0  0  0  0  0  0  0
    3.5660    3.1563    4.8048 H   0  0  0  0  0  0  0  0  0  0  0  0
  1  2  2  0  0  0  0
  1  3  1  0  0  0  0
  1  7  1  0  0  0  0
  3  4  1  0  0  0  0
  3  5  1  0  0  0  0
  3  6  1  0  0  0  0
  7  8  1  0  0  0  0
  7 12  1  0  0  0  0
  8  9  1  0  0  0  0
  8 11  1  0  0  0  0
  8 13  1  0  0  0  0
  9 10  2  0  0  0  0
  9 17  1  0  0  0  0
 11 14  1  0  0  0  0
 11 15  1  0  0  0  0
 11 16  1  0  0  0  0
 17 18  1  0  0  0  0
 17 25  1  0  0  0  0
 18 19  1  0  0  0  0
 18 21  1  0  0  0  0
 18 26  1  0  0  0  0
 19 20  2  0  0  0  0
 19 36  1  0  0  0  0
 21 22  1  0  0  0  0
 21 27  1  0  0  0  0
 21 28  1  0  0  0  0
 22 23  1  0  0  0  0
 22 24  1  0  0  0  0
 22 29  1  0  0  0  0
 23 30  1  0  0  0  0
 23 31  1  0  0  0  0
 23 32  1  0  0  0  0
 24 33  1  0  0  0  0
 24 34  1  0  0  0  0
 24 35  1  0  0  0  0
 36 37  1  0  0  0  0
 36 41  1  0  0  0  0
 37 38  1  0  0  0  0
 37 40  1  0  0  0  0
 37 42  1  0  0  0  0
 38 39  2  0  0  0  0
 38 46  1  0  0  0  0
 40 43  1  0  0  0  0
 40 44  1  0  0  0  0
 40 45  1  0  0  0  0
 46 47  1  0  0  0  0
 46 48  1  0  0  0  0
 47 49  1  0  0  0  0
 47 50  1  0  0  0  0
 47 51  1  0  0  0  0
M  END
$$$$

  -OEChem-05262216553D

 51 50  0     1  0  0  0  0  0999 V2000
    2.4692   -3.3820   -3.4119 C   0  0  0  0  0  0  0  0  0  0  0  0
    1.5794   -3.9322   -2.7853 O   0  0  0  0  0  0  0  0  0  0  0  0
    3.7265   -4.1555   -3.7621 C   0  0  0  0  0  0  0  0  0  0  0  0
    4.5921   -3.6985   -3.2758 H   0  0  0  0  0  0  0  0  0  0  0  0
    3.6392   -5.1918   -3.4231 H   0  0  0  0  0  0  0  0  0  0  0  0
    3.8796   -4.1515   -4.8441 H   0  0  0  0  0  0  0  0  0  0  0  0
    2.3635   -2.0587   -3.7975 N   0  0  0  0  0  0  0  0  0  0  0  0
    1.3422   -1.1124   -3.3084 C   0  0  2  0  0  0  0  0  0  0  0  0
    1.5218   -0.7556   -1.8113 C   0  0  0  0  0  0  0  0  0  0  0  0
    2.6556   -0.6280   -1.3637 O   0  0  0  0  0  0  0  0  0  0  0  0
   -0.0829   -1.5799   -3.6558 C   0  0  0  0  0  0  0  0  0  0  0  0
    3.2236   -1.6556   -4.1584 H   0  0  0  0  0  0  0  0  0  0  0  0
    1.4958   -0.1762   -3.8536 H   0  0  0  0  0  0  0  0  0  0  0  0
   -0.4063   -2.3937   -3.0002 H   0  0  0  0  0  0  0  0  0  0  0  0
   -0.7916   -0.7530   -3.5507 H   0  0  0  0  0  0  0  0  0  0  0  0
   -0.1221   -1.9332   -4.6909 H   0  0  0  0  0  0  0  0  0  0  0  0
    0.4465   -0.3294   -1.0460 N   0  0  0  0  0  0  0  0  0  0  0  0
    0.4642    0.0560    0.3849 C   0  0  2  0  0  0  0  0  0  0  0  0
    1.0972    1.4417    0.6423 C   0  0  0  0  0  0  0  0  0  0  0  0
    0.5501    2.2094    1.4243 O   0  0  0  0  0  0  0  0  0  0  0  0
    1.0669   -0.9849    1.3620 C   0  0  0  0  0  0  0  0  0  0  0  0
    0.2945   -2.3173    1.5293 C   0  0  0  0  0  0  0  0  0  0  0  0
    1.1308   -3.2512    2.4142 C   0  0  0  0  0  0  0  0  0  0  0  0
   -0.0152   -3.0618    0.2254 C   0  0  0  0  0  0  0  0  0  0  0  0
   -0.4653   -0.4695   -1.4717 H   0  0  0  0  0  0  0  0  0  0  0  0
   -0.5839    0.1671    0.6800 H   0  0  0  0  0  0  0  0  0  0  0  0
    1.1341   -0.5196    2.3519 H   0  0  0  0  0  0  0  0  0  0  0  0
    2.0914   -1.2085    1.0502 H   0  0  0  0  0  0  0  0  0  0  0  0
   -0.6541   -2.1071    2.0348 H   0  0  0  0  0  0  0  0  0  0  0  0
    2.0779   -3.5033    1.9257 H   0  0  0  0  0  0  0  0  0  0  0  0
    0.5862   -4.1792    2.6149 H   0  0  0  0  0  0  0  0  0  0  0  0
    1.3512   -2.7726    3.3733 H   0  0  0  0  0  0  0  0  0  0  0  0
    0.8970   -3.1907   -0.3627 H   0  0  0  0  0  0  0  0  0  0  0  0
   -0.4281   -4.0527    0.4391 H   0  0  0  0  0  0  0  0  0  0  0  0
   -0.7554   -2.5212   -0.3691 H   0  0  0  0  0  0  0  0  0  0  0  0
    2.2807    1.8021    0.0236 N   0  0  0  0  0  0  0  0  0  0  0  0
    3.0265    3.0698    0.1500 C   0  0  2  0  0  0  0  0  0  0  0  0
    3.6420    3.3343    1.5432 C   0  0  0  0  0  0  0  0  0  0  0  0
    4.7935    3.7424    1.6256 O   0  0  0  0  0  0  0  0  0  0  0  0
    2.1654    4.2593   -0.2947 C   0  0  0  0  0  0  0  0  0  0  0  0
    2.7144    1.0475   -0.5178 H   0  0  0  0  0  0  0  0  0  0  0  0
    3.8704    3.0069   -0.5446 H   0  0  0  0  0  0  0  0  0  0  0  0
    1.3497    4.4431    0.4106 H   0  0  0  0  0  0  0  0  0  0  0  0
    2.7781    5.1647   -0.3496 H   0  0  0  0  0  0  0  0  0  0  0  0
    1.7368    4.0699   -1.2832 H   0  0  0  0  0  0  0  0  0  0  0  0
    2.9058    3.1580    2.6976 N   0  0  0  0  0  0  0  0  0  0  0  0
    3.3980    3.4575    4.0344 C   0  0  0  0  0  0  0  0  0  0  0  0
    1.9278    2.8852    2.5688 H   0  0  0  0  0  0  0  0  0  0  0  0
    3.6472    4.5201    4.1213 H   0  0  0  0  0  0  0  0  0  0  0  0
    2.6335    3.2180    4.7795 H   0  0  0  0  0  0  0  0  0  0  0  0
    4.2924    2.8653    4.2540 H   0  0  0  0  0  0  0  0  0  0  0  0
  1  2  2  0  0  0  0
  1  3  1  0  0  0  0
  1  7  1  0  0  0  0
  3  4  1  0  0  0  0
  3  5  1  0  0  0  0
  3  6  1  0  0  0  0
  7  8  1  0  0  0  0
  7 12  1  0  0  0  0
  8  9  1  0  0  0  0
  8 11  1  0  0  0  0
  8 13  1  0  0  0  0
  9 10  2  0  0  0  0
  9 17  1  0  0  0  0
 11 14  1  0  0  0  0
 11 15  1  0  0  0  0
 11 16  1  0  0  0  0
 17 18  1  0  0  0  0
 17 25  1  0  0  0  0
 18 19  1  0  0  0  0
 18 21  1  0  0  0  0
 18 26  1  0  0  0  0
 19 20  2  0  0  0  0
 19 36  1  0  0  0  0
 21 22  1  0  0  0  0
 21 27  1  0  0  0  0
 21 28  1  0  0  0  0
 22 23  1  0  0  0  0
 22 24  1  0  0  0  0
 22 29  1  0  0  0  0
 23 30  1  0  0  0  0
 23 31  1  0  0  0  0
 23 32  1  0  0  0  0
 24 33  1  0  0  0  0
 24 34  1  0  0  0  0
 24 35  1  0  0  0  0
 36 37  1  0  0  0  0
 36 41  1  0  0  0  0
 37 38  1  0  0  0  0
 37 40  1  0  0  0  0
 37 42  1  0  0  0  0
 38 39  2  0  0  0  0
 38 46  1  0  0  0  0
 40 43  1  0  0  0  0
 40 44  1  0  0  0  0
 40 45  1  0  0  0  0
 46 47  1  0  0  0  0
 46 48  1  0  0  0  0
 47 49  1  0  0  0  0
 47 50  1  0  0  0  0
 47 51  1  0  0  0  0
M  END
$$$$

  -OEChem-05262216553D

 51 50  0     1  0  0  0  0  0999 V2000
    2.6204   -3.3267   -3.3616 C   0  0  0  0  0  0  0  0  0  0  0  0
    1.8390   -3.9422   -2.6564 O   0  0  0  0  0  0  0  0  0  0  0  0
    3.9445   -3.9629   -3.7408 C   0  0  0  0  0  0  0  0  0  0  0  0
    4.7710   -3.3678   -3.3442 H   0  0  0  0  0  0  0  0  0  0  0  0
    4.0103   -4.9736   -3.3279 H   0  0  0  0  0  0  0  0  0  0  0  0
    4.0340   -4.0213   -4.8282 H   0  0  0  0  0  0  0  0  0  0  0  0
    2.3310   -2.0524   -3.8136 N   0  0  0  0  0  0  0  0  0  0  0  0
    1.2279   -1.2068   -3.3165 C   0  0  2  0  0  0  0  0  0  0  0  0
    1.4346   -0.7466   -1.8511 C   0  0  0  0  0  0  0  0  0  0  0  0
    2.5703   -0.5137   -1.4544 O   0  0  0  0  0  0  0  0  0  0  0  0
   -0.1449   -1.8589   -3.5606 C   0  0  0  0  0  0  0  0  0  0  0  0
    3.1163   -1.5716   -4.2431 H   0  0  0  0  0  0  0  0  0  0  0  0
    1.2401   -0.2914   -3.9159 H   0  0  0  0  0  0  0  0  0  0  0  0
   -0.3306   -2.6735   -2.8549 H   0  0  0  0  0  0  0  0  0  0  0  0
   -0.9443   -1.1205   -3.4493 H   0  0  0  0  0  0  0  0  0  0  0  0
   -0.1946   -2.2641   -4.5760 H   0  0  0  0  0  0  0  0  0  0  0  0
    0.3653   -0.3199   -1.0774 N   0  0  0  0  0  0  0  0  0  0  0  0
    0.4148    0.0852    0.3485 C   0  0  2  0  0  0  0  0  0  0  0  0
    1.0409    1.4779    0.5971 C   0  0  0  0  0  0  0  0  0  0  0  0
    0.6471    2.1388    1.5501 O   0  0  0  0  0  0  0  0  0  0  0  0
    1.0352   -0.9585    1.3124 C   0  0  0  0  0  0  0  0  0  0  0  0
    0.2568   -2.2847    1.5033 C   0  0  0  0  0  0  0  0  0  0  0  0
    1.1075   -3.2247    2.3673 C   0  0  0  0  0  0  0  0  0  0  0  0
   -0.1048   -3.0274    0.2131 C   0  0  0  0  0  0  0  0  0  0  0  0
   -0.5501   -0.5503   -1.4529 H   0  0  0  0  0  0  0  0  0  0  0  0
   -0.6270    0.1978    0.6641 H   0  0  0  0  0  0  0  0  0  0  0  0
    1.1350   -0.4940    2.2996 H   0  0  0  0  0  0  0  0  0  0  0  0
    2.0488   -1.1908    0.9707 H   0  0  0  0  0  0  0  0  0  0  0  0
   -0.6732   -2.0635    2.0375 H   0  0  0  0  0  0  0  0  0  0  0  0
    2.0312   -3.4986    1.8468 H   0  0  0  0  0  0  0  0  0  0  0  0
    0.5540   -4.1409    2.5962 H   0  0  0  0  0  0  0  0  0  0  0  0
    1.3717   -2.7416    3.3131 H   0  0  0  0  0  0  0  0  0  0  0  0
    0.7841   -3.1629   -0.4078 H   0  0  0  0  0  0  0  0  0  0  0  0
   -0.5164   -4.0153    0.4421 H   0  0  0  0  0  0  0  0  0  0  0  0
   -0.8627   -2.4808   -0.3529 H   0  0  0  0  0  0  0  0  0  0  0  0
    2.0177    1.9857   -0.2413 N   0  0  0  0  0  0  0  0  0  0  0  0
    2.7104    3.2872   -0.1437 C   0  0  2  0  0  0  0  0  0  0  0  0
    3.6258    3.4520    1.0912 C   0  0  0  0  0  0  0  0  0  0  0  0
    4.7471    3.9232    0.9503 O   0  0  0  0  0  0  0  0  0  0  0  0
    1.7160    4.4528   -0.2379 C   0  0  0  0  0  0  0  0  0  0  0  0
    2.4246    1.2823   -0.8645 H   0  0  0  0  0  0  0  0  0  0  0  0
    3.3673    3.3585   -1.0166 H   0  0  0  0  0  0  0  0  0  0  0  0
    1.0863    4.5105    0.6548 H   0  0  0  0  0  0  0  0  0  0  0  0
    2.2578    5.3992   -0.3332 H   0  0  0  0  0  0  0  0  0  0  0  0
    1.0711    4.3334   -1.1135 H   0  0  0  0  0  0  0  0  0  0  0  0
    3.1911    3.1147    2.3574 N   0  0  0  0  0  0  0  0  0  0  0  0
    3.9794    3.2954    3.5677 C   0  0  0  0  0  0  0  0  0  0  0  0
    2.2253    2.7835    2.4281 H   0  0  0  0  0  0  0  0  0  0  0  0
    4.2337    4.3515    3.7046 H   0  0  0  0  0  0  0  0  0  0  0  0
    3.4111    2.9592    4.4401 H   0  0  0  0  0  0  0  0  0  0  0  0
    4.9046    2.7127    3.5116 H   0  0  0  0  0  0  0  0  0  0  0  0
  1  2  2  0  0  0  0
  1  3  1  0  0  0  0
  1  7  1  0  0  0  0
  3  4  1  0  0  0  0
  3  5  1  0  0  0  0
  3  6  1  0  0  0  0
  7  8  1  0  0  0  0
  7 12  1  0  0  0  0
  8  9  1  0  0  0  0
  8 11  1  0  0  0  0
  8 13  1  0  0  0  0
  9 10  2  0  0  0  0
  9 17  1  0  0  0  0
 11 14  1  0  0  0  0
 11 15  1  0  0  0  0
 11 16  1  0  0  0  0
 17 18  1  0  0  0  0
 17 25  1  0  0  0  0
 18 19  1  0  0  0  0
 18 21  1  0  0  0  0
 18 26  1  0  0  0  0
 19 20  2  0  0  0  0
 19 36  1  0  0  0  0
 21 22  1  0  0  0  0
 21 27  1  0  0  0  0
 21 28  1  0  0  0  0
 22 23  1  0  0  0  0
 22 24  1  0  0  0  0
 22 29  1  0  0  0  0
 23 30  1  0  0  0  0
 23 31  1  0  0  0  0
 23 32  1  0  0  0  0
 24 33  1  0  0  0  0
 24 34  1  0  0  0  0
 24 35  1  0  0  0  0
 36 37  1  0  0  0  0
 36 41  1  0  0  0  0
 37 38  1  0  0  0  0
 37 40  1  0  0  0  0
 37 42  1  0  0  0  0
 38 39  2  0  0  0  0
 38 46  1  0  0  0  0
 40 43  1  0  0  0  0
 40 44  1  0  0  0  0
 40 45  1  0  0  0  0
 46 47  1  0  0  0  0
 46 48  1  0  0  0  0
 47 49  1  0  0  0  0
 47 50  1  0  0  0  0
 47 51  1  0  0  0  0
M  END
$$$$

  -OEChem-05262216553D

 51 50  0     1  0  0  0  0  0999 V2000
    2.7026   -3.2699   -3.3159 C   0  0  0  0  0  0  0  0  0  0  0  0
    1.9711   -3.9024   -2.5730 O   0  0  0  0  0  0  0  0  0  0  0  0
    4.0461   -3.8508   -3.7159 C   0  0  0  0  0  0  0  0  0  0  0  0
    4.8494   -3.1716   -3.4194 H   0  0  0  0  0  0  0  0  0  0  0  0
    4.2024   -4.8146   -3.2231 H   0  0  0  0  0  0  0  0  0  0  0  0
    4.0824   -3.9986   -4.7979 H   0  0  0  0  0  0  0  0  0  0  0  0
    2.3337   -2.0278   -3.7985 N   0  0  0  0  0  0  0  0  0  0  0  0
    1.1955   -1.2313   -3.3006 C   0  0  2  0  0  0  0  0  0  0  0  0
    1.3925   -0.7407   -1.8434 C   0  0  0  0  0  0  0  0  0  0  0  0
    2.5168   -0.4377   -1.4642 O   0  0  0  0  0  0  0  0  0  0  0  0
   -0.1439   -1.9553   -3.5254 C   0  0  0  0  0  0  0  0  0  0  0  0
    3.0791   -1.5194   -4.2658 H   0  0  0  0  0  0  0  0  0  0  0  0
    1.1574   -0.3247   -3.9118 H   0  0  0  0  0  0  0  0  0  0  0  0
   -0.2754   -2.7807   -2.8203 H   0  0  0  0  0  0  0  0  0  0  0  0
   -0.9795   -1.2608   -3.4000 H   0  0  0  0  0  0  0  0  0  0  0  0
   -0.1871   -2.3599   -4.5413 H   0  0  0  0  0  0  0  0  0  0  0  0
    0.3168   -0.3154   -1.0787 N   0  0  0  0  0  0  0  0  0  0  0  0
    0.3679    0.0926    0.3473 C   0  0  2  0  0  0  0  0  0  0  0  0
    0.9954    1.4877    0.5864 C   0  0  0  0  0  0  0  0  0  0  0  0
    0.7701    2.0679    1.6414 O   0  0  0  0  0  0  0  0  0  0  0  0
    0.9888   -0.9550    1.3091 C   0  0  0  0  0  0  0  0  0  0  0  0
    0.2094   -2.2809    1.5011 C   0  0  0  0  0  0  0  0  0  0  0  0
    1.0614   -3.2229    2.3622 C   0  0  0  0  0  0  0  0  0  0  0  0
   -0.1598   -3.0225    0.2121 C   0  0  0  0  0  0  0  0  0  0  0  0
   -0.5923   -0.5916   -1.4379 H   0  0  0  0  0  0  0  0  0  0  0  0
   -0.6726    0.2102    0.6658 H   0  0  0  0  0  0  0  0  0  0  0  0
    1.0920   -0.4948    2.2978 H   0  0  0  0  0  0  0  0  0  0  0  0
    2.0014   -1.1870    0.9643 H   0  0  0  0  0  0  0  0  0  0  0  0
   -0.7180   -2.0584    2.0396 H   0  0  0  0  0  0  0  0  0  0  0  0
    1.9861   -3.4936    1.8422 H   0  0  0  0  0  0  0  0  0  0  0  0
    0.5094   -4.1407    2.5877 H   0  0  0  0  0  0  0  0  0  0  0  0
    1.3239   -2.7424    3.3099 H   0  0  0  0  0  0  0  0  0  0  0  0
    0.7254   -3.1604   -0.4132 H   0  0  0  0  0  0  0  0  0  0  0  0
   -0.5723   -4.0095    0.4432 H   0  0  0  0  0  0  0  0  0  0  0  0
   -0.9194   -2.4740   -0.3498 H   0  0  0  0  0  0  0  0  0  0  0  0
    1.7295    2.1157   -0.4046 N   0  0  0  0  0  0  0  0  0  0  0  0
    2.3530    3.4543   -0.3553 C   0  0  2  0  0  0  0  0  0  0  0  0
    3.5067    3.6063    0.6623 C   0  0  0  0  0  0  0  0  0  0  0  0
    4.5293    4.1904    0.3272 O   0  0  0  0  0  0  0  0  0  0  0  0
    1.2983    4.5491   -0.1436 C   0  0  0  0  0  0  0  0  0  0  0  0
    2.0910    1.4601   -1.1012 H   0  0  0  0  0  0  0  0  0  0  0  0
    2.7973    3.6282   -1.3407 H   0  0  0  0  0  0  0  0  0  0  0  0
    0.8909    4.5162    0.8710 H   0  0  0  0  0  0  0  0  0  0  0  0
    1.7474    5.5352   -0.2976 H   0  0  0  0  0  0  0  0  0  0  0  0
    0.4760    4.4275   -0.8545 H   0  0  0  0  0  0  0  0  0  0  0  0
    3.3927    3.1329    1.9541 N   0  0  0  0  0  0  0  0  0  0  0  0
    4.4085    3.3100    2.9817 C   0  0  0  0  0  0  0  0  0  0  0  0
    2.4864    2.7294    2.2051 H   0  0  0  0  0  0  0  0  0  0  0  0
    4.5392    4.3725    3.2108 H   0  0  0  0  0  0  0  0  0  0  0  0
    4.1115    2.7904    3.8976 H   0  0  0  0  0  0  0  0  0  0  0  0
    5.3671    2.8995    2.6477 H   0  0  0  0  0  0  0  0  0  0  0  0
  1  2  2  0  0  0  0
  1  3  1  0  0  0  0
  1  7  1  0  0  0  0
  3  4  1  0  0  0  0
  3  5  1  0  0  0  0
  3  6  1  0  0  0  0
  7  8  1  0  0  0  0
  7 12  1  0  0  0  0
  8  9  1  0  0  0  0
  8 11  1  0  0  0  0
  8 13  1  0  0  0  0
  9 10  2  0  0  0  0
  9 17  1  0  0  0  0
 11 14  1  0  0  0  0
 11 15  1  0  0  0  0
 11 16  1  0  0  0  0
 17 18  1  0  0  0  0
 17 25  1  0  0  0  0
 18 19  1  0  0  0  0
 18 21  1  0  0  0  0
 18 26  1  0  0  0  0
 19 20  2  0  0  0  0
 19 36  1  0  0  0  0
 21 22  1  0  0  0  0
 21 27  1  0  0  0  0
 21 28  1  0  0  0  0
 22 23  1  0  0  0  0
 22 24  1  0  0  0  0
 22 29  1  0  0  0  0
 23 30  1  0  0  0  0
 23 31  1  0  0  0  0
 23 32  1  0  0  0  0
 24 33  1  0  0  0  0
 24 34  1  0  0  0  0
 24 35  1  0  0  0  0
 36 37  1  0  0  0  0
 36 41  1  0  0  0  0
 37 38  1  0  0  0  0
 37 40  1  0  0  0  0
 37 42  1  0  0  0  0
 38 39  2  0  0  0  0
 38 46  1  0  0  0  0
 40 43  1  0  0  0  0
 40 44  1  0  0  0  0
 40 45  1  0  0  0  0
 46 47  1  0  0  0  0
 46 48  1  0  0  0  0
 47 49  1  0  0  0  0
 47 50  1  0  0  0  0
 47 51  1  0  0  0  0
M  END
$$$$

  -OEChem-05262216553D

 51 50  0     1  0  0  0  0  0999 V2000
    2.7332   -3.2627   -3.2626 C   0  0  0  0  0  0  0  0  0  0  0  0
    1.9684   -3.9103   -2.5684 O   0  0  0  0  0  0  0  0  0  0  0  0
    4.0920   -3.8394   -3.6140 C   0  0  0  0  0  0  0  0  0  0  0  0
    4.8825   -3.2207   -3.1819 H   0  0  0  0  0  0  0  0  0  0  0  0
    4.1852   -4.8549   -3.2185 H   0  0  0  0  0  0  0  0  0  0  0  0
    4.2154   -3.8726   -4.6992 H   0  0  0  0  0  0  0  0  0  0  0  0
    2.3908   -2.0080   -3.7320 N   0  0  0  0  0  0  0  0  0  0  0  0
    1.2310   -1.2152   -3.2787 C   0  0  2  0  0  0  0  0  0  0  0  0
    1.3862   -0.6985   -1.8265 C   0  0  0  0  0  0  0  0  0  0  0  0
    2.4886   -0.3312   -1.4435 O   0  0  0  0  0  0  0  0  0  0  0  0
   -0.0998   -1.9465   -3.5292 C   0  0  0  0  0  0  0  0  0  0  0  0
    3.1629   -1.4900   -4.1426 H   0  0  0  0  0  0  0  0  0  0  0  0
    1.2043   -0.3189   -3.9055 H   0  0  0  0  0  0  0  0  0  0  0  0
   -0.2536   -2.7549   -2.8094 H   0  0  0  0  0  0  0  0  0  0  0  0
   -0.9392   -1.2499   -3.4469 H   0  0  0  0  0  0  0  0  0  0  0  0
   -0.1098   -2.3754   -4.5361 H   0  0  0  0  0  0  0  0  0  0  0  0
    0.2872   -0.3061   -1.0780 N   0  0  0  0  0  0  0  0  0  0  0  0
    0.3246    0.0974    0.3501 C   0  0  2  0  0  0  0  0  0  0  0  0
    0.9194    1.5094    0.5827 C   0  0  0  0  0  0  0  0  0  0  0  0
    0.8907    2.0003    1.7047 O   0  0  0  0  0  0  0  0  0  0  0  0
    0.9592   -0.9488    1.3066 C   0  0  0  0  0  0  0  0  0  0  0  0
    0.1996   -2.2879    1.4855 C   0  0  0  0  0  0  0  0  0  0  0  0
    1.0647   -3.2220    2.3420 C   0  0  0  0  0  0  0  0  0  0  0  0
   -0.1554   -3.0249    0.1903 C   0  0  0  0  0  0  0  0  0  0  0  0
   -0.6046   -0.6421   -1.4304 H   0  0  0  0  0  0  0  0  0  0  0  0
   -0.7183    0.1957    0.6664 H   0  0  0  0  0  0  0  0  0  0  0  0
    1.0526   -0.4988    2.3009 H   0  0  0  0  0  0  0  0  0  0  0  0
    1.9761   -1.1623    0.9626 H   0  0  0  0  0  0  0  0  0  0  0  0
   -0.7324   -2.0839    2.0231 H   0  0  0  0  0  0  0  0  0  0  0  0
    1.9934   -3.4761    1.8203 H   0  0  0  0  0  0  0  0  0  0  0  0
    0.5260   -4.1489    2.5625 H   0  0  0  0  0  0  0  0  0  0  0  0
    1.3201   -2.7424    3.2922 H   0  0  0  0  0  0  0  0  0  0  0  0
    0.7329   -3.1389   -0.4351 H   0  0  0  0  0  0  0  0  0  0  0  0
   -0.5481   -4.0222    0.4116 H   0  0  0  0  0  0  0  0  0  0  0  0
   -0.9256   -2.4859   -0.3667 H   0  0  0  0  0  0  0  0  0  0  0  0
    1.3596    2.2680   -0.4885 N   0  0  0  0  0  0  0  0  0  0  0  0
    1.8994    3.6431   -0.4552 C   0  0  2  0  0  0  0  0  0  0  0  0
    3.2486    3.7971    0.2835 C   0  0  0  0  0  0  0  0  0  0  0  0
    4.1544    4.4289   -0.2456 O   0  0  0  0  0  0  0  0  0  0  0  0
    0.8635    4.6368    0.0890 C   0  0  0  0  0  0  0  0  0  0  0  0
    1.6114    1.6948   -1.2926 H   0  0  0  0  0  0  0  0  0  0  0  0
    2.0923    3.9275   -1.4943 H   0  0  0  0  0  0  0  0  0  0  0  0
    0.6923    4.4874    1.1589 H   0  0  0  0  0  0  0  0  0  0  0  0
    1.2161    5.6623   -0.0587 H   0  0  0  0  0  0  0  0  0  0  0  0
   -0.0885    4.5196   -0.4369 H   0  0  0  0  0  0  0  0  0  0  0  0
    3.4444    3.2583    1.5390 N   0  0  0  0  0  0  0  0  0  0  0  0
    4.6810    3.3781    2.2973 C   0  0  0  0  0  0  0  0  0  0  0  0
    2.6443    2.7693    1.9489 H   0  0  0  0  0  0  0  0  0  0  0  0
    4.8926    4.4290    2.5193 H   0  0  0  0  0  0  0  0  0  0  0  0
    4.5971    2.8336    3.2425 H   0  0  0  0  0  0  0  0  0  0  0  0
    5.5195    2.9601    1.7306 H   0  0  0  0  0  0  0  0  0  0  0  0
  1  2  2  0  0  0  0
  1  3  1  0  0  0  0
  1  7  1  0  0  0  0
  3  4  1  0  0  0  0
  3  5  1  0  0  0  0
  3  6  1  0  0  0  0
  7  8  1  0  0  0  0
  7 12  1  0  0  0  0
  8  9  1  0  0  0  0
  8 11  1  0  0  0  0
  8 13  1  0  0  0  0
  9 10  2  0  0  0  0
  9 17  1  0  0  0  0
 11 14  1  0  0  0  0
 11 15  1  0  0  0  0
 11 16  1  0  0  0  0
 17 18  1  0  0  0  0
 17 25  1  0  0  0  0
 18 19  1  0  0  0  0
 18 21  1  0  0  0  0
 18 26  1  0  0  0  0
 19 20  2  0  0  0  0
 19 36  1  0  0  0  0
 21 22  1  0  0  0  0
 21 27  1  0  0  0  0
 21 28  1  0  0  0  0
 22 23  1  0  0  0  0
 22 24  1  0  0  0  0
 22 29  1  0  0  0  0
 23 30  1  0  0  0  0
 23 31  1  0  0  0  0
 23 32  1  0  0  0  0
 24 33  1  0  0  0  0
 24 34  1  0  0  0  0
 24 35  1  0  0  0  0
 36 37  1  0  0  0  0
 36 41  1  0  0  0  0
 37 38  1  0  0  0  0
 37 40  1  0  0  0  0
 37 42  1  0  0  0  0
 38 39  2  0  0  0  0
 38 46  1  0  0  0  0
 40 43  1  0  0  0  0
 40 44  1  0  0  0  0
 40 45  1  0  0  0  0
 46 47  1  0  0  0  0
 46 48  1  0  0  0  0
 47 49  1  0  0  0  0
 47 50  1  0  0  0  0
 47 51  1  0  0  0  0
M  END
$$$$

  -OEChem-05262216553D

 51 50  0     1  0  0  0  0  0999 V2000
    2.8775   -3.1195   -3.1627 C   0  0  0  0  0  0  0  0  0  0  0  0
    2.1371   -3.8081   -2.4809 O   0  0  0  0  0  0  0  0  0  0  0  0
    4.2909   -3.5933   -3.4443 C   0  0  0  0  0  0  0  0  0  0  0  0
    5.0104   -2.8729   -3.0471 H   0  0  0  0  0  0  0  0  0  0  0  0
    4.4665   -4.5623   -2.9688 H   0  0  0  0  0  0  0  0  0  0  0  0
    4.4437   -3.6965   -4.5212 H   0  0  0  0  0  0  0  0  0  0  0  0
    2.4620   -1.9034   -3.6721 N   0  0  0  0  0  0  0  0  0  0  0  0
    1.2543   -1.1749   -3.2378 C   0  0  2  0  0  0  0  0  0  0  0  0
    1.3590   -0.6605   -1.7796 C   0  0  0  0  0  0  0  0  0  0  0  0
    2.4450   -0.2860   -1.3599 O   0  0  0  0  0  0  0  0  0  0  0  0
   -0.0302   -1.9762   -3.5145 C   0  0  0  0  0  0  0  0  0  0  0  0
    3.2112   -1.3417   -4.0669 H   0  0  0  0  0  0  0  0  0  0  0  0
    1.1914   -0.2775   -3.8607 H   0  0  0  0  0  0  0  0  0  0  0  0
   -0.1457   -2.8030   -2.8088 H   0  0  0  0  0  0  0  0  0  0  0  0
   -0.9092   -1.3304   -3.4325 H   0  0  0  0  0  0  0  0  0  0  0  0
   -0.0044   -2.3895   -4.5275 H   0  0  0  0  0  0  0  0  0  0  0  0
    0.2298   -0.3006   -1.0584 N   0  0  0  0  0  0  0  0  0  0  0  0
    0.2413    0.0958    0.3717 C   0  0  2  0  0  0  0  0  0  0  0  0
    0.8046    1.5239    0.5934 C   0  0  0  0  0  0  0  0  0  0  0  0
    1.0299    1.9358    1.7248 O   0  0  0  0  0  0  0  0  0  0  0  0
    0.8703   -0.9510    1.3346 C   0  0  0  0  0  0  0  0  0  0  0  0
    0.1178   -2.2970    1.4938 C   0  0  0  0  0  0  0  0  0  0  0  0
    0.9739   -3.2311    2.3590 C   0  0  0  0  0  0  0  0  0  0  0  0
   -0.2118   -3.0303    0.1900 C   0  0  0  0  0  0  0  0  0  0  0  0
   -0.6405   -0.6812   -1.4189 H   0  0  0  0  0  0  0  0  0  0  0  0
   -0.8066    0.1790    0.6748 H   0  0  0  0  0  0  0  0  0  0  0  0
    0.9413   -0.5089    2.3338 H   0  0  0  0  0  0  0  0  0  0  0  0
    1.8957   -1.1525    1.0092 H   0  0  0  0  0  0  0  0  0  0  0  0
   -0.8242   -2.1023    2.0177 H   0  0  0  0  0  0  0  0  0  0  0  0
    1.9138   -3.4734    1.8525 H   0  0  0  0  0  0  0  0  0  0  0  0
    0.4385   -4.1639    2.5617 H   0  0  0  0  0  0  0  0  0  0  0  0
    1.2077   -2.7577    3.3178 H   0  0  0  0  0  0  0  0  0  0  0  0
    0.6860   -3.1351   -0.4234 H   0  0  0  0  0  0  0  0  0  0  0  0
   -0.5999   -4.0315    0.4020 H   0  0  0  0  0  0  0  0  0  0  0  0
   -0.9784   -2.4950   -0.3752 H   0  0  0  0  0  0  0  0  0  0  0  0
    0.9366    2.3843   -0.4842 N   0  0  0  0  0  0  0  0  0  0  0  0
    1.4381    3.7745   -0.4698 C   0  0  2  0  0  0  0  0  0  0  0  0
    2.9256    3.9252   -0.0766 C   0  0  0  0  0  0  0  0  0  0  0  0
    3.6626    4.6131   -0.7722 O   0  0  0  0  0  0  0  0  0  0  0  0
    0.5517    4.6801    0.3963 C   0  0  0  0  0  0  0  0  0  0  0  0
    0.9239    1.9078   -1.3812 H   0  0  0  0  0  0  0  0  0  0  0  0
    1.3598    4.1464   -1.4965 H   0  0  0  0  0  0  0  0  0  0  0  0
    0.6688    4.4518    1.4594 H   0  0  0  0  0  0  0  0  0  0  0  0
    0.8262    5.7285    0.2428 H   0  0  0  0  0  0  0  0  0  0  0  0
   -0.5005    4.5538    0.1252 H   0  0  0  0  0  0  0  0  0  0  0  0
    3.4339    3.3158    1.0525 N   0  0  0  0  0  0  0  0  0  0  0  0
    4.8292    3.3823    1.4611 C   0  0  0  0  0  0  0  0  0  0  0  0
    2.7757    2.7484    1.5934 H   0  0  0  0  0  0  0  0  0  0  0  0
    4.9787    2.8118    2.3828 H   0  0  0  0  0  0  0  0  0  0  0  0
    5.4754    2.9606    0.6845 H   0  0  0  0  0  0  0  0  0  0  0  0
    5.1253    4.4204    1.6437 H   0  0  0  0  0  0  0  0  0  0  0  0
  1  2  2  0  0  0  0
  1  3  1  0  0  0  0
  1  7  1  0  0  0  0
  3  4  1  0  0  0  0
  3  5  1  0  0  0  0
  3  6  1  0  0  0  0
  7  8  1  0  0  0  0
  7 12  1  0  0  0  0
  8  9  1  0  0  0  0
  8 11  1  0  0  0  0
  8 13  1  0  0  0  0
  9 10  2  0  0  0  0
  9 17  1  0  0  0  0
 11 14  1  0  0  0  0
 11 15  1  0  0  0  0
 11 16  1  0  0  0  0
 17 18  1  0  0  0  0
 17 25  1  0  0  0  0
 18 19  1  0  0  0  0
 18 21  1  0  0  0  0
 18 26  1  0  0  0  0
 19 20  2  0  0  0  0
 19 36  1  0  0  0  0
 21 22  1  0  0  0  0
 21 27  1  0  0  0  0
 21 28  1  0  0  0  0
 22 23  1  0  0  0  0
 22 24  1  0  0  0  0
 22 29  1  0  0  0  0
 23 30  1  0  0  0  0
 23 31  1  0  0  0  0
 23 32  1  0  0  0  0
 24 33  1  0  0  0  0
 24 34  1  0  0  0  0
 24 35  1  0  0  0  0
 36 37  1  0  0  0  0
 36 41  1  0  0  0  0
 37 38  1  0  0  0  0
 37 40  1  0  0  0  0
 37 42  1  0  0  0  0
 38 39  2  0  0  0  0
 38 46  1  0  0  0  0
 40 43  1  0  0  0  0
 40 44  1  0  0  0  0
 40 45  1  0  0  0  0
 46 47  1  0  0  0  0
 46 48  1  0  0  0  0
 47 49  1  0  0  0  0
 47 50  1  0  0  0  0
 47 51  1  0  0  0  0
M  END
$$$$

  -OEChem-05262216553D

 51 50  0     1  0  0  0  0  0999 V2000
    2.9904   -2.9302   -3.1056 C   0  0  0  0  0  0  0  0  0  0  0  0
    2.2279   -3.6680   -2.5038 O   0  0  0  0  0  0  0  0  0  0  0  0
    4.4276   -3.3620   -3.3288 C   0  0  0  0  0  0  0  0  0  0  0  0
    5.1076   -2.6504   -2.8536 H   0  0  0  0  0  0  0  0  0  0  0  0
    4.5969   -4.3516   -2.8950 H   0  0  0  0  0  0  0  0  0  0  0  0
    4.6446   -3.4049   -4.3988 H   0  0  0  0  0  0  0  0  0  0  0  0
    2.5771   -1.6980   -3.5768 N   0  0  0  0  0  0  0  0  0  0  0  0
    1.3356   -1.0136   -3.1684 C   0  0  2  0  0  0  0  0  0  0  0  0
    1.3638   -0.5595   -1.6873 C   0  0  0  0  0  0  0  0  0  0  0  0
    2.4243   -0.1913   -1.2014 O   0  0  0  0  0  0  0  0  0  0  0  0
    0.0820   -1.8280   -3.5346 C   0  0  0  0  0  0  0  0  0  0  0  0
    3.3347   -1.1007   -3.8966 H   0  0  0  0  0  0  0  0  0  0  0  0
    1.2818   -0.0917   -3.7555 H   0  0  0  0  0  0  0  0  0  0  0  0
   -0.0577   -2.6732   -2.8553 H   0  0  0  0  0  0  0  0  0  0  0  0
   -0.8104   -1.1975   -3.4857 H   0  0  0  0  0  0  0  0  0  0  0  0
    0.1698   -2.2165   -4.5540 H   0  0  0  0  0  0  0  0  0  0  0  0
    0.1919   -0.2708   -1.0016 N   0  0  0  0  0  0  0  0  0  0  0  0
    0.1401    0.0798    0.4383 C   0  0  2  0  0  0  0  0  0  0  0  0
    0.6415    1.5266    0.6850 C   0  0  0  0  0  0  0  0  0  0  0  0
    1.1257    1.8618    1.7588 O   0  0  0  0  0  0  0  0  0  0  0  0
    0.7750   -0.9682    1.3962 C   0  0  0  0  0  0  0  0  0  0  0  0
    0.0702   -2.3457    1.4908 C   0  0  0  0  0  0  0  0  0  0  0  0
    0.9309   -3.2696    2.3625 C   0  0  0  0  0  0  0  0  0  0  0  0
   -0.1776   -3.0528    0.1541 C   0  0  0  0  0  0  0  0  0  0  0  0
   -0.6426   -0.6902   -1.4021 H   0  0  0  0  0  0  0  0  0  0  0  0
   -0.9181    0.1174    0.7113 H   0  0  0  0  0  0  0  0  0  0  0  0
    0.7878   -0.5504    2.4084 H   0  0  0  0  0  0  0  0  0  0  0  0
    1.8192   -1.1211    1.1068 H   0  0  0  0  0  0  0  0  0  0  0  0
   -0.8979   -2.2034    1.9823 H   0  0  0  0  0  0  0  0  0  0  0  0
    1.8997   -3.4573    1.8878 H   0  0  0  0  0  0  0  0  0  0  0  0
    0.4288   -4.2298    2.5173 H   0  0  0  0  0  0  0  0  0  0  0  0
    1.1067   -2.8160    3.3431 H   0  0  0  0  0  0  0  0  0  0  0  0
    0.7471   -3.1024   -0.4259 H   0  0  0  0  0  0  0  0  0  0  0  0
   -0.5316   -4.0749    0.3212 H   0  0  0  0  0  0  0  0  0  0  0  0
   -0.9429   -2.5323   -0.4262 H   0  0  0  0  0  0  0  0  0  0  0  0
    0.4653    2.4733   -0.3121 N   0  0  0  0  0  0  0  0  0  0  0  0
    0.9583    3.8662   -0.3177 C   0  0  2  0  0  0  0  0  0  0  0  0
    2.4993    3.9926   -0.3356 C   0  0  0  0  0  0  0  0  0  0  0  0
    3.0357    4.6515   -1.2179 O   0  0  0  0  0  0  0  0  0  0  0  0
    0.3504    4.6898    0.8263 C   0  0  0  0  0  0  0  0  0  0  0  0
    0.2077    2.0748   -1.2096 H   0  0  0  0  0  0  0  0  0  0  0  0
    0.6066    4.3203   -1.2498 H   0  0  0  0  0  0  0  0  0  0  0  0
    0.7451    4.3769    1.7971 H   0  0  0  0  0  0  0  0  0  0  0  0
    0.5878    5.7495    0.6899 H   0  0  0  0  0  0  0  0  0  0  0  0
   -0.7377    4.5773    0.8390 H   0  0  0  0  0  0  0  0  0  0  0  0
    3.2777    3.3598    0.6123 N   0  0  0  0  0  0  0  0  0  0  0  0
    4.7318    3.3101    0.5701 C   0  0  0  0  0  0  0  0  0  0  0  0
    2.7770    2.7465    1.2615 H   0  0  0  0  0  0  0  0  0  0  0  0
    5.1158    2.8067    1.4626 H   0  0  0  0  0  0  0  0  0  0  0  0
    5.0695    2.7581   -0.3131 H   0  0  0  0  0  0  0  0  0  0  0  0
    5.1508    4.3213    0.5381 H   0  0  0  0  0  0  0  0  0  0  0  0
  1  2  2  0  0  0  0
  1  3  1  0  0  0  0
  1  7  1  0  0  0  0
  3  4  1  0  0  0  0
  3  5  1  0  0  0  0
  3  6  1  0  0  0  0
  7  8  1  0  0  0  0
  7 12  1  0  0  0  0
  8  9  1  0  0  0  0
  8 11  1  0  0  0  0
  8 13  1  0  0  0  0
  9 10  2  0  0  0  0
  9 17  1  0  0  0  0
 11 14  1  0  0  0  0
 11 15  1  0  0  0  0
 11 16  1  0  0  0  0
 17 18  1  0  0  0  0
 17 25  1  0  0  0  0
 18 19  1  0  0  0  0
 18 21  1  0  0  0  0
 18 26  1  0  0  0  0
 19 20  2  0  0  0  0
 19 36  1  0  0  0  0
 21 22  1  0  0  0  0
 21 27  1  0  0  0  0
 21 28  1  0  0  0  0
 22 23  1  0  0  0  0
 22 24  1  0  0  0  0
 22 29  1  0  0  0  0
 23 30  1  0  0  0  0
 23 31  1  0  0  0  0
 23 32  1  0  0  0  0
 24 33  1  0  0  0  0
 24 34  1  0  0  0  0
 24 35  1  0  0  0  0
 36 37  1  0  0  0  0
 36 41  1  0  0  0  0
 37 38  1  0  0  0  0
 37 40  1  0  0  0  0
 37 42  1  0  0  0  0
 38 39  2  0  0  0  0
 38 46  1  0  0  0  0
 40 43  1  0  0  0  0
 40 44  1  0  0  0  0
 40 45  1  0  0  0  0
 46 47  1  0  0  0  0
 46 48  1  0  0  0  0
 47 49  1  0  0  0  0
 47 50  1  0  0  0  0
 47 51  1  0  0  0  0
M  END
$$$$

  -OEChem-05262216553D

 51 50  0     1  0  0  0  0  0999 V2000
    2.9654   -2.8226   -3.1264 C   0  0  0  0  0  0  0  0  0  0  0  0
    2.1046   -3.5591   -2.6747 O   0  0  0  0  0  0  0  0  0  0  0  0
    4.3810   -3.3434   -3.2894 C   0  0  0  0  0  0  0  0  0  0  0  0
    5.0648   -2.7645   -2.6634 H   0  0  0  0  0  0  0  0  0  0  0  0
    4.4339   -4.3937   -2.9890 H   0  0  0  0  0  0  0  0  0  0  0  0
    4.6931   -3.2597   -4.3331 H   0  0  0  0  0  0  0  0  0  0  0  0
    2.6843   -1.5165   -3.4813 N   0  0  0  0  0  0  0  0  0  0  0  0
    1.4644   -0.7777   -3.1031 C   0  0  2  0  0  0  0  0  0  0  0  0
    1.4228   -0.4345   -1.5930 C   0  0  0  0  0  0  0  0  0  0  0  0
    2.4631   -0.1137   -1.0352 O   0  0  0  0  0  0  0  0  0  0  0  0
    0.1844   -1.4658   -3.6123 C   0  0  0  0  0  0  0  0  0  0  0  0
    3.5080   -0.9516   -3.6700 H   0  0  0  0  0  0  0  0  0  0  0  0
    1.5142    0.1862   -3.6189 H   0  0  0  0  0  0  0  0  0  0  0  0
   -0.0661   -2.3426   -3.0082 H   0  0  0  0  0  0  0  0  0  0  0  0
   -0.6607   -0.7722   -3.5759 H   0  0  0  0  0  0  0  0  0  0  0  0
    0.3168   -1.7880   -4.6499 H   0  0  0  0  0  0  0  0  0  0  0  0
    0.2171   -0.2201   -0.9391 N   0  0  0  0  0  0  0  0  0  0  0  0
    0.0873    0.0572    0.5104 C   0  0  2  0  0  0  0  0  0  0  0  0
    0.5271    1.5096    0.8221 C   0  0  0  0  0  0  0  0  0  0  0  0
    1.2208    1.7812    1.7942 O   0  0  0  0  0  0  0  0  0  0  0  0
    0.7245   -0.9985    1.4568 C   0  0  0  0  0  0  0  0  0  0  0  0
    0.0826   -2.4086    1.4630 C   0  0  0  0  0  0  0  0  0  0  0  0
    0.9444   -3.3258    2.3405 C   0  0  0  0  0  0  0  0  0  0  0  0
   -0.0576   -3.0677    0.0869 C   0  0  0  0  0  0  0  0  0  0  0  0
   -0.5901   -0.6204   -1.4081 H   0  0  0  0  0  0  0  0  0  0  0  0
   -0.9818    0.0415    0.7400 H   0  0  0  0  0  0  0  0  0  0  0  0
    0.6678   -0.6182    2.4824 H   0  0  0  0  0  0  0  0  0  0  0  0
    1.7880   -1.0913    1.2161 H   0  0  0  0  0  0  0  0  0  0  0  0
   -0.9155   -2.3333    1.9072 H   0  0  0  0  0  0  0  0  0  0  0  0
    1.9399   -3.4560    1.9034 H   0  0  0  0  0  0  0  0  0  0  0  0
    0.4782   -4.3110    2.4403 H   0  0  0  0  0  0  0  0  0  0  0  0
    1.0583   -2.8997    3.3423 H   0  0  0  0  0  0  0  0  0  0  0  0
    0.8994   -3.0481   -0.4399 H   0  0  0  0  0  0  0  0  0  0  0  0
   -0.3699   -4.1115    0.1913 H   0  0  0  0  0  0  0  0  0  0  0  0
   -0.8135   -2.5587   -0.5154 H   0  0  0  0  0  0  0  0  0  0  0  0
    0.0788    2.5268   -0.0065 N   0  0  0  0  0  0  0  0  0  0  0  0
    0.5481    3.9279   -0.0078 C   0  0  2  0  0  0  0  0  0  0  0  0
    2.0337    4.0760   -0.4095 C   0  0  0  0  0  0  0  0  0  0  0  0
    2.3201    4.7217   -1.4101 O   0  0  0  0  0  0  0  0  0  0  0  0
    0.2513    4.6379    1.3214 C   0  0  0  0  0  0  0  0  0  0  0  0
   -0.3686    2.1975   -0.8560 H   0  0  0  0  0  0  0  0  0  0  0  0
   -0.0289    4.4539   -0.7751 H   0  0  0  0  0  0  0  0  0  0  0  0
    0.8890    4.2645    2.1274 H   0  0  0  0  0  0  0  0  0  0  0  0
    0.4318    5.7123    1.2191 H   0  0  0  0  0  0  0  0  0  0  0  0
   -0.7941    4.4882    1.6069 H   0  0  0  0  0  0  0  0  0  0  0  0
    3.0290    3.4277    0.2941 N   0  0  0  0  0  0  0  0  0  0  0  0
    4.4044    3.3191   -0.1706 C   0  0  0  0  0  0  0  0  0  0  0  0
    2.7035    2.7783    1.0162 H   0  0  0  0  0  0  0  0  0  0  0  0
    4.8280    4.3116   -0.3573 H   0  0  0  0  0  0  0  0  0  0  0  0
    5.0173    2.8200    0.5863 H   0  0  0  0  0  0  0  0  0  0  0  0
    4.4495    2.7340   -1.0952 H   0  0  0  0  0  0  0  0  0  0  0  0
  1  2  2  0  0  0  0
  1  3  1  0  0  0  0
  1  7  1  0  0  0  0
  3  4  1  0  0  0  0
  3  5  1  0  0  0  0
  3  6  1  0  0  0  0
  7  8  1  0  0  0  0
  7 12  1  0  0  0  0
  8  9  1  0  0  0  0
  8 11  1  0  0  0  0
  8 13  1  0  0  0  0
  9 10  2  0  0  0  0
  9 17  1  0  0  0  0
 11 14  1  0  0  0  0
 11 15  1  0  0  0  0
 11 16  1  0  0  0  0
 17 18  1  0  0  0  0
 17 25  1  0  0  0  0
 18 19  1  0  0  0  0
 18 21  1  0  0  0  0
 18 26  1  0  0  0  0
 19 20  2  0  0  0  0
 19 36  1  0  0  0  0
 21 22  1  0  0  0  0
 21 27  1  0  0  0  0
 21 28  1  0  0  0  0
 22 23  1  0  0  0  0
 22 24  1  0  0  0  0
 22 29  1  0  0  0  0
 23 30  1  0  0  0  0
 23 31  1  0  0  0  0
 23 32  1  0  0  0  0
 24 33  1  0  0  0  0
 24 34  1  0  0  0  0
 24 35  1  0  0  0  0
 36 37  1  0  0  0  0
 36 41  1  0  0  0  0
 37 38  1  0  0  0  0
 37 40  1  0  0  0  0
 37 42  1  0  0  0  0
 38 39  2  0  0  0  0
 38 46  1  0  0  0  0
 40 43  1  0  0  0  0
 40 44  1  0  0  0  0
 40 45  1  0  0  0  0
 46 47  1  0  0  0  0
 46 48  1  0  0  0  0
 47 49  1  0  0  0  0
 47 50  1  0  0  0  0
 47 51  1  0  0  0  0
M  END
$$$$

  -OEChem-05262216553D

 51 50  0     1  0  0  0  0  0999 V2000
    1.3149   -2.4821   -3.3226 C   0  0  0  0  0  0  0  0  0  0  0  0
    0.3011   -1.8396   -3.0944 O   0  0  0  0  0  0  0  0  0  0  0  0
    1.2021   -3.8774   -3.9069 C   0  0  0  0  0  0  0  0  0  0  0  0
    1.6111   -4.6105   -3.2071 H   0  0  0  0  0  0  0  0  0  0  0  0
    0.1538   -4.1226   -4.1004 H   0  0  0  0  0  0  0  0  0  0  0  0
    1.7545   -3.9343   -4.8481 H   0  0  0  0  0  0  0  0  0  0  0  0
    2.5627   -1.9803   -3.0015 N   0  0  0  0  0  0  0  0  0  0  0  0
    2.8790   -0.6263   -2.4971 C   0  0  2  0  0  0  0  0  0  0  0  0
    2.3584   -0.3056   -1.0775 C   0  0  0  0  0  0  0  0  0  0  0  0
    3.1253    0.2001   -0.2725 O   0  0  0  0  0  0  0  0  0  0  0  0
    2.4230    0.4512   -3.4918 C   0  0  0  0  0  0  0  0  0  0  0  0
    3.3481   -2.5940   -3.2016 H   0  0  0  0  0  0  0  0  0  0  0  0
    3.9702   -0.5593   -2.4344 H   0  0  0  0  0  0  0  0  0  0  0  0
    1.3321    0.4984   -3.5566 H   0  0  0  0  0  0  0  0  0  0  0  0
    2.7862    1.4337   -3.1729 H   0  0  0  0  0  0  0  0  0  0  0  0
    2.8226    0.2424   -4.4887 H   0  0  0  0  0  0  0  0  0  0  0  0
    1.0215   -0.4697   -0.7598 N   0  0  0  0  0  0  0  0  0  0  0  0
    0.3994   -0.2627    0.5623 C   0  0  2  0  0  0  0  0  0  0  0  0
    0.2869    1.2543    0.8300 C   0  0  0  0  0  0  0  0  0  0  0  0
    0.8504    1.7883    1.7770 O   0  0  0  0  0  0  0  0  0  0  0  0
    1.0407   -1.0499    1.7369 C   0  0  0  0  0  0  0  0  0  0  0  0
    0.9131   -2.5937    1.6904 C   0  0  0  0  0  0  0  0  0  0  0  0
    1.7314   -3.1809    2.8478 C   0  0  0  0  0  0  0  0  0  0  0  0
    1.3928   -3.2514    0.3897 C   0  0  0  0  0  0  0  0  0  0  0  0
    0.4685   -0.9251   -1.4917 H   0  0  0  0  0  0  0  0  0  0  0  0
   -0.6304   -0.6246    0.4954 H   0  0  0  0  0  0  0  0  0  0  0  0
    0.5714   -0.7105    2.6663 H   0  0  0  0  0  0  0  0  0  0  0  0
    2.0992   -0.7822    1.8075 H   0  0  0  0  0  0  0  0  0  0  0  0
   -0.1403   -2.8566    1.8352 H   0  0  0  0  0  0  0  0  0  0  0  0
    2.7975   -2.9693    2.7144 H   0  0  0  0  0  0  0  0  0  0  0  0
    1.5959   -4.2656    2.9018 H   0  0  0  0  0  0  0  0  0  0  0  0
    1.4087   -2.7496    3.8007 H   0  0  0  0  0  0  0  0  0  0  0  0
    2.3996   -2.9077    0.1329 H   0  0  0  0  0  0  0  0  0  0  0  0
    1.4178   -4.3399    0.5000 H   0  0  0  0  0  0  0  0  0  0  0  0
    0.7110   -3.0212   -0.4325 H   0  0  0  0  0  0  0  0  0  0  0  0
   -0.4586    2.0187   -0.0540 N   0  0  0  0  0  0  0  0  0  0  0  0
   -0.3824    3.4870   -0.1994 C   0  0  2  0  0  0  0  0  0  0  0  0
    1.0011    3.9754   -0.6889 C   0  0  0  0  0  0  0  0  0  0  0  0
    1.0763    4.6167   -1.7296 O   0  0  0  0  0  0  0  0  0  0  0  0
   -0.8183    4.2250    1.0747 C   0  0  0  0  0  0  0  0  0  0  0  0
   -0.7806    1.5048   -0.8694 H   0  0  0  0  0  0  0  0  0  0  0  0
   -1.0992    3.7645   -0.9790 H   0  0  0  0  0  0  0  0  0  0  0  0
   -0.0719    4.1304    1.8683 H   0  0  0  0  0  0  0  0  0  0  0  0
   -0.9499    5.2902    0.8616 H   0  0  0  0  0  0  0  0  0  0  0  0
   -1.7684    3.8238    1.4394 H   0  0  0  0  0  0  0  0  0  0  0  0
    2.1594    3.6182   -0.0272 N   0  0  0  0  0  0  0  0  0  0  0  0
    3.4970    3.8408   -0.5556 C   0  0  0  0  0  0  0  0  0  0  0  0
    2.0439    2.9753    0.7622 H   0  0  0  0  0  0  0  0  0  0  0  0
    3.6657    4.9071   -0.7374 H   0  0  0  0  0  0  0  0  0  0  0  0
    4.2460    3.4894    0.1605 H   0  0  0  0  0  0  0  0  0  0  0  0
    3.6331    3.2946   -1.4944 H   0  0  0  0  0  0  0  0  0  0  0  0
  1  2  2  0  0  0  0
  1  3  1  0  0  0  0
  1  7  1  0  0  0  0
  3  4  1  0  0  0  0
  3  5  1  0  0  0  0
  3  6  1  0  0  0  0
  7  8  1  0  0  0  0
  7 12  1  0  0  0  0
  8  9  1  0  0  0  0
  8 11  1  0  0  0  0
  8 13  1  0  0  0  0
  9 10  2  0  0  0  0
  9 17  1  0  0  0  0
 11 14  1  0  0  0  0
 11 15  1  0  0  0  0
 11 16  1  0  0  0  0
 17 18  1  0  0  0  0
 17 25  1  0  0  0  0
 18 19  1  0  0  0  0
 18 21  1  0  0  0  0
 18 26  1  0  0  0  0
 19 20  2  0  0  0  0
 19 36  1  0  0  0  0
 21 22  1  0  0  0  0
 21 27  1  0  0  0  0
 21 28  1  0  0  0  0
 22 23  1  0  0  0  0
 22 24  1  0  0  0  0
 22 29  1  0  0  0  0
 23 30  1  0  0  0  0
 23 31  1  0  0  0  0
 23 32  1  0  0  0  0
 24 33  1  0  0  0  0
 24 34  1  0  0  0  0
 24 35  1  0  0  0  0
 36 37  1  0  0  0  0
 36 41  1  0  0  0  0
 37 38  1  0  0  0  0
 37 40  1  0  0  0  0
 37 42  1  0  0  0  0
 38 39  2  0  0  0  0
 38 46  1  0  0  0  0
 40 43  1  0  0  0  0
 40 44  1  0  0  0  0
 40 45  1  0  0  0  0
 46 47  1  0  0  0  0
 46 48  1  0  0  0  0
 47 49  1  0  0  0  0
 47 50  1  0  0  0  0
 47 51  1  0  0  0  0
M  END
$$$$

  -OEChem-05262216553D

 51 50  0     1  0  0  0  0  0999 V2000
    1.2244   -2.4969   -3.3187 C   0  0  0  0  0  0  0  0  0  0  0  0
    0.2366   -1.8236   -3.0672 O   0  0  0  0  0  0  0  0  0  0  0  0
    1.0547   -3.8978   -3.8747 C   0  0  0  0  0  0  0  0  0  0  0  0
    1.5051   -4.6267   -3.1961 H   0  0  0  0  0  0  0  0  0  0  0  0
   -0.0073   -4.1339   -3.9887 H   0  0  0  0  0  0  0  0  0  0  0  0
    1.5373   -3.9722   -4.8525 H   0  0  0  0  0  0  0  0  0  0  0  0
    2.4954   -2.0249   -3.0489 N   0  0  0  0  0  0  0  0  0  0  0  0
    2.8642   -0.6790   -2.5604 C   0  0  2  0  0  0  0  0  0  0  0  0
    2.4002   -0.3435   -1.1240 C   0  0  0  0  0  0  0  0  0  0  0  0
    3.2186    0.1021   -0.3353 O   0  0  0  0  0  0  0  0  0  0  0  0
    2.4023    0.4068   -3.5426 C   0  0  0  0  0  0  0  0  0  0  0  0
    3.2566   -2.6640   -3.2614 H   0  0  0  0  0  0  0  0  0  0  0  0
    3.9587   -0.6402   -2.5352 H   0  0  0  0  0  0  0  0  0  0  0  0
    1.3116    0.4859   -3.5648 H   0  0  0  0  0  0  0  0  0  0  0  0
    2.8073    1.3788   -3.2428 H   0  0  0  0  0  0  0  0  0  0  0  0
    2.7557    0.1820   -4.5533 H   0  0  0  0  0  0  0  0  0  0  0  0
    1.0670   -0.4513   -0.7688 N   0  0  0  0  0  0  0  0  0  0  0  0
    0.4816   -0.2335    0.5679 C   0  0  2  0  0  0  0  0  0  0  0  0
    0.4292    1.2797    0.8754 C   0  0  0  0  0  0  0  0  0  0  0  0
    1.1784    1.7967    1.6942 O   0  0  0  0  0  0  0  0  0  0  0  0
    1.1167   -1.0553    1.7219 C   0  0  0  0  0  0  0  0  0  0  0  0
    0.9314   -2.5931    1.6687 C   0  0  0  0  0  0  0  0  0  0  0  0
    1.7512   -3.2193    2.8043 C   0  0  0  0  0  0  0  0  0  0  0  0
    1.3597   -3.2577    0.3538 C   0  0  0  0  0  0  0  0  0  0  0  0
    0.4757   -0.8682   -1.4934 H   0  0  0  0  0  0  0  0  0  0  0  0
   -0.5609   -0.5602    0.5171 H   0  0  0  0  0  0  0  0  0  0  0  0
    0.6822   -0.7035    2.6638 H   0  0  0  0  0  0  0  0  0  0  0  0
    2.1861   -0.8284    1.7692 H   0  0  0  0  0  0  0  0  0  0  0  0
   -0.1275   -2.8183    1.8335 H   0  0  0  0  0  0  0  0  0  0  0  0
    2.8211   -3.0441    2.6514 H   0  0  0  0  0  0  0  0  0  0  0  0
    1.5788   -4.2990    2.8521 H   0  0  0  0  0  0  0  0  0  0  0  0
    1.4631   -2.7861    3.7674 H   0  0  0  0  0  0  0  0  0  0  0  0
    2.3726   -2.9490    0.0777 H   0  0  0  0  0  0  0  0  0  0  0  0
    1.3478   -4.3473    0.4553 H   0  0  0  0  0  0  0  0  0  0  0  0
    0.6696   -2.9961   -0.4516 H   0  0  0  0  0  0  0  0  0  0  0  0
   -0.5337    2.0529    0.2446 N   0  0  0  0  0  0  0  0  0  0  0  0
   -0.5839    3.5302    0.2252 C   0  0  2  0  0  0  0  0  0  0  0  0
    0.6311    4.1781   -0.4803 C   0  0  0  0  0  0  0  0  0  0  0  0
    0.4443    4.9072   -1.4463 O   0  0  0  0  0  0  0  0  0  0  0  0
   -0.7962    4.1211    1.6268 C   0  0  0  0  0  0  0  0  0  0  0  0
   -1.0435    1.5733   -0.4918 H   0  0  0  0  0  0  0  0  0  0  0  0
   -1.4631    3.8089   -0.3646 H   0  0  0  0  0  0  0  0  0  0  0  0
    0.0939    4.0026    2.2510 H   0  0  0  0  0  0  0  0  0  0  0  0
   -1.0156    5.1907    1.5516 H   0  0  0  0  0  0  0  0  0  0  0  0
   -1.6379    3.6288    2.1226 H   0  0  0  0  0  0  0  0  0  0  0  0
    1.9241    3.8868   -0.0921 N   0  0  0  0  0  0  0  0  0  0  0  0
    3.1085    4.2988   -0.8302 C   0  0  0  0  0  0  0  0  0  0  0  0
    2.0220    3.1841    0.6479 H   0  0  0  0  0  0  0  0  0  0  0  0
    3.1301    5.3873   -0.9465 H   0  0  0  0  0  0  0  0  0  0  0  0
    4.0108    3.9912   -0.2928 H   0  0  0  0  0  0  0  0  0  0  0  0
    3.1198    3.8357   -1.8220 H   0  0  0  0  0  0  0  0  0  0  0  0
  1  2  2  0  0  0  0
  1  3  1  0  0  0  0
  1  7  1  0  0  0  0
  3  4  1  0  0  0  0
  3  5  1  0  0  0  0
  3  6  1  0  0  0  0
  7  8  1  0  0  0  0
  7 12  1  0  0  0  0
  8  9  1  0  0  0  0
  8 11  1  0  0  0  0
  8 13  1  0  0  0  0
  9 10  2  0  0  0  0
  9 17  1  0  0  0  0
 11 14  1  0  0  0  0
 11 15  1  0  0  0  0
 11 16  1  0  0  0  0
 17 18  1  0  0  0  0
 17 25  1  0  0  0  0
 18 19  1  0  0  0  0
 18 21  1  0  0  0  0
 18 26  1  0  0  0  0
 19 20  2  0  0  0  0
 19 36  1  0  0  0  0
 21 22  1  0  0  0  0
 21 27  1  0  0  0  0
 21 28  1  0  0  0  0
 22 23  1  0  0  0  0
 22 24  1  0  0  0  0
 22 29  1  0  0  0  0
 23 30  1  0  0  0  0
 23 31  1  0  0  0  0
 23 32  1  0  0  0  0
 24 33  1  0  0  0  0
 24 34  1  0  0  0  0
 24 35  1  0  0  0  0
 36 37  1  0  0  0  0
 36 41  1  0  0  0  0
 37 38  1  0  0  0  0
 37 40  1  0  0  0  0
 37 42  1  0  0  0  0
 38 39  2  0  0  0  0
 38 46  1  0  0  0  0
 40 43  1  0  0  0  0
 40 44  1  0  0  0  0
 40 45  1  0  0  0  0
 46 47  1  0  0  0  0
 46 48  1  0  0  0  0
 47 49  1  0  0  0  0
 47 50  1  0  0  0  0
 47 51  1  0  0  0  0
M  END
$$$$

  -OEChem-05262216553D

 51 50  0     1  0  0  0  0  0999 V2000
    1.1278   -2.6035   -3.3098 C   0  0  0  0  0  0  0  0  0  0  0  0
    0.1699   -1.8891   -3.0551 O   0  0  0  0  0  0  0  0  0  0  0  0
    0.8974   -4.0217   -3.7969 C   0  0  0  0  0  0  0  0  0  0  0  0
    1.3384   -4.7342   -3.0953 H   0  0  0  0  0  0  0  0  0  0  0  0
   -0.1744   -4.2251   -3.8772 H   0  0  0  0  0  0  0  0  0  0  0  0
    1.3547   -4.1584   -4.7799 H   0  0  0  0  0  0  0  0  0  0  0  0
    2.4211   -2.1603   -3.1039 N   0  0  0  0  0  0  0  0  0  0  0  0
    2.8463   -0.8098   -2.6770 C   0  0  2  0  0  0  0  0  0  0  0  0
    2.4528   -0.4202   -1.2335 C   0  0  0  0  0  0  0  0  0  0  0  0
    3.3268   -0.0271   -0.4780 O   0  0  0  0  0  0  0  0  0  0  0  0
    2.3740    0.2564   -3.6755 C   0  0  0  0  0  0  0  0  0  0  0  0
    3.1552   -2.8341   -3.3045 H   0  0  0  0  0  0  0  0  0  0  0  0
    3.9412   -0.8013   -2.6994 H   0  0  0  0  0  0  0  0  0  0  0  0
    1.2854    0.3622   -3.6612 H   0  0  0  0  0  0  0  0  0  0  0  0
    2.8134    1.2267   -3.4227 H   0  0  0  0  0  0  0  0  0  0  0  0
    2.6848   -0.0093   -4.6902 H   0  0  0  0  0  0  0  0  0  0  0  0
    1.1305   -0.4708   -0.8283 N   0  0  0  0  0  0  0  0  0  0  0  0
    0.5922   -0.2033    0.5195 C   0  0  2  0  0  0  0  0  0  0  0  0
    0.5861    1.3130    0.8240 C   0  0  0  0  0  0  0  0  0  0  0  0
    1.4844    1.8449    1.4630 O   0  0  0  0  0  0  0  0  0  0  0  0
    1.2400   -1.0206    1.6694 C   0  0  0  0  0  0  0  0  0  0  0  0
    1.0077   -2.5528    1.6576 C   0  0  0  0  0  0  0  0  0  0  0  0
    1.8479   -3.1753    2.7799 C   0  0  0  0  0  0  0  0  0  0  0  0
    1.3643   -3.2598    0.3441 C   0  0  0  0  0  0  0  0  0  0  0  0
    0.4964   -0.8605   -1.5316 H   0  0  0  0  0  0  0  0  0  0  0  0
   -0.4578   -0.5077    0.5043 H   0  0  0  0  0  0  0  0  0  0  0  0
    0.8475   -0.6359    2.6166 H   0  0  0  0  0  0  0  0  0  0  0  0
    2.3165   -0.8257    1.6788 H   0  0  0  0  0  0  0  0  0  0  0  0
   -0.0505   -2.7423    1.8659 H   0  0  0  0  0  0  0  0  0  0  0  0
    2.9162   -3.0344    2.5852 H   0  0  0  0  0  0  0  0  0  0  0  0
    1.6475   -4.2481    2.8603 H   0  0  0  0  0  0  0  0  0  0  0  0
    1.6062   -2.7105    3.7410 H   0  0  0  0  0  0  0  0  0  0  0  0
    2.3749   -2.9905    0.0225 H   0  0  0  0  0  0  0  0  0  0  0  0
    1.3209   -4.3458    0.4708 H   0  0  0  0  0  0  0  0  0  0  0  0
    0.6517   -2.9927   -0.4396 H   0  0  0  0  0  0  0  0  0  0  0  0
   -0.5346    2.0575    0.4874 N   0  0  0  0  0  0  0  0  0  0  0  0
   -0.7261    3.5107    0.6845 C   0  0  2  0  0  0  0  0  0  0  0  0
    0.2439    4.4049   -0.1245 C   0  0  0  0  0  0  0  0  0  0  0  0
   -0.2106    5.3038   -0.8207 O   0  0  0  0  0  0  0  0  0  0  0  0
   -0.7039    3.8840    2.1737 C   0  0  0  0  0  0  0  0  0  0  0  0
   -1.2112    1.5805   -0.1010 H   0  0  0  0  0  0  0  0  0  0  0  0
   -1.7299    3.7480    0.3173 H   0  0  0  0  0  0  0  0  0  0  0  0
    0.3020    3.7916    2.5932 H   0  0  0  0  0  0  0  0  0  0  0  0
   -1.0312    4.9203    2.3032 H   0  0  0  0  0  0  0  0  0  0  0  0
   -1.3785    3.2343    2.7392 H   0  0  0  0  0  0  0  0  0  0  0  0
    1.6090    4.2008   -0.0945 N   0  0  0  0  0  0  0  0  0  0  0  0
    2.5746    4.9848   -0.8496 C   0  0  0  0  0  0  0  0  0  0  0  0
    1.9388    3.4254    0.4892 H   0  0  0  0  0  0  0  0  0  0  0  0
    2.5194    6.0398   -0.5619 H   0  0  0  0  0  0  0  0  0  0  0  0
    3.5881    4.6236   -0.6503 H   0  0  0  0  0  0  0  0  0  0  0  0
    2.3815    4.8993   -1.9238 H   0  0  0  0  0  0  0  0  0  0  0  0
  1  2  2  0  0  0  0
  1  3  1  0  0  0  0
  1  7  1  0  0  0  0
  3  4  1  0  0  0  0
  3  5  1  0  0  0  0
  3  6  1  0  0  0  0
  7  8  1  0  0  0  0
  7 12  1  0  0  0  0
  8  9  1  0  0  0  0
  8 11  1  0  0  0  0
  8 13  1  0  0  0  0
  9 10  2  0  0  0  0
  9 17  1  0  0  0  0
 11 14  1  0  0  0  0
 11 15  1  0  0  0  0
 11 16  1  0  0  0  0
 17 18  1  0  0  0  0
 17 25  1  0  0  0  0
 18 19  1  0  0  0  0
 18 21  1  0  0  0  0
 18 26  1  0  0  0  0
 19 20  2  0  0  0  0
 19 36  1  0  0  0  0
 21 22  1  0  0  0  0
 21 27  1  0  0  0  0
 21 28  1  0  0  0  0
 22 23  1  0  0  0  0
 22 24  1  0  0  0  0
 22 29  1  0  0  0  0
 23 30  1  0  0  0  0
 23 31  1  0  0  0  0
 23 32  1  0  0  0  0
 24 33  1  0  0  0  0
 24 34  1  0  0  0  0
 24 35  1  0  0  0  0
 36 37  1  0  0  0  0
 36 41  1  0  0  0  0
 37 38  1  0  0  0  0
 37 40  1  0  0  0  0
 37 42  1  0  0  0  0
 38 39  2  0  0  0  0
 38 46  1  0  0  0  0
 40 43  1  0  0  0  0
 40 44  1  0  0  0  0
 40 45  1  0  0  0  0
 46 47  1  0  0  0  0
 46 48  1  0  0  0  0
 47 49  1  0  0  0  0
 47 50  1  0  0  0  0
 47 51  1  0  0  0  0
M  END
$$$$

  -OEChem-05262216553D

 51 50  0     1  0  0  0  0  0999 V2000
    1.0998   -2.5345   -3.3512 C   0  0  0  0  0  0  0  0  0  0  0  0
    0.1615   -1.8036   -3.0710 O   0  0  0  0  0  0  0  0  0  0  0  0
    0.8291   -3.9404   -3.8528 C   0  0  0  0  0  0  0  0  0  0  0  0
    1.2398   -4.6728   -3.1532 H   0  0  0  0  0  0  0  0  0  0  0  0
   -0.2478   -4.1083   -3.9452 H   0  0  0  0  0  0  0  0  0  0  0  0
    1.2913   -4.0837   -4.8326 H   0  0  0  0  0  0  0  0  0  0  0  0
    2.4064   -2.1232   -3.1627 N   0  0  0  0  0  0  0  0  0  0  0  0
    2.8675   -0.8002   -2.6899 C   0  0  2  0  0  0  0  0  0  0  0  0
    2.5059   -0.4704   -1.2232 C   0  0  0  0  0  0  0  0  0  0  0  0
    3.4106   -0.1944   -0.4520 O   0  0  0  0  0  0  0  0  0  0  0  0
    2.4014    0.3181   -3.6329 C   0  0  0  0  0  0  0  0  0  0  0  0
    3.1217   -2.8140   -3.3734 H   0  0  0  0  0  0  0  0  0  0  0  0
    3.9620   -0.8116   -2.7321 H   0  0  0  0  0  0  0  0  0  0  0  0
    1.3160    0.4474   -3.5943 H   0  0  0  0  0  0  0  0  0  0  0  0
    2.8668    1.2668   -3.3465 H   0  0  0  0  0  0  0  0  0  0  0  0
    2.6885    0.0897   -4.6636 H   0  0  0  0  0  0  0  0  0  0  0  0
    1.1853   -0.4965   -0.8084 N   0  0  0  0  0  0  0  0  0  0  0  0
    0.6486   -0.2143    0.5370 C   0  0  2  0  0  0  0  0  0  0  0  0
    0.6522    1.2996    0.8561 C   0  0  0  0  0  0  0  0  0  0  0  0
    1.6653    1.8788    1.2222 O   0  0  0  0  0  0  0  0  0  0  0  0
    1.2769   -1.0285    1.6979 C   0  0  0  0  0  0  0  0  0  0  0  0
    1.0191   -2.5571    1.6940 C   0  0  0  0  0  0  0  0  0  0  0  0
    1.8402   -3.1882    2.8258 C   0  0  0  0  0  0  0  0  0  0  0  0
    1.3757   -3.2784    0.3872 C   0  0  0  0  0  0  0  0  0  0  0  0
    0.5298   -0.8033   -1.5327 H   0  0  0  0  0  0  0  0  0  0  0  0
   -0.4025   -0.5133    0.5132 H   0  0  0  0  0  0  0  0  0  0  0  0
    0.8842   -0.6302    2.6394 H   0  0  0  0  0  0  0  0  0  0  0  0
    2.3559   -0.8487    1.7139 H   0  0  0  0  0  0  0  0  0  0  0  0
   -0.0439   -2.7280    1.8938 H   0  0  0  0  0  0  0  0  0  0  0  0
    2.9120   -3.0546    2.6456 H   0  0  0  0  0  0  0  0  0  0  0  0
    1.6313   -4.2598    2.9005 H   0  0  0  0  0  0  0  0  0  0  0  0
    1.5894   -2.7249    3.7852 H   0  0  0  0  0  0  0  0  0  0  0  0
    2.3966   -3.0343    0.0775 H   0  0  0  0  0  0  0  0  0  0  0  0
    1.3055   -4.3626    0.5184 H   0  0  0  0  0  0  0  0  0  0  0  0
    0.6811   -2.9995   -0.4089 H   0  0  0  0  0  0  0  0  0  0  0  0
   -0.5474    1.9960    0.8252 N   0  0  0  0  0  0  0  0  0  0  0  0
   -0.7624    3.4202    1.1617 C   0  0  2  0  0  0  0  0  0  0  0  0
   -0.0853    4.4279    0.2028 C   0  0  0  0  0  0  0  0  0  0  0  0
   -0.7481    5.3457   -0.2638 O   0  0  0  0  0  0  0  0  0  0  0  0
   -0.3811    3.7128    2.6199 C   0  0  0  0  0  0  0  0  0  0  0  0
   -1.3448    1.4828    0.4622 H   0  0  0  0  0  0  0  0  0  0  0  0
   -1.8384    3.6036    1.0766 H   0  0  0  0  0  0  0  0  0  0  0  0
    0.7019    3.6640    2.7662 H   0  0  0  0  0  0  0  0  0  0  0  0
   -0.7156    4.7168    2.8991 H   0  0  0  0  0  0  0  0  0  0  0  0
   -0.8567    2.9904    3.2900 H   0  0  0  0  0  0  0  0  0  0  0  0
    1.2481    4.3184   -0.1380 N   0  0  0  0  0  0  0  0  0  0  0  0
    1.9515    5.2512   -1.0067 C   0  0  0  0  0  0  0  0  0  0  0  0
    1.7626    3.5432    0.2925 H   0  0  0  0  0  0  0  0  0  0  0  0
    1.9403    6.2580   -0.5760 H   0  0  0  0  0  0  0  0  0  0  0  0
    2.9931    4.9387   -1.1299 H   0  0  0  0  0  0  0  0  0  0  0  0
    1.4804    5.2838   -1.9946 H   0  0  0  0  0  0  0  0  0  0  0  0
  1  2  2  0  0  0  0
  1  3  1  0  0  0  0
  1  7  1  0  0  0  0
  3  4  1  0  0  0  0
  3  5  1  0  0  0  0
  3  6  1  0  0  0  0
  7  8  1  0  0  0  0
  7 12  1  0  0  0  0
  8  9  1  0  0  0  0
  8 11  1  0  0  0  0
  8 13  1  0  0  0  0
  9 10  2  0  0  0  0
  9 17  1  0  0  0  0
 11 14  1  0  0  0  0
 11 15  1  0  0  0  0
 11 16  1  0  0  0  0
 17 18  1  0  0  0  0
 17 25  1  0  0  0  0
 18 19  1  0  0  0  0
 18 21  1  0  0  0  0
 18 26  1  0  0  0  0
 19 20  2  0  0  0  0
 19 36  1  0  0  0  0
 21 22  1  0  0  0  0
 21 27  1  0  0  0  0
 21 28  1  0  0  0  0
 22 23  1  0  0  0  0
 22 24  1  0  0  0  0
 22 29  1  0  0  0  0
 23 30  1  0  0  0  0
 23 31  1  0  0  0  0
 23 32  1  0  0  0  0
 24 33  1  0  0  0  0
 24 34  1  0  0  0  0
 24 35  1  0  0  0  0
 36 37  1  0  0  0  0
 36 41  1  0  0  0  0
 37 38  1  0  0  0  0
 37 40  1  0  0  0  0
 37 42  1  0  0  0  0
 38 39  2  0  0  0  0
 38 46  1  0  0  0  0
 40 43  1  0  0  0  0
 40 44  1  0  0  0  0
 40 45  1  0  0  0  0
 46 47  1  0  0  0  0
 46 48  1  0  0  0  0
 47 49  1  0  0  0  0
 47 50  1  0  0  0  0
 47 51  1  0  0  0  0
M  END
$$$$

  -OEChem-05262216553D

 51 50  0     1  0  0  0  0  0999 V2000
    1.2142   -2.4239   -3.4107 C   0  0  0  0  0  0  0  0  0  0  0  0
    0.2936   -1.6608   -3.1590 O   0  0  0  0  0  0  0  0  0  0  0  0
    0.9121   -3.8007   -3.9718 C   0  0  0  0  0  0  0  0  0  0  0  0
    1.2596   -4.5712   -3.2791 H   0  0  0  0  0  0  0  0  0  0  0  0
   -0.1651   -3.9212   -4.1195 H   0  0  0  0  0  0  0  0  0  0  0  0
    1.4144   -3.9317   -4.9334 H   0  0  0  0  0  0  0  0  0  0  0  0
    2.5252   -2.0764   -3.1411 N   0  0  0  0  0  0  0  0  0  0  0  0
    3.0136   -0.7967   -2.5837 C   0  0  2  0  0  0  0  0  0  0  0  0
    2.5897   -0.5254   -1.1219 C   0  0  0  0  0  0  0  0  0  0  0  0
    3.4647   -0.3850   -0.2821 O   0  0  0  0  0  0  0  0  0  0  0  0
    2.6393    0.3831   -3.4919 C   0  0  0  0  0  0  0  0  0  0  0  0
    3.2200   -2.7935   -3.3310 H   0  0  0  0  0  0  0  0  0  0  0  0
    4.1075   -0.8508   -2.5731 H   0  0  0  0  0  0  0  0  0  0  0  0
    1.5598    0.5595   -3.4945 H   0  0  0  0  0  0  0  0  0  0  0  0
    3.1313    1.2961   -3.1408 H   0  0  0  0  0  0  0  0  0  0  0  0
    2.9630    0.1886   -4.5187 H   0  0  0  0  0  0  0  0  0  0  0  0
    1.2471   -0.5069   -0.7840 N   0  0  0  0  0  0  0  0  0  0  0  0
    0.6390   -0.2247    0.5305 C   0  0  2  0  0  0  0  0  0  0  0  0
    0.6653    1.2787    0.8958 C   0  0  0  0  0  0  0  0  0  0  0  0
    1.7128    1.8994    1.0068 O   0  0  0  0  0  0  0  0  0  0  0  0
    1.1659   -1.0715    1.7172 C   0  0  0  0  0  0  0  0  0  0  0  0
    0.8592   -2.5902    1.6759 C   0  0  0  0  0  0  0  0  0  0  0  0
    1.5864   -3.2603    2.8488 C   0  0  0  0  0  0  0  0  0  0  0  0
    1.2797   -3.3076    0.3857 C   0  0  0  0  0  0  0  0  0  0  0  0
    0.6206   -0.7051   -1.5690 H   0  0  0  0  0  0  0  0  0  0  0  0
   -0.4164   -0.4899    0.4277 H   0  0  0  0  0  0  0  0  0  0  0  0
    0.7261   -0.6730    2.6377 H   0  0  0  0  0  0  0  0  0  0  0  0
    2.2465   -0.9272    1.8054 H   0  0  0  0  0  0  0  0  0  0  0  0
   -0.2194   -2.7287    1.8040 H   0  0  0  0  0  0  0  0  0  0  0  0
    2.6713   -3.1638    2.7360 H   0  0  0  0  0  0  0  0  0  0  0  0
    1.3355   -4.3243    2.8992 H   0  0  0  0  0  0  0  0  0  0  0  0
    1.2936   -2.7963    3.7958 H   0  0  0  0  0  0  0  0  0  0  0  0
    2.3263   -3.0935    0.1485 H   0  0  0  0  0  0  0  0  0  0  0  0
    1.1671   -4.3902    0.4977 H   0  0  0  0  0  0  0  0  0  0  0  0
    0.6500   -2.9976   -0.4517 H   0  0  0  0  0  0  0  0  0  0  0  0
   -0.5358    1.9367    1.1203 N   0  0  0  0  0  0  0  0  0  0  0  0
   -0.7202    3.3322    1.5748 C   0  0  2  0  0  0  0  0  0  0  0  0
   -0.2887    4.4229    0.5658 C   0  0  0  0  0  0  0  0  0  0  0  0
   -1.0396    5.3658    0.3506 O   0  0  0  0  0  0  0  0  0  0  0  0
   -0.0547    3.5584    2.9396 C   0  0  0  0  0  0  0  0  0  0  0  0
   -1.3759    1.3864    0.9711 H   0  0  0  0  0  0  0  0  0  0  0  0
   -1.7958    3.4750    1.7212 H   0  0  0  0  0  0  0  0  0  0  0  0
    1.0359    3.5355    2.8584 H   0  0  0  0  0  0  0  0  0  0  0  0
   -0.3446    4.5348    3.3403 H   0  0  0  0  0  0  0  0  0  0  0  0
   -0.3682    2.7863    3.6485 H   0  0  0  0  0  0  0  0  0  0  0  0
    0.9271    4.3689   -0.0853 N   0  0  0  0  0  0  0  0  0  0  0  0
    1.4245    5.4055   -0.9784 C   0  0  0  0  0  0  0  0  0  0  0  0
    1.5397    3.5884    0.1719 H   0  0  0  0  0  0  0  0  0  0  0  0
    1.5524    6.3480   -0.4364 H   0  0  0  0  0  0  0  0  0  0  0  0
    2.3923    5.1105   -1.3949 H   0  0  0  0  0  0  0  0  0  0  0  0
    0.7264    5.5656   -1.8064 H   0  0  0  0  0  0  0  0  0  0  0  0
  1  2  2  0  0  0  0
  1  3  1  0  0  0  0
  1  7  1  0  0  0  0
  3  4  1  0  0  0  0
  3  5  1  0  0  0  0
  3  6  1  0  0  0  0
  7  8  1  0  0  0  0
  7 12  1  0  0  0  0
  8  9  1  0  0  0  0
  8 11  1  0  0  0  0
  8 13  1  0  0  0  0
  9 10  2  0  0  0  0
  9 17  1  0  0  0  0
 11 14  1  0  0  0  0
 11 15  1  0  0  0  0
 11 16  1  0  0  0  0
 17 18  1  0  0  0  0
 17 25  1  0  0  0  0
 18 19  1  0  0  0  0
 18 21  1  0  0  0  0
 18 26  1  0  0  0  0
 19 20  2  0  0  0  0
 19 36  1  0  0  0  0
 21 22  1  0  0  0  0
 21 27  1  0  0  0  0
 21 28  1  0  0  0  0
 22 23  1  0  0  0  0
 22 24  1  0  0  0  0
 22 29  1  0  0  0  0
 23 30  1  0  0  0  0
 23 31  1  0  0  0  0
 23 32  1  0  0  0  0
 24 33  1  0  0  0  0
 24 34  1  0  0  0  0
 24 35  1  0  0  0  0
 36 37  1  0  0  0  0
 36 41  1  0  0  0  0
 37 38  1  0  0  0  0
 37 40  1  0  0  0  0
 37 42  1  0  0  0  0
 38 39  2  0  0  0  0
 38 46  1  0  0  0  0
 40 43  1  0  0  0  0
 40 44  1  0  0  0  0
 40 45  1  0  0  0  0
 46 47  1  0  0  0  0
 46 48  1  0  0  0  0
 47 49  1  0  0  0  0
 47 50  1  0  0  0  0
 47 51  1  0  0  0  0
M  END
$$$$

  -OEChem-05262216553D

 51 50  0     1  0  0  0  0  0999 V2000
    1.2232   -2.2553   -3.4502 C   0  0  0  0  0  0  0  0  0  0  0  0
    0.3273   -1.4824   -3.1453 O   0  0  0  0  0  0  0  0  0  0  0  0
    0.8773   -3.5734   -4.1166 C   0  0  0  0  0  0  0  0  0  0  0  0
    1.1891   -4.4069   -3.4820 H   0  0  0  0  0  0  0  0  0  0  0  0
   -0.2018   -3.6415   -4.2815 H   0  0  0  0  0  0  0  0  0  0  0  0
    1.3847   -3.6489   -5.0814 H   0  0  0  0  0  0  0  0  0  0  0  0
    2.5442   -1.9735   -3.1547 N   0  0  0  0  0  0  0  0  0  0  0  0
    3.0716   -0.7583   -2.4979 C   0  0  2  0  0  0  0  0  0  0  0  0
    2.6469   -0.5906   -1.0215 C   0  0  0  0  0  0  0  0  0  0  0  0
    3.5174   -0.5756   -0.1638 O   0  0  0  0  0  0  0  0  0  0  0  0
    2.7391    0.5027   -3.3087 C   0  0  0  0  0  0  0  0  0  0  0  0
    3.2144   -2.7007   -3.3887 H   0  0  0  0  0  0  0  0  0  0  0  0
    4.1631   -0.8481   -2.4885 H   0  0  0  0  0  0  0  0  0  0  0  0
    1.6660    0.7139   -3.2981 H   0  0  0  0  0  0  0  0  0  0  0  0
    3.2589    1.3668   -2.8825 H   0  0  0  0  0  0  0  0  0  0  0  0
    3.0604    0.3837   -4.3477 H   0  0  0  0  0  0  0  0  0  0  0  0
    1.3032   -0.5228   -0.6942 N   0  0  0  0  0  0  0  0  0  0  0  0
    0.7054   -0.2546    0.6274 C   0  0  2  0  0  0  0  0  0  0  0  0
    0.7967    1.2338    1.0471 C   0  0  0  0  0  0  0  0  0  0  0  0
    1.7818    1.9189    0.8058 O   0  0  0  0  0  0  0  0  0  0  0  0
    1.1711   -1.1714    1.7871 C   0  0  0  0  0  0  0  0  0  0  0  0
    0.7727   -2.6667    1.6861 C   0  0  0  0  0  0  0  0  0  0  0  0
    1.4456   -3.4253    2.8372 C   0  0  0  0  0  0  0  0  0  0  0  0
    1.1651   -3.3593    0.3729 C   0  0  0  0  0  0  0  0  0  0  0  0
    0.6747   -0.6148   -1.4970 H   0  0  0  0  0  0  0  0  0  0  0  0
   -0.3617   -0.4578    0.5040 H   0  0  0  0  0  0  0  0  0  0  0  0
    0.7465   -0.7821    2.7181 H   0  0  0  0  0  0  0  0  0  0  0  0
    2.2571   -1.0949    1.8902 H   0  0  0  0  0  0  0  0  0  0  0  0
   -0.3136   -2.7453    1.7990 H   0  0  0  0  0  0  0  0  0  0  0  0
    2.5355   -3.3935    2.7368 H   0  0  0  0  0  0  0  0  0  0  0  0
    1.1281   -4.4726    2.8443 H   0  0  0  0  0  0  0  0  0  0  0  0
    1.1723   -2.9805    3.7991 H   0  0  0  0  0  0  0  0  0  0  0  0
    2.2242   -3.1948    0.1516 H   0  0  0  0  0  0  0  0  0  0  0  0
    0.9923   -4.4377    0.4436 H   0  0  0  0  0  0  0  0  0  0  0  0
    0.5619   -2.9852   -0.4582 H   0  0  0  0  0  0  0  0  0  0  0  0
   -0.3252    1.8409    1.5939 N   0  0  0  0  0  0  0  0  0  0  0  0
   -0.4507    3.2382    2.0618 C   0  0  2  0  0  0  0  0  0  0  0  0
   -0.4119    4.3122    0.9493 C   0  0  0  0  0  0  0  0  0  0  0  0
   -1.3069    5.1458    0.8913 O   0  0  0  0  0  0  0  0  0  0  0  0
    0.5779    3.5495    3.1581 C   0  0  0  0  0  0  0  0  0  0  0  0
   -1.1373    1.2430    1.7111 H   0  0  0  0  0  0  0  0  0  0  0  0
   -1.4389    3.3264    2.5247 H   0  0  0  0  0  0  0  0  0  0  0  0
    1.5931    3.5869    2.7522 H   0  0  0  0  0  0  0  0  0  0  0  0
    0.3580    4.5206    3.6127 H   0  0  0  0  0  0  0  0  0  0  0  0
    0.5433    2.7857    3.9404 H   0  0  0  0  0  0  0  0  0  0  0  0
    0.6122    4.3586    0.0253 N   0  0  0  0  0  0  0  0  0  0  0  0
    0.7143    5.3510   -1.0349 C   0  0  0  0  0  0  0  0  0  0  0  0
    1.3274    3.6293    0.1083 H   0  0  0  0  0  0  0  0  0  0  0  0
    0.7592    6.3598   -0.6113 H   0  0  0  0  0  0  0  0  0  0  0  0
    1.6211    5.1820   -1.6233 H   0  0  0  0  0  0  0  0  0  0  0  0
   -0.1503    5.2864   -1.7033 H   0  0  0  0  0  0  0  0  0  0  0  0
  1  2  2  0  0  0  0
  1  3  1  0  0  0  0
  1  7  1  0  0  0  0
  3  4  1  0  0  0  0
  3  5  1  0  0  0  0
  3  6  1  0  0  0  0
  7  8  1  0  0  0  0
  7 12  1  0  0  0  0
  8  9  1  0  0  0  0
  8 11  1  0  0  0  0
  8 13  1  0  0  0  0
  9 10  2  0  0  0  0
  9 17  1  0  0  0  0
 11 14  1  0  0  0  0
 11 15  1  0  0  0  0
 11 16  1  0  0  0  0
 17 18  1  0  0  0  0
 17 25  1  0  0  0  0
 18 19  1  0  0  0  0
 18 21  1  0  0  0  0
 18 26  1  0  0  0  0
 19 20  2  0  0  0  0
 19 36  1  0  0  0  0
 21 22  1  0  0  0  0
 21 27  1  0  0  0  0
 21 28  1  0  0  0  0
 22 23  1  0  0  0  0
 22 24  1  0  0  0  0
 22 29  1  0  0  0  0
 23 30  1  0  0  0  0
 23 31  1  0  0  0  0
 23 32  1  0  0  0  0
 24 33  1  0  0  0  0
 24 34  1  0  0  0  0
 24 35  1  0  0  0  0
 36 37  1  0  0  0  0
 36 41  1  0  0  0  0
 37 38  1  0  0  0  0
 37 40  1  0  0  0  0
 37 42  1  0  0  0  0
 38 39  2  0  0  0  0
 38 46  1  0  0  0  0
 40 43  1  0  0  0  0
 40 44  1  0  0  0  0
 40 45  1  0  0  0  0
 46 47  1  0  0  0  0
 46 48  1  0  0  0  0
 47 49  1  0  0  0  0
 47 50  1  0  0  0  0
 47 51  1  0  0  0  0
M  END
$$$$

  -OEChem-05262216553D

 51 50  0     1  0  0  0  0  0999 V2000
    1.1639   -2.2415   -3.4601 C   0  0  0  0  0  0  0  0  0  0  0  0
    0.2844   -1.4603   -3.1304 O   0  0  0  0  0  0  0  0  0  0  0  0
    0.7888   -3.5528   -4.1243 C   0  0  0  0  0  0  0  0  0  0  0  0
    1.0727   -4.3907   -3.4826 H   0  0  0  0  0  0  0  0  0  0  0  0
   -0.2902   -3.5937   -4.2989 H   0  0  0  0  0  0  0  0  0  0  0  0
    1.3027   -3.6472   -5.0842 H   0  0  0  0  0  0  0  0  0  0  0  0
    2.4944   -1.9790   -3.1913 N   0  0  0  0  0  0  0  0  0  0  0  0
    3.0503   -0.7802   -2.5287 C   0  0  2  0  0  0  0  0  0  0  0  0
    2.6554   -0.6279   -1.0424 C   0  0  0  0  0  0  0  0  0  0  0  0
    3.5396   -0.6367   -0.1978 O   0  0  0  0  0  0  0  0  0  0  0  0
    2.7202    0.4958   -3.3170 C   0  0  0  0  0  0  0  0  0  0  0  0
    3.1500   -2.7109   -3.4493 H   0  0  0  0  0  0  0  0  0  0  0  0
    4.1405   -0.8841   -2.5411 H   0  0  0  0  0  0  0  0  0  0  0  0
    1.6495    0.7178   -3.2913 H   0  0  0  0  0  0  0  0  0  0  0  0
    3.2531    1.3491   -2.8847 H   0  0  0  0  0  0  0  0  0  0  0  0
    3.0283    0.3877   -4.3611 H   0  0  0  0  0  0  0  0  0  0  0  0
    1.3211   -0.5250   -0.6886 N   0  0  0  0  0  0  0  0  0  0  0  0
    0.7667   -0.2575    0.6519 C   0  0  2  0  0  0  0  0  0  0  0  0
    0.9183    1.2223    1.0871 C   0  0  0  0  0  0  0  0  0  0  0  0
    1.7459    1.9673    0.5768 O   0  0  0  0  0  0  0  0  0  0  0  0
    1.2276   -1.2107    1.7858 C   0  0  0  0  0  0  0  0  0  0  0  0
    0.7724   -2.6883    1.6711 C   0  0  0  0  0  0  0  0  0  0  0  0
    1.4458   -3.4892    2.7930 C   0  0  0  0  0  0  0  0  0  0  0  0
    1.1083   -3.3724    0.3381 C   0  0  0  0  0  0  0  0  0  0  0  0
    0.6723   -0.5830   -1.4783 H   0  0  0  0  0  0  0  0  0  0  0  0
   -0.3105   -0.4165    0.5525 H   0  0  0  0  0  0  0  0  0  0  0  0
    0.8402   -0.8254    2.7344 H   0  0  0  0  0  0  0  0  0  0  0  0
    2.3176   -1.1759    1.8641 H   0  0  0  0  0  0  0  0  0  0  0  0
   -0.3130   -2.7297    1.8095 H   0  0  0  0  0  0  0  0  0  0  0  0
    2.5332   -3.4940    2.6648 H   0  0  0  0  0  0  0  0  0  0  0  0
    1.0911   -4.5247    2.7917 H   0  0  0  0  0  0  0  0  0  0  0  0
    1.2132   -3.0511    3.7687 H   0  0  0  0  0  0  0  0  0  0  0  0
    2.1666   -3.2407    0.0931 H   0  0  0  0  0  0  0  0  0  0  0  0
    0.9000   -4.4451    0.3965 H   0  0  0  0  0  0  0  0  0  0  0  0
    0.4987   -2.9643   -0.4720 H   0  0  0  0  0  0  0  0  0  0  0  0
   -0.0309    1.7642    1.9423 N   0  0  0  0  0  0  0  0  0  0  0  0
   -0.0621    3.1367    2.4931 C   0  0  2  0  0  0  0  0  0  0  0  0
   -0.3780    4.2579    1.4748 C   0  0  0  0  0  0  0  0  0  0  0  0
   -1.2205    5.1005    1.7569 O   0  0  0  0  0  0  0  0  0  0  0  0
    1.2279    3.4490    3.2642 C   0  0  0  0  0  0  0  0  0  0  0  0
   -0.7304    1.1150    2.2888 H   0  0  0  0  0  0  0  0  0  0  0  0
   -0.8787    3.1624    3.2218 H   0  0  0  0  0  0  0  0  0  0  0  0
    2.0817    3.5444    2.5870 H   0  0  0  0  0  0  0  0  0  0  0  0
    1.1190    4.3918    3.8095 H   0  0  0  0  0  0  0  0  0  0  0  0
    1.4419    2.6549    3.9857 H   0  0  0  0  0  0  0  0  0  0  0  0
    0.2779    4.3422    0.2637 N   0  0  0  0  0  0  0  0  0  0  0  0
    0.0737    5.4081   -0.7064 C   0  0  0  0  0  0  0  0  0  0  0  0
    1.0003    3.6357    0.0945 H   0  0  0  0  0  0  0  0  0  0  0  0
    0.3776    6.3716   -0.2847 H   0  0  0  0  0  0  0  0  0  0  0  0
    0.6690    5.2184   -1.6045 H   0  0  0  0  0  0  0  0  0  0  0  0
   -0.9805    5.4657   -0.9964 H   0  0  0  0  0  0  0  0  0  0  0  0
  1  2  2  0  0  0  0
  1  3  1  0  0  0  0
  1  7  1  0  0  0  0
  3  4  1  0  0  0  0
  3  5  1  0  0  0  0
  3  6  1  0  0  0  0
  7  8  1  0  0  0  0
  7 12  1  0  0  0  0
  8  9  1  0  0  0  0
  8 11  1  0  0  0  0
  8 13  1  0  0  0  0
  9 10  2  0  0  0  0
  9 17  1  0  0  0  0
 11 14  1  0  0  0  0
 11 15  1  0  0  0  0
 11 16  1  0  0  0  0
 17 18  1  0  0  0  0
 17 25  1  0  0  0  0
 18 19  1  0  0  0  0
 18 21  1  0  0  0  0
 18 26  1  0  0  0  0
 19 20  2  0  0  0  0
 19 36  1  0  0  0  0
 21 22  1  0  0  0  0
 21 27  1  0  0  0  0
 21 28  1  0  0  0  0
 22 23  1  0  0  0  0
 22 24  1  0  0  0  0
 22 29  1  0  0  0  0
 23 30  1  0  0  0  0
 23 31  1  0  0  0  0
 23 32  1  0  0  0  0
 24 33  1  0  0  0  0
 24 34  1  0  0  0  0
 24 35  1  0  0  0  0
 36 37  1  0  0  0  0
 36 41  1  0  0  0  0
 37 38  1  0  0  0  0
 37 40  1  0  0  0  0
 37 42  1  0  0  0  0
 38 39  2  0  0  0  0
 38 46  1  0  0  0  0
 40 43  1  0  0  0  0
 40 44  1  0  0  0  0
 40 45  1  0  0  0  0
 46 47  1  0  0  0  0
 46 48  1  0  0  0  0
 47 49  1  0  0  0  0
 47 50  1  0  0  0  0
 47 51  1  0  0  0  0
M  END
$$$$

  -OEChem-05262216553D

 51 50  0     1  0  0  0  0  0999 V2000
    1.1032   -2.2068   -3.4624 C   0  0  0  0  0  0  0  0  0  0  0  0
    0.2608   -1.3939   -3.1136 O   0  0  0  0  0  0  0  0  0  0  0  0
    0.6651   -3.4864   -4.1492 C   0  0  0  0  0  0  0  0  0  0  0  0
    0.8826   -4.3462   -3.5106 H   0  0  0  0  0  0  0  0  0  0  0  0
   -0.4101   -3.4587   -4.3486 H   0  0  0  0  0  0  0  0  0  0  0  0
    1.1941   -3.6025   -5.0983 H   0  0  0  0  0  0  0  0  0  0  0  0
    2.4457   -2.0068   -3.1973 N   0  0  0  0  0  0  0  0  0  0  0  0
    3.0573   -0.8366   -2.5320 C   0  0  2  0  0  0  0  0  0  0  0  0
    2.6815   -0.6750   -1.0418 C   0  0  0  0  0  0  0  0  0  0  0  0
    3.5738   -0.6915   -0.2054 O   0  0  0  0  0  0  0  0  0  0  0  0
    2.7721    0.4565   -3.3092 C   0  0  0  0  0  0  0  0  0  0  0  0
    3.0690   -2.7592   -3.4765 H   0  0  0  0  0  0  0  0  0  0  0  0
    4.1421   -0.9858   -2.5546 H   0  0  0  0  0  0  0  0  0  0  0  0
    1.7135    0.7274   -3.2596 H   0  0  0  0  0  0  0  0  0  0  0  0
    3.3527    1.2821   -2.8849 H   0  0  0  0  0  0  0  0  0  0  0  0
    3.0526    0.3392   -4.3601 H   0  0  0  0  0  0  0  0  0  0  0  0
    1.3564   -0.5288   -0.6715 N   0  0  0  0  0  0  0  0  0  0  0  0
    0.8339   -0.2643    0.6819 C   0  0  2  0  0  0  0  0  0  0  0  0
    1.0544    1.2034    1.1328 C   0  0  0  0  0  0  0  0  0  0  0  0
    1.6784    2.0014    0.4423 O   0  0  0  0  0  0  0  0  0  0  0  0
    1.2693   -1.2724    1.7812 C   0  0  0  0  0  0  0  0  0  0  0  0
    0.7407   -2.7228    1.6337 C   0  0  0  0  0  0  0  0  0  0  0  0
    1.3939   -3.5891    2.7185 C   0  0  0  0  0  0  0  0  0  0  0  0
    1.0127   -3.3833    0.2748 C   0  0  0  0  0  0  0  0  0  0  0  0
    0.6944   -0.5514   -1.4517 H   0  0  0  0  0  0  0  0  0  0  0  0
   -0.2514   -0.3693    0.5996 H   0  0  0  0  0  0  0  0  0  0  0  0
    0.9200   -0.9015    2.7494 H   0  0  0  0  0  0  0  0  0  0  0  0
    2.3606   -1.2930    1.8385 H   0  0  0  0  0  0  0  0  0  0  0  0
   -0.3425   -2.7147    1.7951 H   0  0  0  0  0  0  0  0  0  0  0  0
    2.4778   -3.6404    2.5719 H   0  0  0  0  0  0  0  0  0  0  0  0
    0.9915   -4.6067    2.6911 H   0  0  0  0  0  0  0  0  0  0  0  0
    1.1967   -3.1723    3.7110 H   0  0  0  0  0  0  0  0  0  0  0  0
    2.0709   -3.2978    0.0097 H   0  0  0  0  0  0  0  0  0  0  0  0
    0.7506   -4.4453    0.3073 H   0  0  0  0  0  0  0  0  0  0  0  0
    0.4070   -2.9213   -0.5090 H   0  0  0  0  0  0  0  0  0  0  0  0
    0.3525    1.6810    2.2308 N   0  0  0  0  0  0  0  0  0  0  0  0
    0.4150    3.0384    2.8142 C   0  0  2  0  0  0  0  0  0  0  0  0
   -0.2305    4.1547    1.9606 C   0  0  0  0  0  0  0  0  0  0  0  0
   -1.0347    4.9167    2.4820 O   0  0  0  0  0  0  0  0  0  0  0  0
    1.8545    3.4088    3.1993 C   0  0  0  0  0  0  0  0  0  0  0  0
   -0.2061    0.9934    2.7267 H   0  0  0  0  0  0  0  0  0  0  0  0
   -0.1609    3.0063    3.7447 H   0  0  0  0  0  0  0  0  0  0  0  0
    2.4745    3.5710    2.3125 H   0  0  0  0  0  0  0  0  0  0  0  0
    1.8583    4.3306    3.7894 H   0  0  0  0  0  0  0  0  0  0  0  0
    2.3060    2.6122    3.7982 H   0  0  0  0  0  0  0  0  0  0  0  0
    0.0886    4.3199    0.6283 N   0  0  0  0  0  0  0  0  0  0  0  0
   -0.4438    5.3799   -0.2160 C   0  0  0  0  0  0  0  0  0  0  0  0
    0.7778    3.6650    0.2463 H   0  0  0  0  0  0  0  0  0  0  0  0
   -0.1414    6.3605    0.1659 H   0  0  0  0  0  0  0  0  0  0  0  0
   -0.0661    5.2739   -1.2375 H   0  0  0  0  0  0  0  0  0  0  0  0
   -1.5374    5.3342   -0.2454 H   0  0  0  0  0  0  0  0  0  0  0  0
  1  2  2  0  0  0  0
  1  3  1  0  0  0  0
  1  7  1  0  0  0  0
  3  4  1  0  0  0  0
  3  5  1  0  0  0  0
  3  6  1  0  0  0  0
  7  8  1  0  0  0  0
  7 12  1  0  0  0  0
  8  9  1  0  0  0  0
  8 11  1  0  0  0  0
  8 13  1  0  0  0  0
  9 10  2  0  0  0  0
  9 17  1  0  0  0  0
 11 14  1  0  0  0  0
 11 15  1  0  0  0  0
 11 16  1  0  0  0  0
 17 18  1  0  0  0  0
 17 25  1  0  0  0  0
 18 19  1  0  0  0  0
 18 21  1  0  0  0  0
 18 26  1  0  0  0  0
 19 20  2  0  0  0  0
 19 36  1  0  0  0  0
 21 22  1  0  0  0  0
 21 27  1  0  0  0  0
 21 28  1  0  0  0  0
 22 23  1  0  0  0  0
 22 24  1  0  0  0  0
 22 29  1  0  0  0  0
 23 30  1  0  0  0  0
 23 31  1  0  0  0  0
 23 32  1  0  0  0  0
 24 33  1  0  0  0  0
 24 34  1  0  0  0  0
 24 35  1  0  0  0  0
 36 37  1  0  0  0  0
 36 41  1  0  0  0  0
 37 38  1  0  0  0  0
 37 40  1  0  0  0  0
 37 42  1  0  0  0  0
 38 39  2  0  0  0  0
 38 46  1  0  0  0  0
 40 43  1  0  0  0  0
 40 44  1  0  0  0  0
 40 45  1  0  0  0  0
 46 47  1  0  0  0  0
 46 48  1  0  0  0  0
 47 49  1  0  0  0  0
 47 50  1  0  0  0  0
 47 51  1  0  0  0  0
M  END
$$$$

  -OEChem-05262216553D

 51 50  0     1  0  0  0  0  0999 V2000
    0.9941   -2.2118   -3.3764 C   0  0  0  0  0  0  0  0  0  0  0  0
    0.1304   -1.4441   -2.9810 O   0  0  0  0  0  0  0  0  0  0  0  0
    0.5911   -3.5490   -3.9688 C   0  0  0  0  0  0  0  0  0  0  0  0
    0.9670   -4.3635   -3.3445 H   0  0  0  0  0  0  0  0  0  0  0  0
   -0.4986   -3.6236   -4.0261 H   0  0  0  0  0  0  0  0  0  0  0  0
    1.0022   -3.6513   -4.9761 H   0  0  0  0  0  0  0  0  0  0  0  0
    2.3366   -1.9060   -3.2499 N   0  0  0  0  0  0  0  0  0  0  0  0
    2.9175   -0.6639   -2.6983 C   0  0  2  0  0  0  0  0  0  0  0  0
    2.6645   -0.4502   -1.1887 C   0  0  0  0  0  0  0  0  0  0  0  0
    3.6283   -0.3589   -0.4413 O   0  0  0  0  0  0  0  0  0  0  0  0
    2.4743    0.5641   -3.5073 C   0  0  0  0  0  0  0  0  0  0  0  0
    2.9852   -2.6225   -3.5635 H   0  0  0  0  0  0  0  0  0  0  0  0
    4.0039   -0.7413   -2.8130 H   0  0  0  0  0  0  0  0  0  0  0  0
    1.4049    0.7599   -3.3861 H   0  0  0  0  0  0  0  0  0  0  0  0
    3.0202    1.4506   -3.1688 H   0  0  0  0  0  0  0  0  0  0  0  0
    2.6823    0.4145   -4.5708 H   0  0  0  0  0  0  0  0  0  0  0  0
    1.3718   -0.3266   -0.7123 N   0  0  0  0  0  0  0  0  0  0  0  0
    0.9244   -0.1362    0.6824 C   0  0  2  0  0  0  0  0  0  0  0  0
    0.8318    1.3688    1.0511 C   0  0  0  0  0  0  0  0  0  0  0  0
    0.9793    2.2363    0.1972 O   0  0  0  0  0  0  0  0  0  0  0  0
    1.6264   -0.9954    1.7748 C   0  0  0  0  0  0  0  0  0  0  0  0
    1.3860   -2.5271    1.7101 C   0  0  0  0  0  0  0  0  0  0  0  0
    2.2721   -3.2011    2.7658 C   0  0  0  0  0  0  0  0  0  0  0  0
    1.6695   -3.1943    0.3573 C   0  0  0  0  0  0  0  0  0  0  0  0
    0.6517   -0.4205   -1.4339 H   0  0  0  0  0  0  0  0  0  0  0  0
   -0.1161   -0.4736    0.6934 H   0  0  0  0  0  0  0  0  0  0  0  0
    1.2740   -0.6689    2.7569 H   0  0  0  0  0  0  0  0  0  0  0  0
    2.7006   -0.7958    1.7585 H   0  0  0  0  0  0  0  0  0  0  0  0
    0.3369   -2.7174    1.9600 H   0  0  0  0  0  0  0  0  0  0  0  0
    3.3316   -3.0591    2.5283 H   0  0  0  0  0  0  0  0  0  0  0  0
    2.0674   -4.2753    2.8096 H   0  0  0  0  0  0  0  0  0  0  0  0
    2.0784   -2.7771    3.7559 H   0  0  0  0  0  0  0  0  0  0  0  0
    2.6851   -2.9689    0.0192 H   0  0  0  0  0  0  0  0  0  0  0  0
    1.5714   -4.2809    0.4424 H   0  0  0  0  0  0  0  0  0  0  0  0
    0.9539   -2.8598   -0.3978 H   0  0  0  0  0  0  0  0  0  0  0  0
    0.4275    1.7495    2.3235 N   0  0  0  0  0  0  0  0  0  0  0  0
    0.3069    3.1245    2.8556 C   0  0  2  0  0  0  0  0  0  0  0  0
   -0.8466    3.9654    2.2606 C   0  0  0  0  0  0  0  0  0  0  0  0
   -1.6166    4.5457    3.0152 O   0  0  0  0  0  0  0  0  0  0  0  0
    1.6407    3.8769    2.7475 C   0  0  0  0  0  0  0  0  0  0  0  0
    0.2734    0.9890    2.9782 H   0  0  0  0  0  0  0  0  0  0  0  0
    0.0845    3.0289    3.9234 H   0  0  0  0  0  0  0  0  0  0  0  0
    1.8862    4.1044    1.7060 H   0  0  0  0  0  0  0  0  0  0  0  0
    1.5827    4.8218    3.2967 H   0  0  0  0  0  0  0  0  0  0  0  0
    2.4515    3.2777    3.1728 H   0  0  0  0  0  0  0  0  0  0  0  0
   -1.0192    4.0880    0.8972 N   0  0  0  0  0  0  0  0  0  0  0  0
   -2.0502    4.9013    0.2692 C   0  0  0  0  0  0  0  0  0  0  0  0
   -0.3369    3.5963    0.3126 H   0  0  0  0  0  0  0  0  0  0  0  0
   -1.9310    5.9529    0.5494 H   0  0  0  0  0  0  0  0  0  0  0  0
   -1.9793    4.8225   -0.8198 H   0  0  0  0  0  0  0  0  0  0  0  0
   -3.0454    4.5640    0.5763 H   0  0  0  0  0  0  0  0  0  0  0  0
  1  2  2  0  0  0  0
  1  3  1  0  0  0  0
  1  7  1  0  0  0  0
  3  4  1  0  0  0  0
  3  5  1  0  0  0  0
  3  6  1  0  0  0  0
  7  8  1  0  0  0  0
  7 12  1  0  0  0  0
  8  9  1  0  0  0  0
  8 11  1  0  0  0  0
  8 13  1  0  0  0  0
  9 10  2  0  0  0  0
  9 17  1  0  0  0  0
 11 14  1  0  0  0  0
 11 15  1  0  0  0  0
 11 16  1  0  0  0  0
 17 18  1  0  0  0  0
 17 25  1  0  0  0  0
 18 19  1  0  0  0  0
 18 21  1  0  0  0  0
 18 26  1  0  0  0  0
 19 20  2  0  0  0  0
 19 36  1  0  0  0  0
 21 22  1  0  0  0  0
 21 27  1  0  0  0  0
 21 28  1  0  0  0  0
 22 23  1  0  0  0  0
 22 24  1  0  0  0  0
 22 29  1  0  0  0  0
 23 30  1  0  0  0  0
 23 31  1  0  0  0  0
 23 32  1  0  0  0  0
 24 33  1  0  0  0  0
 24 34  1  0  0  0  0
 24 35  1  0  0  0  0
 36 37  1  0  0  0  0
 36 41  1  0  0  0  0
 37 38  1  0  0  0  0
 37 40  1  0  0  0  0
 37 42  1  0  0  0  0
 38 39  2  0  0  0  0
 38 46  1  0  0  0  0
 40 43  1  0  0  0  0
 40 44  1  0  0  0  0
 40 45  1  0  0  0  0
 46 47  1  0  0  0  0
 46 48  1  0  0  0  0
 47 49  1  0  0  0  0
 47 50  1  0  0  0  0
 47 51  1  0  0  0  0
M  END
$$$$

  -OEChem-05262216553D

 51 50  0     1  0  0  0  0  0999 V2000
    0.9560   -2.2761   -3.3409 C   0  0  0  0  0  0  0  0  0  0  0  0
    0.1124   -1.4803   -2.9586 O   0  0  0  0  0  0  0  0  0  0  0  0
    0.5205   -3.6236   -3.8851 C   0  0  0  0  0  0  0  0  0  0  0  0
    0.9111   -4.4260   -3.2540 H   0  0  0  0  0  0  0  0  0  0  0  0
   -0.5712   -3.6896   -3.9010 H   0  0  0  0  0  0  0  0  0  0  0  0
    0.8944   -3.7544   -4.9036 H   0  0  0  0  0  0  0  0  0  0  0  0
    2.3053   -1.9922   -3.2390 N   0  0  0  0  0  0  0  0  0  0  0  0
    2.9148   -0.7445   -2.7331 C   0  0  2  0  0  0  0  0  0  0  0  0
    2.6845   -0.4791   -1.2274 C   0  0  0  0  0  0  0  0  0  0  0  0
    3.6573   -0.3720   -0.4935 O   0  0  0  0  0  0  0  0  0  0  0  0
    2.4841    0.4644   -3.5773 C   0  0  0  0  0  0  0  0  0  0  0  0
    2.9368   -2.7274   -3.5438 H   0  0  0  0  0  0  0  0  0  0  0  0
    3.9980   -0.8453   -2.8577 H   0  0  0  0  0  0  0  0  0  0  0  0
    1.4223    0.6905   -3.4413 H   0  0  0  0  0  0  0  0  0  0  0  0
    3.0583    1.3489   -3.2831 H   0  0  0  0  0  0  0  0  0  0  0  0
    2.6658    0.2719   -4.6390 H   0  0  0  0  0  0  0  0  0  0  0  0
    1.4026   -0.3227   -0.7333 N   0  0  0  0  0  0  0  0  0  0  0  0
    0.9849   -0.1231    0.6693 C   0  0  2  0  0  0  0  0  0  0  0  0
    0.9439    1.3877    1.0265 C   0  0  0  0  0  0  0  0  0  0  0  0
    0.8181    2.2270    0.1413 O   0  0  0  0  0  0  0  0  0  0  0  0
    1.6715   -1.0163    1.7457 C   0  0  0  0  0  0  0  0  0  0  0  0
    1.3719   -2.5368    1.6761 C   0  0  0  0  0  0  0  0  0  0  0  0
    2.2483   -3.2508    2.7136 C   0  0  0  0  0  0  0  0  0  0  0  0
    1.6134   -3.2028    0.3152 C   0  0  0  0  0  0  0  0  0  0  0  0
    0.6668   -0.4226   -1.4385 H   0  0  0  0  0  0  0  0  0  0  0  0
   -0.0664   -0.4238    0.6990 H   0  0  0  0  0  0  0  0  0  0  0  0
    1.3413   -0.6899    2.7349 H   0  0  0  0  0  0  0  0  0  0  0  0
    2.7522   -0.8564    1.7149 H   0  0  0  0  0  0  0  0  0  0  0  0
    0.3201   -2.6903    1.9396 H   0  0  0  0  0  0  0  0  0  0  0  0
    3.3094   -3.1366    2.4682 H   0  0  0  0  0  0  0  0  0  0  0  0
    2.0123   -4.3191    2.7459 H   0  0  0  0  0  0  0  0  0  0  0  0
    2.0756   -2.8350    3.7112 H   0  0  0  0  0  0  0  0  0  0  0  0
    2.6297   -3.0048   -0.0380 H   0  0  0  0  0  0  0  0  0  0  0  0
    1.4838   -4.2866    0.3939 H   0  0  0  0  0  0  0  0  0  0  0  0
    0.8955   -2.8411   -0.4246 H   0  0  0  0  0  0  0  0  0  0  0  0
    0.8836    1.8057    2.3490 N   0  0  0  0  0  0  0  0  0  0  0  0
    0.8605    3.1956    2.8549 C   0  0  2  0  0  0  0  0  0  0  0  0
   -0.4437    3.9791    2.5765 C   0  0  0  0  0  0  0  0  0  0  0  0
   -0.9853    4.5855    3.4921 O   0  0  0  0  0  0  0  0  0  0  0  0
    2.0859    3.9828    2.3699 C   0  0  0  0  0  0  0  0  0  0  0  0
    0.9662    1.0687    3.0418 H   0  0  0  0  0  0  0  0  0  0  0  0
    0.9392    3.1315    3.9449 H   0  0  0  0  0  0  0  0  0  0  0  0
    2.0294    4.1840    1.2962 H   0  0  0  0  0  0  0  0  0  0  0  0
    2.1452    4.9423    2.8930 H   0  0  0  0  0  0  0  0  0  0  0  0
    3.0034    3.4219    2.5716 H   0  0  0  0  0  0  0  0  0  0  0  0
   -1.0111    4.0128    1.3192 N   0  0  0  0  0  0  0  0  0  0  0  0
   -2.2243    4.7447    0.9851 C   0  0  0  0  0  0  0  0  0  0  0  0
   -0.5037    3.5118    0.5840 H   0  0  0  0  0  0  0  0  0  0  0  0
   -2.0841    5.8168    1.1573 H   0  0  0  0  0  0  0  0  0  0  0  0
   -2.4772    4.5926   -0.0685 H   0  0  0  0  0  0  0  0  0  0  0  0
   -3.0631    4.3952    1.5960 H   0  0  0  0  0  0  0  0  0  0  0  0
  1  2  2  0  0  0  0
  1  3  1  0  0  0  0
  1  7  1  0  0  0  0
  3  4  1  0  0  0  0
  3  5  1  0  0  0  0
  3  6  1  0  0  0  0
  7  8  1  0  0  0  0
  7 12  1  0  0  0  0
  8  9  1  0  0  0  0
  8 11  1  0  0  0  0
  8 13  1  0  0  0  0
  9 10  2  0  0  0  0
  9 17  1  0  0  0  0
 11 14  1  0  0  0  0
 11 15  1  0  0  0  0
 11 16  1  0  0  0  0
 17 18  1  0  0  0  0
 17 25  1  0  0  0  0
 18 19  1  0  0  0  0
 18 21  1  0  0  0  0
 18 26  1  0  0  0  0
 19 20  2  0  0  0  0
 19 36  1  0  0  0  0
 21 22  1  0  0  0  0
 21 27  1  0  0  0  0
 21 28  1  0  0  0  0
 22 23  1  0  0  0  0
 22 24  1  0  0  0  0
 22 29  1  0  0  0  0
 23 30  1  0  0  0  0
 23 31  1  0  0  0  0
 23 32  1  0  0  0  0
 24 33  1  0  0  0  0
 24 34  1  0  0  0  0
 24 35  1  0  0  0  0
 36 37  1  0  0  0  0
 36 41  1  0  0  0  0
 37 38  1  0  0  0  0
 37 40  1  0  0  0  0
 37 42  1  0  0  0  0
 38 39  2  0  0  0  0
 38 46  1  0  0  0  0
 40 43  1  0  0  0  0
 40 44  1  0  0  0  0
 40 45  1  0  0  0  0
 46 47  1  0  0  0  0
 46 48  1  0  0  0  0
 47 49  1  0  0  0  0
 47 50  1  0  0  0  0
 47 51  1  0  0  0  0
M  END
$$$$

  -OEChem-05262216553D

 51 50  0     1  0  0  0  0  0999 V2000
    0.9504   -2.3188   -3.3533 C   0  0  0  0  0  0  0  0  0  0  0  0
    0.1091   -1.5210   -2.9707 O   0  0  0  0  0  0  0  0  0  0  0  0
    0.5116   -3.6661   -3.8954 C   0  0  0  0  0  0  0  0  0  0  0  0
    0.9103   -4.4686   -3.2698 H   0  0  0  0  0  0  0  0  0  0  0  0
   -0.5800   -3.7341   -3.8999 H   0  0  0  0  0  0  0  0  0  0  0  0
    0.8751   -3.7945   -4.9178 H   0  0  0  0  0  0  0  0  0  0  0  0
    2.3006   -2.0383   -3.2505 N   0  0  0  0  0  0  0  0  0  0  0  0
    2.9131   -0.7902   -2.7484 C   0  0  2  0  0  0  0  0  0  0  0  0
    2.6800   -0.5151   -1.2449 C   0  0  0  0  0  0  0  0  0  0  0  0
    3.6507   -0.3824   -0.5121 O   0  0  0  0  0  0  0  0  0  0  0  0
    2.4896    0.4158   -3.5996 C   0  0  0  0  0  0  0  0  0  0  0  0
    2.9304   -2.7754   -3.5550 H   0  0  0  0  0  0  0  0  0  0  0  0
    3.9961   -0.8962   -2.8700 H   0  0  0  0  0  0  0  0  0  0  0  0
    1.4286    0.6462   -3.4663 H   0  0  0  0  0  0  0  0  0  0  0  0
    3.0670    1.2992   -3.3090 H   0  0  0  0  0  0  0  0  0  0  0  0
    2.6718    0.2168   -4.6598 H   0  0  0  0  0  0  0  0  0  0  0  0
    1.3995   -0.3563   -0.7497 N   0  0  0  0  0  0  0  0  0  0  0  0
    0.9924   -0.1637    0.6558 C   0  0  2  0  0  0  0  0  0  0  0  0
    0.9686    1.3492    0.9998 C   0  0  0  0  0  0  0  0  0  0  0  0
    0.5925    2.1569    0.1572 O   0  0  0  0  0  0  0  0  0  0  0  0
    1.6760   -1.0644    1.7282 C   0  0  0  0  0  0  0  0  0  0  0  0
    1.3671   -2.5826    1.6557 C   0  0  0  0  0  0  0  0  0  0  0  0
    2.2413   -3.3054    2.6889 C   0  0  0  0  0  0  0  0  0  0  0  0
    1.6035   -3.2435    0.2917 C   0  0  0  0  0  0  0  0  0  0  0  0
    0.6592   -0.4700   -1.4485 H   0  0  0  0  0  0  0  0  0  0  0  0
   -0.0617   -0.4544    0.6929 H   0  0  0  0  0  0  0  0  0  0  0  0
    1.3403   -0.7395    2.7169 H   0  0  0  0  0  0  0  0  0  0  0  0
    2.7579   -0.9110    1.7000 H   0  0  0  0  0  0  0  0  0  0  0  0
    0.3147   -2.7305    1.9208 H   0  0  0  0  0  0  0  0  0  0  0  0
    3.3024   -3.1979    2.4410 H   0  0  0  0  0  0  0  0  0  0  0  0
    1.9979   -4.3720    2.7179 H   0  0  0  0  0  0  0  0  0  0  0  0
    2.0741   -2.8914    3.6881 H   0  0  0  0  0  0  0  0  0  0  0  0
    2.6189   -3.0453   -0.0640 H   0  0  0  0  0  0  0  0  0  0  0  0
    1.4726   -4.3274    0.3665 H   0  0  0  0  0  0  0  0  0  0  0  0
    0.8838   -2.8775   -0.4443 H   0  0  0  0  0  0  0  0  0  0  0  0
    1.2313    1.7993    2.2860 N   0  0  0  0  0  0  0  0  0  0  0  0
    1.3145    3.2022    2.7459 C   0  0  2  0  0  0  0  0  0  0  0  0
   -0.0310    3.9637    2.7895 C   0  0  0  0  0  0  0  0  0  0  0  0
   -0.3603    4.5422    3.8174 O   0  0  0  0  0  0  0  0  0  0  0  0
    2.3613    3.9864    1.9413 C   0  0  0  0  0  0  0  0  0  0  0  0
    1.5579    1.0875    2.9318 H   0  0  0  0  0  0  0  0  0  0  0  0
    1.6710    3.1708    3.7806 H   0  0  0  0  0  0  0  0  0  0  0  0
    2.0284    4.1529    0.9127 H   0  0  0  0  0  0  0  0  0  0  0  0
    2.5356    4.9626    2.4045 H   0  0  0  0  0  0  0  0  0  0  0  0
    3.3098    3.4413    1.9163 H   0  0  0  0  0  0  0  0  0  0  0  0
   -0.8627    4.0195    1.6897 N   0  0  0  0  0  0  0  0  0  0  0  0
   -2.1262    4.7417    1.6515 C   0  0  0  0  0  0  0  0  0  0  0  0
   -0.5447    3.5105    0.8596 H   0  0  0  0  0  0  0  0  0  0  0  0
   -2.5994    4.6197    0.6725 H   0  0  0  0  0  0  0  0  0  0  0  0
   -2.8097    4.3597    2.4166 H   0  0  0  0  0  0  0  0  0  0  0  0
   -1.9618    5.8100    1.8260 H   0  0  0  0  0  0  0  0  0  0  0  0
  1  2  2  0  0  0  0
  1  3  1  0  0  0  0
  1  7  1  0  0  0  0
  3  4  1  0  0  0  0
  3  5  1  0  0  0  0
  3  6  1  0  0  0  0
  7  8  1  0  0  0  0
  7 12  1  0  0  0  0
  8  9  1  0  0  0  0
  8 11  1  0  0  0  0
  8 13  1  0  0  0  0
  9 10  2  0  0  0  0
  9 17  1  0  0  0  0
 11 14  1  0  0  0  0
 11 15  1  0  0  0  0
 11 16  1  0  0  0  0
 17 18  1  0  0  0  0
 17 25  1  0  0  0  0
 18 19  1  0  0  0  0
 18 21  1  0  0  0  0
 18 26  1  0  0  0  0
 19 20  2  0  0  0  0
 19 36  1  0  0  0  0
 21 22  1  0  0  0  0
 21 27  1  0  0  0  0
 21 28  1  0  0  0  0
 22 23  1  0  0  0  0
 22 24  1  0  0  0  0
 22 29  1  0  0  0  0
 23 30  1  0  0  0  0
 23 31  1  0  0  0  0
 23 32  1  0  0  0  0
 24 33  1  0  0  0  0
 24 34  1  0  0  0  0
 24 35  1  0  0  0  0
 36 37  1  0  0  0  0
 36 41  1  0  0  0  0
 37 38  1  0  0  0  0
 37 40  1  0  0  0  0
 37 42  1  0  0  0  0
 38 39  2  0  0  0  0
 38 46  1  0  0  0  0
 40 43  1  0  0  0  0
 40 44  1  0  0  0  0
 40 45  1  0  0  0  0
 46 47  1  0  0  0  0
 46 48  1  0  0  0  0
 47 49  1  0  0  0  0
 47 50  1  0  0  0  0
 47 51  1  0  0  0  0
M  END
$$$$

  -OEChem-05262216553D

 51 50  0     1  0  0  0  0  0999 V2000
    0.8629   -2.4653   -3.2988 C   0  0  0  0  0  0  0  0  0  0  0  0
    0.0252   -1.6704   -2.9028 O   0  0  0  0  0  0  0  0  0  0  0  0
    0.4246   -3.8297   -3.7957 C   0  0  0  0  0  0  0  0  0  0  0  0
    0.8390   -4.6120   -3.1549 H   0  0  0  0  0  0  0  0  0  0  0  0
   -0.6666   -3.9043   -3.7811 H   0  0  0  0  0  0  0  0  0  0  0  0
    0.7726   -3.9834   -4.8199 H   0  0  0  0  0  0  0  0  0  0  0  0
    2.2111   -2.1622   -3.2555 N   0  0  0  0  0  0  0  0  0  0  0  0
    2.8194   -0.8831   -2.8338 C   0  0  2  0  0  0  0  0  0  0  0  0
    2.6414   -0.5422   -1.3363 C   0  0  0  0  0  0  0  0  0  0  0  0
    3.6371   -0.3462   -0.6526 O   0  0  0  0  0  0  0  0  0  0  0  0
    2.3383    0.2745   -3.7214 C   0  0  0  0  0  0  0  0  0  0  0  0
    2.8401   -2.8967   -3.5675 H   0  0  0  0  0  0  0  0  0  0  0  0
    3.8987   -0.9759   -2.9931 H   0  0  0  0  0  0  0  0  0  0  0  0
    1.2760    0.4839   -3.5646 H   0  0  0  0  0  0  0  0  0  0  0  0
    2.9003    1.1844   -3.4879 H   0  0  0  0  0  0  0  0  0  0  0  0
    2.4929    0.0338   -4.7774 H   0  0  0  0  0  0  0  0  0  0  0  0
    1.3816   -0.3823   -0.7912 N   0  0  0  0  0  0  0  0  0  0  0  0
    1.0430   -0.1591    0.6270 C   0  0  2  0  0  0  0  0  0  0  0  0
    1.0251    1.3592    0.9275 C   0  0  0  0  0  0  0  0  0  0  0  0
    0.3727    2.1055    0.2064 O   0  0  0  0  0  0  0  0  0  0  0  0
    1.7802   -1.0226    1.6926 C   0  0  0  0  0  0  0  0  0  0  0  0
    1.4797   -2.5433    1.6773 C   0  0  0  0  0  0  0  0  0  0  0  0
    2.4043   -3.2307    2.6906 C   0  0  0  0  0  0  0  0  0  0  0  0
    1.6616   -3.2400    0.3230 C   0  0  0  0  0  0  0  0  0  0  0  0
    0.6112   -0.5596   -1.4430 H   0  0  0  0  0  0  0  0  0  0  0  0
   -0.0065   -0.4537    0.7236 H   0  0  0  0  0  0  0  0  0  0  0  0
    1.4867   -0.6641    2.6841 H   0  0  0  0  0  0  0  0  0  0  0  0
    2.8588   -0.8669    1.6087 H   0  0  0  0  0  0  0  0  0  0  0  0
    0.4409   -2.6904    1.9921 H   0  0  0  0  0  0  0  0  0  0  0  0
    3.4524   -3.1292    2.3899 H   0  0  0  0  0  0  0  0  0  0  0  0
    2.1662   -4.2964    2.7655 H   0  0  0  0  0  0  0  0  0  0  0  0
    2.2829   -2.7850    3.6828 H   0  0  0  0  0  0  0  0  0  0  0  0
    2.6568   -3.0403   -0.0850 H   0  0  0  0  0  0  0  0  0  0  0  0
    1.5478   -4.3228    0.4341 H   0  0  0  0  0  0  0  0  0  0  0  0
    0.9039   -2.9030   -0.3880 H   0  0  0  0  0  0  0  0  0  0  0  0
    1.6326    1.8715    2.0643 N   0  0  0  0  0  0  0  0  0  0  0  0
    1.7683    3.2938    2.4442 C   0  0  2  0  0  0  0  0  0  0  0  0
    0.4565    3.9990    2.8613 C   0  0  0  0  0  0  0  0  0  0  0  0
    0.4435    4.6905    3.8717 O   0  0  0  0  0  0  0  0  0  0  0  0
    2.4916    4.0893    1.3490 C   0  0  0  0  0  0  0  0  0  0  0  0
    2.2062    1.2059    2.5740 H   0  0  0  0  0  0  0  0  0  0  0  0
    2.4116    3.3195    3.3297 H   0  0  0  0  0  0  0  0  0  0  0  0
    1.8679    4.1948    0.4565 H   0  0  0  0  0  0  0  0  0  0  0  0
    2.7352    5.0918    1.7146 H   0  0  0  0  0  0  0  0  0  0  0  0
    3.4223    3.5878    1.0667 H   0  0  0  0  0  0  0  0  0  0  0  0
   -0.6968    3.8826    2.1124 N   0  0  0  0  0  0  0  0  0  0  0  0
   -1.9379    4.5843    2.4063 C   0  0  0  0  0  0  0  0  0  0  0  0
   -0.6160    3.3408    1.2473 H   0  0  0  0  0  0  0  0  0  0  0  0
   -1.7892    5.6671    2.3406 H   0  0  0  0  0  0  0  0  0  0  0  0
   -2.7124    4.2959    1.6890 H   0  0  0  0  0  0  0  0  0  0  0  0
   -2.2902    4.3365    3.4131 H   0  0  0  0  0  0  0  0  0  0  0  0
  1  2  2  0  0  0  0
  1  3  1  0  0  0  0
  1  7  1  0  0  0  0
  3  4  1  0  0  0  0
  3  5  1  0  0  0  0
  3  6  1  0  0  0  0
  7  8  1  0  0  0  0
  7 12  1  0  0  0  0
  8  9  1  0  0  0  0
  8 11  1  0  0  0  0
  8 13  1  0  0  0  0
  9 10  2  0  0  0  0
  9 17  1  0  0  0  0
 11 14  1  0  0  0  0
 11 15  1  0  0  0  0
 11 16  1  0  0  0  0
 17 18  1  0  0  0  0
 17 25  1  0  0  0  0
 18 19  1  0  0  0  0
 18 21  1  0  0  0  0
 18 26  1  0  0  0  0
 19 20  2  0  0  0  0
 19 36  1  0  0  0  0
 21 22  1  0  0  0  0
 21 27  1  0  0  0  0
 21 28  1  0  0  0  0
 22 23  1  0  0  0  0
 22 24  1  0  0  0  0
 22 29  1  0  0  0  0
 23 30  1  0  0  0  0
 23 31  1  0  0  0  0
 23 32  1  0  0  0  0
 24 33  1  0  0  0  0
 24 34  1  0  0  0  0
 24 35  1  0  0  0  0
 36 37  1  0  0  0  0
 36 41  1  0  0  0  0
 37 38  1  0  0  0  0
 37 40  1  0  0  0  0
 37 42  1  0  0  0  0
 38 39  2  0  0  0  0
 38 46  1  0  0  0  0
 40 43  1  0  0  0  0
 40 44  1  0  0  0  0
 40 45  1  0  0  0  0
 46 47  1  0  0  0  0
 46 48  1  0  0  0  0
 47 49  1  0  0  0  0
 47 50  1  0  0  0  0
 47 51  1  0  0  0  0
M  END
$$$$

  -OEChem-05262216553D

 51 50  0     1  0  0  0  0  0999 V2000
    0.8396   -2.5932   -3.2688 C   0  0  0  0  0  0  0  0  0  0  0  0
    0.0004   -1.7869   -2.9005 O   0  0  0  0  0  0  0  0  0  0  0  0
    0.4081   -3.9864   -3.6856 C   0  0  0  0  0  0  0  0  0  0  0  0
    0.8735   -4.7314   -3.0356 H   0  0  0  0  0  0  0  0  0  0  0  0
   -0.6787   -4.0833   -3.6089 H   0  0  0  0  0  0  0  0  0  0  0  0
    0.7050   -4.1770   -4.7198 H   0  0  0  0  0  0  0  0  0  0  0  0
    2.1850   -2.2747   -3.2584 N   0  0  0  0  0  0  0  0  0  0  0  0
    2.7854   -0.9718   -2.9031 C   0  0  2  0  0  0  0  0  0  0  0  0
    2.6196   -0.5602   -1.4218 C   0  0  0  0  0  0  0  0  0  0  0  0
    3.6190   -0.2990   -0.7653 O   0  0  0  0  0  0  0  0  0  0  0  0
    2.2866    0.1380   -3.8397 C   0  0  0  0  0  0  0  0  0  0  0  0
    2.8175   -3.0164   -3.5458 H   0  0  0  0  0  0  0  0  0  0  0  0
    3.8641   -1.0634   -3.0679 H   0  0  0  0  0  0  0  0  0  0  0  0
    1.2235    0.3440   -3.6847 H   0  0  0  0  0  0  0  0  0  0  0  0
    2.8418    1.0627   -3.6533 H   0  0  0  0  0  0  0  0  0  0  0  0
    2.4366   -0.1506   -4.8842 H   0  0  0  0  0  0  0  0  0  0  0  0
    1.3668   -0.3973   -0.8610 N   0  0  0  0  0  0  0  0  0  0  0  0
    1.0624   -0.1496    0.5603 C   0  0  2  0  0  0  0  0  0  0  0  0
    1.0455    1.3709    0.8309 C   0  0  0  0  0  0  0  0  0  0  0  0
    0.1814    2.0636    0.3063 O   0  0  0  0  0  0  0  0  0  0  0  0
    1.8288   -0.9773    1.6316 C   0  0  0  0  0  0  0  0  0  0  0  0
    1.5446   -2.5004    1.6630 C   0  0  0  0  0  0  0  0  0  0  0  0
    2.4970   -3.1505    2.6751 C   0  0  0  0  0  0  0  0  0  0  0  0
    1.7039   -3.2281    0.3227 C   0  0  0  0  0  0  0  0  0  0  0  0
    0.5874   -0.6329   -1.4833 H   0  0  0  0  0  0  0  0  0  0  0  0
    0.0177   -0.4507    0.6879 H   0  0  0  0  0  0  0  0  0  0  0  0
    1.5542   -0.5862    2.6170 H   0  0  0  0  0  0  0  0  0  0  0  0
    2.9041   -0.8172    1.5190 H   0  0  0  0  0  0  0  0  0  0  0  0
    0.5145   -2.6495    2.0042 H   0  0  0  0  0  0  0  0  0  0  0  0
    3.5373   -3.0470    2.3495 H   0  0  0  0  0  0  0  0  0  0  0  0
    2.2715   -4.2159    2.7847 H   0  0  0  0  0  0  0  0  0  0  0  0
    2.3914   -2.6779    3.6567 H   0  0  0  0  0  0  0  0  0  0  0  0
    2.6875   -3.0288   -0.1125 H   0  0  0  0  0  0  0  0  0  0  0  0
    1.6030   -4.3088    0.4618 H   0  0  0  0  0  0  0  0  0  0  0  0
    0.9270   -2.9147   -0.3782 H   0  0  0  0  0  0  0  0  0  0  0  0
    1.9211    1.9327    1.7473 N   0  0  0  0  0  0  0  0  0  0  0  0
    2.0812    3.3657    2.0695 C   0  0  2  0  0  0  0  0  0  0  0  0
    0.9027    4.0030    2.8410 C   0  0  0  0  0  0  0  0  0  0  0  0
    1.1318    4.6854    3.8314 O   0  0  0  0  0  0  0  0  0  0  0  0
    2.4127    4.1791    0.8109 C   0  0  0  0  0  0  0  0  0  0  0  0
    2.6633    1.3085    2.0529 H   0  0  0  0  0  0  0  0  0  0  0  0
    2.9473    3.4420    2.7345 H   0  0  0  0  0  0  0  0  0  0  0  0
    1.5515    4.2390    0.1389 H   0  0  0  0  0  0  0  0  0  0  0  0
    2.6987    5.1984    1.0888 H   0  0  0  0  0  0  0  0  0  0  0  0
    3.2459    3.7202    0.2698 H   0  0  0  0  0  0  0  0  0  0  0  0
   -0.4035    3.8351    2.4286 N   0  0  0  0  0  0  0  0  0  0  0  0
   -1.5522    4.4499    3.0780 C   0  0  0  0  0  0  0  0  0  0  0  0
   -0.5379    3.2875    1.5738 H   0  0  0  0  0  0  0  0  0  0  0  0
   -1.4696    5.5413    3.0483 H   0  0  0  0  0  0  0  0  0  0  0  0
   -2.4746    4.1577    2.5670 H   0  0  0  0  0  0  0  0  0  0  0  0
   -1.6183    4.1290    4.1226 H   0  0  0  0  0  0  0  0  0  0  0  0
  1  2  2  0  0  0  0
  1  3  1  0  0  0  0
  1  7  1  0  0  0  0
  3  4  1  0  0  0  0
  3  5  1  0  0  0  0
  3  6  1  0  0  0  0
  7  8  1  0  0  0  0
  7 12  1  0  0  0  0
  8  9  1  0  0  0  0
  8 11  1  0  0  0  0
  8 13  1  0  0  0  0
  9 10  2  0  0  0  0
  9 17  1  0  0  0  0
 11 14  1  0  0  0  0
 11 15  1  0  0  0  0
 11 16  1  0  0  0  0
 17 18  1  0  0  0  0
 17 25  1  0  0  0  0
 18 19  1  0  0  0  0
 18 21  1  0  0  0  0
 18 26  1  0  0  0  0
 19 20  2  0  0  0  0
 19 36  1  0  0  0  0
 21 22  1  0  0  0  0
 21 27  1  0  0  0  0
 21 28  1  0  0  0  0
 22 23  1  0  0  0  0
 22 24  1  0  0  0  0
 22 29  1  0  0  0  0
 23 30  1  0  0  0  0
 23 31  1  0  0  0  0
 23 32  1  0  0  0  0
 24 33  1  0  0  0  0
 24 34  1  0  0  0  0
 24 35  1  0  0  0  0
 36 37  1  0  0  0  0
 36 41  1  0  0  0  0
 37 38  1  0  0  0  0
 37 40  1  0  0  0  0
 37 42  1  0  0  0  0
 38 39  2  0  0  0  0
 38 46  1  0  0  0  0
 40 43  1  0  0  0  0
 40 44  1  0  0  0  0
 40 45  1  0  0  0  0
 46 47  1  0  0  0  0
 46 48  1  0  0  0  0
 47 49  1  0  0  0  0
 47 50  1  0  0  0  0
 47 51  1  0  0  0  0
M  END
$$$$

  -OEChem-05262216553D

 51 50  0     1  0  0  0  0  0999 V2000
    0.8434   -2.6402   -3.2842 C   0  0  0  0  0  0  0  0  0  0  0  0
    0.0089   -1.8273   -2.9203 O   0  0  0  0  0  0  0  0  0  0  0  0
    0.3998   -4.0158   -3.7448 C   0  0  0  0  0  0  0  0  0  0  0  0
    0.8550   -4.7855   -3.1168 H   0  0  0  0  0  0  0  0  0  0  0  0
   -0.6885   -4.1043   -3.6769 H   0  0  0  0  0  0  0  0  0  0  0  0
    0.7005   -4.1771   -4.7829 H   0  0  0  0  0  0  0  0  0  0  0  0
    2.1928   -2.3419   -3.2399 N   0  0  0  0  0  0  0  0  0  0  0  0
    2.8048   -1.0435   -2.8863 C   0  0  2  0  0  0  0  0  0  0  0  0
    2.6164   -0.6034   -1.4162 C   0  0  0  0  0  0  0  0  0  0  0  0
    3.6002   -0.2835   -0.7612 O   0  0  0  0  0  0  0  0  0  0  0  0
    2.3412    0.0610   -3.8467 C   0  0  0  0  0  0  0  0  0  0  0  0
    2.8188   -3.0863   -3.5348 H   0  0  0  0  0  0  0  0  0  0  0  0
    3.8850   -1.1543   -3.0272 H   0  0  0  0  0  0  0  0  0  0  0  0
    1.2782    0.2840   -3.7143 H   0  0  0  0  0  0  0  0  0  0  0  0
    2.9060    0.9801   -3.6610 H   0  0  0  0  0  0  0  0  0  0  0  0
    2.5068   -0.2428   -4.8846 H   0  0  0  0  0  0  0  0  0  0  0  0
    1.3566   -0.4540   -0.8684 N   0  0  0  0  0  0  0  0  0  0  0  0
    1.0424   -0.1992    0.5485 C   0  0  2  0  0  0  0  0  0  0  0  0
    1.0062    1.3218    0.7960 C   0  0  0  0  0  0  0  0  0  0  0  0
    0.0169    1.9643    0.4656 O   0  0  0  0  0  0  0  0  0  0  0  0
    1.8230   -0.9918    1.6354 C   0  0  0  0  0  0  0  0  0  0  0  0
    1.5768   -2.5215    1.6862 C   0  0  0  0  0  0  0  0  0  0  0  0
    2.5382   -3.1363    2.7120 C   0  0  0  0  0  0  0  0  0  0  0  0
    1.7645   -3.2617    0.3561 C   0  0  0  0  0  0  0  0  0  0  0  0
    0.5857   -0.7220   -1.4887 H   0  0  0  0  0  0  0  0  0  0  0  0
    0.0028   -0.5175    0.6772 H   0  0  0  0  0  0  0  0  0  0  0  0
    1.5366   -0.5871    2.6121 H   0  0  0  0  0  0  0  0  0  0  0  0
    2.8948   -0.8098    1.5256 H   0  0  0  0  0  0  0  0  0  0  0  0
    0.5484   -2.6919    2.0229 H   0  0  0  0  0  0  0  0  0  0  0  0
    3.5778   -3.0090    2.3934 H   0  0  0  0  0  0  0  0  0  0  0  0
    2.3399   -4.2062    2.8301 H   0  0  0  0  0  0  0  0  0  0  0  0
    2.4128   -2.6574    3.6883 H   0  0  0  0  0  0  0  0  0  0  0  0
    2.7478   -3.0455   -0.0715 H   0  0  0  0  0  0  0  0  0  0  0  0
    1.6870   -4.3426    0.5078 H   0  0  0  0  0  0  0  0  0  0  0  0
    0.9879   -2.9749   -0.3565 H   0  0  0  0  0  0  0  0  0  0  0  0
    2.0563    1.9378    1.4571 N   0  0  0  0  0  0  0  0  0  0  0  0
    2.2517    3.3881    1.6636 C   0  0  2  0  0  0  0  0  0  0  0  0
    1.2618    4.0647    2.6407 C   0  0  0  0  0  0  0  0  0  0  0  0
    1.6886    4.8485    3.4792 O   0  0  0  0  0  0  0  0  0  0  0  0
    2.2809    4.1296    0.3202 C   0  0  0  0  0  0  0  0  0  0  0  0
    2.8799    1.3474    1.5553 H   0  0  0  0  0  0  0  0  0  0  0  0
    3.2416    3.5082    2.1162 H   0  0  0  0  0  0  0  0  0  0  0  0
    1.2948    4.1318   -0.1533 H   0  0  0  0  0  0  0  0  0  0  0  0
    2.5872    5.1692    0.4731 H   0  0  0  0  0  0  0  0  0  0  0  0
    2.9936    3.6540   -0.3603 H   0  0  0  0  0  0  0  0  0  0  0  0
   -0.0971    3.8335    2.5702 N   0  0  0  0  0  0  0  0  0  0  0  0
   -1.0861    4.5124    3.3949 C   0  0  0  0  0  0  0  0  0  0  0  0
   -0.4088    3.2269    1.8066 H   0  0  0  0  0  0  0  0  0  0  0  0
   -1.0829    5.5875    3.1877 H   0  0  0  0  0  0  0  0  0  0  0  0
   -2.0856    4.1207    3.1832 H   0  0  0  0  0  0  0  0  0  0  0  0
   -0.8724    4.3565    4.4575 H   0  0  0  0  0  0  0  0  0  0  0  0
  1  2  2  0  0  0  0
  1  3  1  0  0  0  0
  1  7  1  0  0  0  0
  3  4  1  0  0  0  0
  3  5  1  0  0  0  0
  3  6  1  0  0  0  0
  7  8  1  0  0  0  0
  7 12  1  0  0  0  0
  8  9  1  0  0  0  0
  8 11  1  0  0  0  0
  8 13  1  0  0  0  0
  9 10  2  0  0  0  0
  9 17  1  0  0  0  0
 11 14  1  0  0  0  0
 11 15  1  0  0  0  0
 11 16  1  0  0  0  0
 17 18  1  0  0  0  0
 17 25  1  0  0  0  0
 18 19  1  0  0  0  0
 18 21  1  0  0  0  0
 18 26  1  0  0  0  0
 19 20  2  0  0  0  0
 19 36  1  0  0  0  0
 21 22  1  0  0  0  0
 21 27  1  0  0  0  0
 21 28  1  0  0  0  0
 22 23  1  0  0  0  0
 22 24  1  0  0  0  0
 22 29  1  0  0  0  0
 23 30  1  0  0  0  0
 23 31  1  0  0  0  0
 23 32  1  0  0  0  0
 24 33  1  0  0  0  0
 24 34  1  0  0  0  0
 24 35  1  0  0  0  0
 36 37  1  0  0  0  0
 36 41  1  0  0  0  0
 37 38  1  0  0  0  0
 37 40  1  0  0  0  0
 37 42  1  0  0  0  0
 38 39  2  0  0  0  0
 38 46  1  0  0  0  0
 40 43  1  0  0  0  0
 40 44  1  0  0  0  0
 40 45  1  0  0  0  0
 46 47  1  0  0  0  0
 46 48  1  0  0  0  0
 47 49  1  0  0  0  0
 47 50  1  0  0  0  0
 47 51  1  0  0  0  0
M  END
$$$$

  -OEChem-05262216553D

 51 50  0     1  0  0  0  0  0999 V2000
    2.3872   -3.2496   -3.3445 C   0  0  0  0  0  0  0  0  0  0  0  0
    1.3516   -3.6771   -2.8628 O   0  0  0  0  0  0  0  0  0  0  0  0
    3.5315   -4.2061   -3.6232 C   0  0  0  0  0  0  0  0  0  0  0  0
    4.4090   -3.9172   -3.0393 H   0  0  0  0  0  0  0  0  0  0  0  0
    3.2468   -5.2258   -3.3482 H   0  0  0  0  0  0  0  0  0  0  0  0
    3.7855   -4.1869   -4.6857 H   0  0  0  0  0  0  0  0  0  0  0  0
    2.5505   -1.9052   -3.6207 N   0  0  0  0  0  0  0  0  0  0  0  0
    1.6442   -0.8260   -3.1840 C   0  0  2  0  0  0  0  0  0  0  0  0
    1.7217   -0.5658   -1.6594 C   0  0  0  0  0  0  0  0  0  0  0  0
    2.8259   -0.4510   -1.1385 O   0  0  0  0  0  0  0  0  0  0  0  0
    0.2089   -1.0305   -3.7027 C   0  0  0  0  0  0  0  0  0  0  0  0
    3.5013   -1.6330   -3.8542 H   0  0  0  0  0  0  0  0  0  0  0  0
    2.0045    0.0941   -3.6541 H   0  0  0  0  0  0  0  0  0  0  0  0
   -0.3112   -1.8144   -3.1442 H   0  0  0  0  0  0  0  0  0  0  0  0
   -0.3651   -0.1039   -3.6069 H   0  0  0  0  0  0  0  0  0  0  0  0
    0.2266   -1.3130   -4.7598 H   0  0  0  0  0  0  0  0  0  0  0  0
    0.6049   -0.1861   -0.9328 N   0  0  0  0  0  0  0  0  0  0  0  0
    0.5633    0.0719    0.5205 C   0  0  2  0  0  0  0  0  0  0  0  0
    0.8788    1.5560    0.7722 C   0  0  0  0  0  0  0  0  0  0  0  0
   -0.0325    2.3704    0.8540 O   0  0  0  0  0  0  0  0  0  0  0  0
    1.3190   -0.8740    1.4953 C   0  0  0  0  0  0  0  0  0  0  0  0
    0.7961   -2.3279    1.5960 C   0  0  0  0  0  0  0  0  0  0  0  0
    1.7558   -3.1291    2.4855 C   0  0  0  0  0  0  0  0  0  0  0  0
    0.6736   -3.0652    0.2593 C   0  0  0  0  0  0  0  0  0  0  0  0
   -0.2841   -0.2606   -1.4198 H   0  0  0  0  0  0  0  0  0  0  0  0
   -0.4879   -0.0397    0.8057 H   0  0  0  0  0  0  0  0  0  0  0  0
    1.2573   -0.4361    2.4976 H   0  0  0  0  0  0  0  0  0  0  0  0
    2.3799   -0.8997    1.2341 H   0  0  0  0  0  0  0  0  0  0  0  0
   -0.1926   -2.3090    2.0666 H   0  0  0  0  0  0  0  0  0  0  0  0
    2.7487   -3.1906    2.0280 H   0  0  0  0  0  0  0  0  0  0  0  0
    1.3798   -4.1457    2.6363 H   0  0  0  0  0  0  0  0  0  0  0  0
    1.8539   -2.6539    3.4664 H   0  0  0  0  0  0  0  0  0  0  0  0
    1.6244   -3.0323   -0.2802 H   0  0  0  0  0  0  0  0  0  0  0  0
    0.4099   -4.1146    0.4239 H   0  0  0  0  0  0  0  0  0  0  0  0
   -0.1102   -2.6254   -0.3623 H   0  0  0  0  0  0  0  0  0  0  0  0
    2.1972    1.9329    0.9585 N   0  0  0  0  0  0  0  0  0  0  0  0
    2.7225    3.3041    1.1154 C   0  0  2  0  0  0  0  0  0  0  0  0
    2.3351    4.0152    2.4330 C   0  0  0  0  0  0  0  0  0  0  0  0
    3.1931    4.6201    3.0633 O   0  0  0  0  0  0  0  0  0  0  0  0
    2.3578    4.1711   -0.0968 C   0  0  0  0  0  0  0  0  0  0  0  0
    2.8689    1.2028    0.7173 H   0  0  0  0  0  0  0  0  0  0  0  0
    3.8141    3.2209    1.1329 H   0  0  0  0  0  0  0  0  0  0  0  0
    1.2849    4.3825   -0.1239 H   0  0  0  0  0  0  0  0  0  0  0  0
    2.8921    5.1251   -0.0472 H   0  0  0  0  0  0  0  0  0  0  0  0
    2.6379    3.6648   -1.0254 H   0  0  0  0  0  0  0  0  0  0  0  0
    1.0364    4.0115    2.9020 N   0  0  0  0  0  0  0  0  0  0  0  0
    0.5995    4.7157    4.0992 C   0  0  0  0  0  0  0  0  0  0  0  0
    0.3446    3.5451    2.3090 H   0  0  0  0  0  0  0  0  0  0  0  0
    0.7484    5.7942    3.9841 H   0  0  0  0  0  0  0  0  0  0  0  0
   -0.4634    4.5290    4.2794 H   0  0  0  0  0  0  0  0  0  0  0  0
    1.1635    4.3722    4.9727 H   0  0  0  0  0  0  0  0  0  0  0  0
  1  2  2  0  0  0  0
  1  3  1  0  0  0  0
  1  7  1  0  0  0  0
  3  4  1  0  0  0  0
  3  5  1  0  0  0  0
  3  6  1  0  0  0  0
  7  8  1  0  0  0  0
  7 12  1  0  0  0  0
  8  9  1  0  0  0  0
  8 11  1  0  0  0  0
  8 13  1  0  0  0  0
  9 10  2  0  0  0  0
  9 17  1  0  0  0  0
 11 14  1  0  0  0  0
 11 15  1  0  0  0  0
 11 16  1  0  0  0  0
 17 18  1  0  0  0  0
 17 25  1  0  0  0  0
 18 19  1  0  0  0  0
 18 21  1  0  0  0  0
 18 26  1  0  0  0  0
 19 20  2  0  0  0  0
 19 36  1  0  0  0  0
 21 22  1  0  0  0  0
 21 27  1  0  0  0  0
 21 28  1  0  0  0  0
 22 23  1  0  0  0  0
 22 24  1  0  0  0  0
 22 29  1  0  0  0  0
 23 30  1  0  0  0  0
 23 31  1  0  0  0  0
 23 32  1  0  0  0  0
 24 33  1  0  0  0  0
 24 34  1  0  0  0  0
 24 35  1  0  0  0  0
 36 37  1  0  0  0  0
 36 41  1  0  0  0  0
 37 38  1  0  0  0  0
 37 40  1  0  0  0  0
 37 42  1  0  0  0  0
 38 39  2  0  0  0  0
 38 46  1  0  0  0  0
 40 43  1  0  0  0  0
 40 44  1  0  0  0  0
 40 45  1  0  0  0  0
 46 47  1  0  0  0  0
 46 48  1  0  0  0  0
 47 49  1  0  0  0  0
 47 50  1  0  0  0  0
 47 51  1  0  0  0  0
M  END
$$$$

  -OEChem-05262216553D

 51 50  0     1  0  0  0  0  0999 V2000
    2.7811   -3.1072   -3.3248 C   0  0  0  0  0  0  0  0  0  0  0  0
    1.9732   -3.7872   -2.7153 O   0  0  0  0  0  0  0  0  0  0  0  0
    4.1372   -3.6919   -3.6733 C   0  0  0  0  0  0  0  0  0  0  0  0
    4.9283   -3.1084   -3.1954 H   0  0  0  0  0  0  0  0  0  0  0  0
    4.2041   -4.7261   -3.3238 H   0  0  0  0  0  0  0  0  0  0  0  0
    4.2852   -3.6766   -4.7557 H   0  0  0  0  0  0  0  0  0  0  0  0
    2.4964   -1.8055   -3.6937 N   0  0  0  0  0  0  0  0  0  0  0  0
    1.3629   -1.0054   -3.1898 C   0  0  2  0  0  0  0  0  0  0  0  0
    1.5117   -0.6212   -1.6960 C   0  0  0  0  0  0  0  0  0  0  0  0
    2.6314   -0.4229   -1.2341 O   0  0  0  0  0  0  0  0  0  0  0  0
    0.0085   -1.6612   -3.5128 C   0  0  0  0  0  0  0  0  0  0  0  0
    3.2950   -1.2870   -4.0472 H   0  0  0  0  0  0  0  0  0  0  0  0
    1.3810   -0.0588   -3.7385 H   0  0  0  0  0  0  0  0  0  0  0  0
   -0.1907   -2.5106   -2.8532 H   0  0  0  0  0  0  0  0  0  0  0  0
   -0.8040   -0.9387   -3.3934 H   0  0  0  0  0  0  0  0  0  0  0  0
   -0.0007   -2.0172   -4.5477 H   0  0  0  0  0  0  0  0  0  0  0  0
    0.4245   -0.1706   -0.9640 N   0  0  0  0  0  0  0  0  0  0  0  0
    0.4337    0.1212    0.4853 C   0  0  2  0  0  0  0  0  0  0  0  0
    0.8281    1.5901    0.7127 C   0  0  0  0  0  0  0  0  0  0  0  0
   -0.0077    2.4051    1.0828 O   0  0  0  0  0  0  0  0  0  0  0  0
    1.1734   -0.8438    1.4504 C   0  0  0  0  0  0  0  0  0  0  0  0
    0.5852   -2.2699    1.5912 C   0  0  0  0  0  0  0  0  0  0  0  0
    1.5337   -3.1035    2.4628 C   0  0  0  0  0  0  0  0  0  0  0  0
    0.3716   -3.0215    0.2741 C   0  0  0  0  0  0  0  0  0  0  0  0
   -0.4825   -0.3044   -1.4021 H   0  0  0  0  0  0  0  0  0  0  0  0
   -0.6135    0.0644    0.7999 H   0  0  0  0  0  0  0  0  0  0  0  0
    1.1682   -0.3874    2.4465 H   0  0  0  0  0  0  0  0  0  0  0  0
    2.2220   -0.9237    1.1522 H   0  0  0  0  0  0  0  0  0  0  0  0
   -0.3830   -2.1938    2.0973 H   0  0  0  0  0  0  0  0  0  0  0  0
    2.5043   -3.2261    1.9707 H   0  0  0  0  0  0  0  0  0  0  0  0
    1.1116   -4.0963    2.6479 H   0  0  0  0  0  0  0  0  0  0  0  0
    1.6932   -2.6153    3.4293 H   0  0  0  0  0  0  0  0  0  0  0  0
    1.2996   -3.0462   -0.3024 H   0  0  0  0  0  0  0  0  0  0  0  0
    0.0628   -4.0533    0.4684 H   0  0  0  0  0  0  0  0  0  0  0  0
   -0.4139   -2.5513   -0.3218 H   0  0  0  0  0  0  0  0  0  0  0  0
    2.1563    1.9421    0.5506 N   0  0  0  0  0  0  0  0  0  0  0  0
    2.7444    3.2954    0.6130 C   0  0  2  0  0  0  0  0  0  0  0  0
    2.7505    3.9533    2.0121 C   0  0  0  0  0  0  0  0  0  0  0  0
    3.7417    4.5696    2.3822 O   0  0  0  0  0  0  0  0  0  0  0  0
    2.0851    4.2243   -0.4148 C   0  0  0  0  0  0  0  0  0  0  0  0
    2.7274    1.1999    0.1360 H   0  0  0  0  0  0  0  0  0  0  0  0
    3.7967    3.1933    0.3279 H   0  0  0  0  0  0  0  0  0  0  0  0
    1.0489    4.4434   -0.1410 H   0  0  0  0  0  0  0  0  0  0  0  0
    2.6310    5.1717   -0.4672 H   0  0  0  0  0  0  0  0  0  0  0  0
    2.0953    3.7626   -1.4066 H   0  0  0  0  0  0  0  0  0  0  0  0
    1.6437    3.9046    2.8357 N   0  0  0  0  0  0  0  0  0  0  0  0
    1.5471    4.5986    4.1118 C   0  0  0  0  0  0  0  0  0  0  0  0
    0.8106    3.4617    2.4392 H   0  0  0  0  0  0  0  0  0  0  0  0
    1.6416    5.6799    3.9674 H   0  0  0  0  0  0  0  0  0  0  0  0
    0.5789    4.3942    4.5789 H   0  0  0  0  0  0  0  0  0  0  0  0
    2.3371    4.2624    4.7914 H   0  0  0  0  0  0  0  0  0  0  0  0
  1  2  2  0  0  0  0
  1  3  1  0  0  0  0
  1  7  1  0  0  0  0
  3  4  1  0  0  0  0
  3  5  1  0  0  0  0
  3  6  1  0  0  0  0
  7  8  1  0  0  0  0
  7 12  1  0  0  0  0
  8  9  1  0  0  0  0
  8 11  1  0  0  0  0
  8 13  1  0  0  0  0
  9 10  2  0  0  0  0
  9 17  1  0  0  0  0
 11 14  1  0  0  0  0
 11 15  1  0  0  0  0
 11 16  1  0  0  0  0
 17 18  1  0  0  0  0
 17 25  1  0  0  0  0
 18 19  1  0  0  0  0
 18 21  1  0  0  0  0
 18 26  1  0  0  0  0
 19 20  2  0  0  0  0
 19 36  1  0  0  0  0
 21 22  1  0  0  0  0
 21 27  1  0  0  0  0
 21 28  1  0  0  0  0
 22 23  1  0  0  0  0
 22 24  1  0  0  0  0
 22 29  1  0  0  0  0
 23 30  1  0  0  0  0
 23 31  1  0  0  0  0
 23 32  1  0  0  0  0
 24 33  1  0  0  0  0
 24 34  1  0  0  0  0
 24 35  1  0  0  0  0
 36 37  1  0  0  0  0
 36 41  1  0  0  0  0
 37 38  1  0  0  0  0
 37 40  1  0  0  0  0
 37 42  1  0  0  0  0
 38 39  2  0  0  0  0
 38 46  1  0  0  0  0
 40 43  1  0  0  0  0
 40 44  1  0  0  0  0
 40 45  1  0  0  0  0
 46 47  1  0  0  0  0
 46 48  1  0  0  0  0
 47 49  1  0  0  0  0
 47 50  1  0  0  0  0
 47 51  1  0  0  0  0
M  END
$$$$

  -OEChem-05262216553D

 51 50  0     1  0  0  0  0  0999 V2000
    2.8496   -3.1186   -3.3191 C   0  0  0  0  0  0  0  0  0  0  0  0
    2.1175   -3.8161   -2.6375 O   0  0  0  0  0  0  0  0  0  0  0  0
    4.2223   -3.6328   -3.7099 C   0  0  0  0  0  0  0  0  0  0  0  0
    4.9950   -2.9628   -3.3245 H   0  0  0  0  0  0  0  0  0  0  0  0
    4.3842   -4.6311   -3.2938 H   0  0  0  0  0  0  0  0  0  0  0  0
    4.3050   -3.6874   -4.7979 H   0  0  0  0  0  0  0  0  0  0  0  0
    2.4607   -1.8604   -3.7395 N   0  0  0  0  0  0  0  0  0  0  0  0
    1.2949   -1.1153   -3.2255 C   0  0  2  0  0  0  0  0  0  0  0  0
    1.4652   -0.6606   -1.7541 C   0  0  0  0  0  0  0  0  0  0  0  0
    2.5863   -0.4012   -1.3290 O   0  0  0  0  0  0  0  0  0  0  0  0
   -0.0207   -1.8745   -3.4732 C   0  0  0  0  0  0  0  0  0  0  0  0
    3.2059   -1.3093   -4.1553 H   0  0  0  0  0  0  0  0  0  0  0  0
    1.2307   -0.1938   -3.8118 H   0  0  0  0  0  0  0  0  0  0  0  0
   -0.1379   -2.7080   -2.7747 H   0  0  0  0  0  0  0  0  0  0  0  0
   -0.8774   -1.2051   -3.3538 H   0  0  0  0  0  0  0  0  0  0  0  0
   -0.0393   -2.2734   -4.4921 H   0  0  0  0  0  0  0  0  0  0  0  0
    0.3801   -0.2001   -1.0252 N   0  0  0  0  0  0  0  0  0  0  0  0
    0.3909    0.1475    0.4139 C   0  0  2  0  0  0  0  0  0  0  0  0
    0.7596    1.6283    0.6050 C   0  0  0  0  0  0  0  0  0  0  0  0
    0.0064    2.3794    1.2116 O   0  0  0  0  0  0  0  0  0  0  0  0
    1.1617   -0.7631    1.4053 C   0  0  0  0  0  0  0  0  0  0  0  0
    0.6128   -2.1978    1.6036 C   0  0  0  0  0  0  0  0  0  0  0  0
    1.5895   -2.9743    2.4962 C   0  0  0  0  0  0  0  0  0  0  0  0
    0.4083   -3.0023    0.3171 C   0  0  0  0  0  0  0  0  0  0  0  0
   -0.5273   -0.3888   -1.4414 H   0  0  0  0  0  0  0  0  0  0  0  0
   -0.6531    0.0798    0.7367 H   0  0  0  0  0  0  0  0  0  0  0  0
    1.1569   -0.2724    2.3847 H   0  0  0  0  0  0  0  0  0  0  0  0
    2.2087   -0.8248    1.0959 H   0  0  0  0  0  0  0  0  0  0  0  0
   -0.3530   -2.1295    2.1153 H   0  0  0  0  0  0  0  0  0  0  0  0
    2.5609   -3.0867    2.0035 H   0  0  0  0  0  0  0  0  0  0  0  0
    1.1954   -3.9712    2.7177 H   0  0  0  0  0  0  0  0  0  0  0  0
    1.7398   -2.4491    3.4445 H   0  0  0  0  0  0  0  0  0  0  0  0
    1.3296   -3.0175   -0.2702 H   0  0  0  0  0  0  0  0  0  0  0  0
    0.1355   -4.0362    0.5509 H   0  0  0  0  0  0  0  0  0  0  0  0
   -0.3996   -2.5781   -0.2833 H   0  0  0  0  0  0  0  0  0  0  0  0
    1.9861    2.0654    0.1385 N   0  0  0  0  0  0  0  0  0  0  0  0
    2.5351    3.4349    0.1720 C   0  0  2  0  0  0  0  0  0  0  0  0
    2.8770    3.9704    1.5815 C   0  0  0  0  0  0  0  0  0  0  0  0
    3.9175    4.5927    1.7527 O   0  0  0  0  0  0  0  0  0  0  0  0
    1.6105    4.4106   -0.5680 C   0  0  0  0  0  0  0  0  0  0  0  0
    2.5311    1.3427   -0.3428 H   0  0  0  0  0  0  0  0  0  0  0  0
    3.4818    3.4080   -0.3777 H   0  0  0  0  0  0  0  0  0  0  0  0
    0.6762    4.5619   -0.0194 H   0  0  0  0  0  0  0  0  0  0  0  0
    2.1025    5.3821   -0.6781 H   0  0  0  0  0  0  0  0  0  0  0  0
    1.3728    4.0281   -1.5650 H   0  0  0  0  0  0  0  0  0  0  0  0
    2.0132    3.7977    2.6447 N   0  0  0  0  0  0  0  0  0  0  0  0
    2.2286    4.3594    3.9703 C   0  0  0  0  0  0  0  0  0  0  0  0
    1.1163    3.3568    2.4253 H   0  0  0  0  0  0  0  0  0  0  0  0
    2.1947    5.4529    3.9311 H   0  0  0  0  0  0  0  0  0  0  0  0
    1.4522    4.0101    4.6578 H   0  0  0  0  0  0  0  0  0  0  0  0
    3.2020    4.0499    4.3650 H   0  0  0  0  0  0  0  0  0  0  0  0
  1  2  2  0  0  0  0
  1  3  1  0  0  0  0
  1  7  1  0  0  0  0
  3  4  1  0  0  0  0
  3  5  1  0  0  0  0
  3  6  1  0  0  0  0
  7  8  1  0  0  0  0
  7 12  1  0  0  0  0
  8  9  1  0  0  0  0
  8 11  1  0  0  0  0
  8 13  1  0  0  0  0
  9 10  2  0  0  0  0
  9 17  1  0  0  0  0
 11 14  1  0  0  0  0
 11 15  1  0  0  0  0
 11 16  1  0  0  0  0
 17 18  1  0  0  0  0
 17 25  1  0  0  0  0
 18 19  1  0  0  0  0
 18 21  1  0  0  0  0
 18 26  1  0  0  0  0
 19 20  2  0  0  0  0
 19 36  1  0  0  0  0
 21 22  1  0  0  0  0
 21 27  1  0  0  0  0
 21 28  1  0  0  0  0
 22 23  1  0  0  0  0
 22 24  1  0  0  0  0
 22 29  1  0  0  0  0
 23 30  1  0  0  0  0
 23 31  1  0  0  0  0
 23 32  1  0  0  0  0
 24 33  1  0  0  0  0
 24 34  1  0  0  0  0
 24 35  1  0  0  0  0
 36 37  1  0  0  0  0
 36 41  1  0  0  0  0
 37 38  1  0  0  0  0
 37 40  1  0  0  0  0
 37 42  1  0  0  0  0
 38 39  2  0  0  0  0
 38 46  1  0  0  0  0
 40 43  1  0  0  0  0
 40 44  1  0  0  0  0
 40 45  1  0  0  0  0
 46 47  1  0  0  0  0
 46 48  1  0  0  0  0
 47 49  1  0  0  0  0
 47 50  1  0  0  0  0
 47 51  1  0  0  0  0
M  END
$$$$

  -OEChem-05262216553D

 51 50  0     1  0  0  0  0  0999 V2000
    2.8116   -3.1857   -3.3129 C   0  0  0  0  0  0  0  0  0  0  0  0
    2.0647   -3.8731   -2.6372 O   0  0  0  0  0  0  0  0  0  0  0  0
    4.1897   -3.7091   -3.6705 C   0  0  0  0  0  0  0  0  0  0  0  0
    4.9559   -3.0189   -3.3084 H   0  0  0  0  0  0  0  0  0  0  0  0
    4.3533   -4.6875   -3.2099 H   0  0  0  0  0  0  0  0  0  0  0  0
    4.2808   -3.8102   -4.7546 H   0  0  0  0  0  0  0  0  0  0  0  0
    2.4359   -1.9306   -3.7541 N   0  0  0  0  0  0  0  0  0  0  0  0
    1.2684   -1.1707   -3.2673 C   0  0  2  0  0  0  0  0  0  0  0  0
    1.4410   -0.6694   -1.8115 C   0  0  0  0  0  0  0  0  0  0  0  0
    2.5543   -0.3364   -1.4210 O   0  0  0  0  0  0  0  0  0  0  0  0
   -0.0513   -1.9298   -3.4946 C   0  0  0  0  0  0  0  0  0  0  0  0
    3.1922   -1.3873   -4.1605 H   0  0  0  0  0  0  0  0  0  0  0  0
    1.2076   -0.2681   -3.8828 H   0  0  0  0  0  0  0  0  0  0  0  0
   -0.1760   -2.7391   -2.7695 H   0  0  0  0  0  0  0  0  0  0  0  0
   -0.9042   -1.2514   -3.4001 H   0  0  0  0  0  0  0  0  0  0  0  0
   -0.0692   -2.3609   -4.5004 H   0  0  0  0  0  0  0  0  0  0  0  0
    0.3497   -0.2330   -1.0780 N   0  0  0  0  0  0  0  0  0  0  0  0
    0.3565    0.1572    0.3523 C   0  0  2  0  0  0  0  0  0  0  0  0
    0.6627    1.6572    0.5163 C   0  0  0  0  0  0  0  0  0  0  0  0
    0.0247    2.3284    1.3175 O   0  0  0  0  0  0  0  0  0  0  0  0
    1.1862   -0.6871    1.3547 C   0  0  0  0  0  0  0  0  0  0  0  0
    0.7186   -2.1431    1.5989 C   0  0  0  0  0  0  0  0  0  0  0  0
    1.7490   -2.8399    2.4969 C   0  0  0  0  0  0  0  0  0  0  0  0
    0.5449   -2.9949    0.3385 C   0  0  0  0  0  0  0  0  0  0  0  0
   -0.5518   -0.4889   -1.4707 H   0  0  0  0  0  0  0  0  0  0  0  0
   -0.6796    0.0490    0.6891 H   0  0  0  0  0  0  0  0  0  0  0  0
    1.1667   -0.1729    2.3221 H   0  0  0  0  0  0  0  0  0  0  0  0
    2.2310   -0.7000    1.0315 H   0  0  0  0  0  0  0  0  0  0  0  0
   -0.2431   -2.1126    2.1219 H   0  0  0  0  0  0  0  0  0  0  0  0
    2.7195   -2.9061    1.9946 H   0  0  0  0  0  0  0  0  0  0  0  0
    1.4176   -3.8529    2.7460 H   0  0  0  0  0  0  0  0  0  0  0  0
    1.8788   -2.2849    3.4311 H   0  0  0  0  0  0  0  0  0  0  0  0
    1.4648   -2.9883   -0.2516 H   0  0  0  0  0  0  0  0  0  0  0  0
    0.3178   -4.0317    0.6059 H   0  0  0  0  0  0  0  0  0  0  0  0
   -0.2822   -2.6263   -0.2723 H   0  0  0  0  0  0  0  0  0  0  0  0
    1.6955    2.2122   -0.2182 N   0  0  0  0  0  0  0  0  0  0  0  0
    2.1850    3.6044   -0.1859 C   0  0  2  0  0  0  0  0  0  0  0  0
    2.8455    4.0310    1.1451 C   0  0  0  0  0  0  0  0  0  0  0  0
    3.9061    4.6421    1.1225 O   0  0  0  0  0  0  0  0  0  0  0  0
    1.0741    4.5870   -0.5789 C   0  0  0  0  0  0  0  0  0  0  0  0
    2.2431    1.5257   -0.7463 H   0  0  0  0  0  0  0  0  0  0  0  0
    2.9661    3.6810   -0.9492 H   0  0  0  0  0  0  0  0  0  0  0  0
    0.3012    4.6399    0.1933 H   0  0  0  0  0  0  0  0  0  0  0  0
    1.4920    5.5899   -0.7120 H   0  0  0  0  0  0  0  0  0  0  0  0
    0.6082    4.2778   -1.5192 H   0  0  0  0  0  0  0  0  0  0  0  0
    2.2507    3.7581    2.3607 N   0  0  0  0  0  0  0  0  0  0  0  0
    2.7951    4.1659    3.6476 C   0  0  0  0  0  0  0  0  0  0  0  0
    1.3353    3.3022    2.3210 H   0  0  0  0  0  0  0  0  0  0  0  0
    2.8586    5.2573    3.7071 H   0  0  0  0  0  0  0  0  0  0  0  0
    2.1513    3.8104    4.4576 H   0  0  0  0  0  0  0  0  0  0  0  0
    3.7957    3.7448    3.7907 H   0  0  0  0  0  0  0  0  0  0  0  0
  1  2  2  0  0  0  0
  1  3  1  0  0  0  0
  1  7  1  0  0  0  0
  3  4  1  0  0  0  0
  3  5  1  0  0  0  0
  3  6  1  0  0  0  0
  7  8  1  0  0  0  0
  7 12  1  0  0  0  0
  8  9  1  0  0  0  0
  8 11  1  0  0  0  0
  8 13  1  0  0  0  0
  9 10  2  0  0  0  0
  9 17  1  0  0  0  0
 11 14  1  0  0  0  0
 11 15  1  0  0  0  0
 11 16  1  0  0  0  0
 17 18  1  0  0  0  0
 17 25  1  0  0  0  0
 18 19  1  0  0  0  0
 18 21  1  0  0  0  0
 18 26  1  0  0  0  0
 19 20  2  0  0  0  0
 19 36  1  0  0  0  0
 21 22  1  0  0  0  0
 21 27  1  0  0  0  0
 21 28  1  0  0  0  0
 22 23  1  0  0  0  0
 22 24  1  0  0  0  0
 22 29  1  0  0  0  0
 23 30  1  0  0  0  0
 23 31  1  0  0  0  0
 23 32  1  0  0  0  0
 24 33  1  0  0  0  0
 24 34  1  0  0  0  0
 24 35  1  0  0  0  0
 36 37  1  0  0  0  0
 36 41  1  0  0  0  0
 37 38  1  0  0  0  0
 37 40  1  0  0  0  0
 37 42  1  0  0  0  0
 38 39  2  0  0  0  0
 38 46  1  0  0  0  0
 40 43  1  0  0  0  0
 40 44  1  0  0  0  0
 40 45  1  0  0  0  0
 46 47  1  0  0  0  0
 46 48  1  0  0  0  0
 47 49  1  0  0  0  0
 47 50  1  0  0  0  0
 47 51  1  0  0  0  0
M  END
$$$$

  -OEChem-05262216553D

 51 50  0     1  0  0  0  0  0999 V2000
    2.8852   -3.1535   -3.3111 C   0  0  0  0  0  0  0  0  0  0  0  0
    2.1894   -3.8689   -2.6107 O   0  0  0  0  0  0  0  0  0  0  0  0
    4.2788   -3.6136   -3.6957 C   0  0  0  0  0  0  0  0  0  0  0  0
    5.0237   -2.9199   -3.2975 H   0  0  0  0  0  0  0  0  0  0  0  0
    4.4732   -4.6097   -3.2882 H   0  0  0  0  0  0  0  0  0  0  0  0
    4.3723   -3.6546   -4.7835 H   0  0  0  0  0  0  0  0  0  0  0  0
    2.4348   -1.9263   -3.7611 N   0  0  0  0  0  0  0  0  0  0  0  0
    1.2347   -1.2226   -3.2676 C   0  0  2  0  0  0  0  0  0  0  0  0
    1.4072   -0.6767   -1.8278 C   0  0  0  0  0  0  0  0  0  0  0  0
    2.5080   -0.2766   -1.4687 O   0  0  0  0  0  0  0  0  0  0  0  0
   -0.0455   -2.0574   -3.4517 C   0  0  0  0  0  0  0  0  0  0  0  0
    3.1543   -1.3492   -4.1876 H   0  0  0  0  0  0  0  0  0  0  0  0
    1.1116   -0.3399   -3.9022 H   0  0  0  0  0  0  0  0  0  0  0  0
   -0.1081   -2.8626   -2.7145 H   0  0  0  0  0  0  0  0  0  0  0  0
   -0.9322   -1.4262   -3.3437 H   0  0  0  0  0  0  0  0  0  0  0  0
   -0.0645   -2.5030   -4.4511 H   0  0  0  0  0  0  0  0  0  0  0  0
    0.3148   -0.2474   -1.0922 N   0  0  0  0  0  0  0  0  0  0  0  0
    0.3308    0.1484    0.3383 C   0  0  2  0  0  0  0  0  0  0  0  0
    0.6263    1.6522    0.5122 C   0  0  0  0  0  0  0  0  0  0  0  0
    0.1528    2.2601    1.4640 O   0  0  0  0  0  0  0  0  0  0  0  0
    1.1719   -0.7014    1.3274 C   0  0  0  0  0  0  0  0  0  0  0  0
    0.7062   -2.1586    1.5728 C   0  0  0  0  0  0  0  0  0  0  0  0
    1.7477   -2.8596    2.4550 C   0  0  0  0  0  0  0  0  0  0  0  0
    0.5089   -3.0068    0.3143 C   0  0  0  0  0  0  0  0  0  0  0  0
   -0.5824   -0.5469   -1.4633 H   0  0  0  0  0  0  0  0  0  0  0  0
   -0.7018    0.0355    0.6832 H   0  0  0  0  0  0  0  0  0  0  0  0
    1.1669   -0.1923    2.2976 H   0  0  0  0  0  0  0  0  0  0  0  0
    2.2121   -0.7138    0.9892 H   0  0  0  0  0  0  0  0  0  0  0  0
   -0.2471   -2.1277    2.1112 H   0  0  0  0  0  0  0  0  0  0  0  0
    2.7085   -2.9352    1.9348 H   0  0  0  0  0  0  0  0  0  0  0  0
    1.4135   -3.8693    2.7141 H   0  0  0  0  0  0  0  0  0  0  0  0
    1.8985   -2.3015    3.3843 H   0  0  0  0  0  0  0  0  0  0  0  0
    1.4172   -2.9976   -0.2924 H   0  0  0  0  0  0  0  0  0  0  0  0
    0.2882   -4.0445    0.5831 H   0  0  0  0  0  0  0  0  0  0  0  0
   -0.3303   -2.6366   -0.2784 H   0  0  0  0  0  0  0  0  0  0  0  0
    1.4174    2.3003   -0.4201 N   0  0  0  0  0  0  0  0  0  0  0  0
    1.8199    3.7213   -0.4339 C   0  0  2  0  0  0  0  0  0  0  0  0
    2.7493    4.1520    0.7243 C   0  0  0  0  0  0  0  0  0  0  0  0
    3.7328    4.8395    0.4815 O   0  0  0  0  0  0  0  0  0  0  0  0
    0.5928    4.6397   -0.5125 C   0  0  0  0  0  0  0  0  0  0  0  0
    1.9258    1.6586   -1.0341 H   0  0  0  0  0  0  0  0  0  0  0  0
    2.3935    3.8769   -1.3534 H   0  0  0  0  0  0  0  0  0  0  0  0
    0.0145    4.6087    0.4155 H   0  0  0  0  0  0  0  0  0  0  0  0
    0.9095    5.6738   -0.6816 H   0  0  0  0  0  0  0  0  0  0  0  0
   -0.0563    4.3365   -1.3392 H   0  0  0  0  0  0  0  0  0  0  0  0
    2.4732    3.8108    2.0332 N   0  0  0  0  0  0  0  0  0  0  0  0
    3.2665    4.2433    3.1750 C   0  0  0  0  0  0  0  0  0  0  0  0
    1.6057    3.2908    2.1889 H   0  0  0  0  0  0  0  0  0  0  0  0
    3.2613    5.3354    3.2529 H   0  0  0  0  0  0  0  0  0  0  0  0
    2.8541    3.8277    4.0993 H   0  0  0  0  0  0  0  0  0  0  0  0
    4.3017    3.9011    3.0738 H   0  0  0  0  0  0  0  0  0  0  0  0
  1  2  2  0  0  0  0
  1  3  1  0  0  0  0
  1  7  1  0  0  0  0
  3  4  1  0  0  0  0
  3  5  1  0  0  0  0
  3  6  1  0  0  0  0
  7  8  1  0  0  0  0
  7 12  1  0  0  0  0
  8  9  1  0  0  0  0
  8 11  1  0  0  0  0
  8 13  1  0  0  0  0
  9 10  2  0  0  0  0
  9 17  1  0  0  0  0
 11 14  1  0  0  0  0
 11 15  1  0  0  0  0
 11 16  1  0  0  0  0
 17 18  1  0  0  0  0
 17 25  1  0  0  0  0
 18 19  1  0  0  0  0
 18 21  1  0  0  0  0
 18 26  1  0  0  0  0
 19 20  2  0  0  0  0
 19 36  1  0  0  0  0
 21 22  1  0  0  0  0
 21 27  1  0  0  0  0
 21 28  1  0  0  0  0
 22 23  1  0  0  0  0
 22 24  1  0  0  0  0
 22 29  1  0  0  0  0
 23 30  1  0  0  0  0
 23 31  1  0  0  0  0
 23 32  1  0  0  0  0
 24 33  1  0  0  0  0
 24 34  1  0  0  0  0
 24 35  1  0  0  0  0
 36 37  1  0  0  0  0
 36 41  1  0  0  0  0
 37 38  1  0  0  0  0
 37 40  1  0  0  0  0
 37 42  1  0  0  0  0
 38 39  2  0  0  0  0
 38 46  1  0  0  0  0
 40 43  1  0  0  0  0
 40 44  1  0  0  0  0
 40 45  1  0  0  0  0
 46 47  1  0  0  0  0
 46 48  1  0  0  0  0
 47 49  1  0  0  0  0
 47 50  1  0  0  0  0
 47 51  1  0  0  0  0
M  END
$$$$

  -OEChem-05262216553D

 51 50  0     1  0  0  0  0  0999 V2000
    2.9458   -3.1191   -3.3094 C   0  0  0  0  0  0  0  0  0  0  0  0
    2.2864   -3.8459   -2.5858 O   0  0  0  0  0  0  0  0  0  0  0  0
    4.3426   -3.5446   -3.7220 C   0  0  0  0  0  0  0  0  0  0  0  0
    5.0754   -2.8172   -3.3637 H   0  0  0  0  0  0  0  0  0  0  0  0
    4.5813   -4.5228   -3.2948 H   0  0  0  0  0  0  0  0  0  0  0  0
    4.4066   -3.6119   -4.8108 H   0  0  0  0  0  0  0  0  0  0  0  0
    2.4489   -1.9118   -3.7641 N   0  0  0  0  0  0  0  0  0  0  0  0
    1.2315   -1.2444   -3.2621 C   0  0  2  0  0  0  0  0  0  0  0  0
    1.3946   -0.6862   -1.8255 C   0  0  0  0  0  0  0  0  0  0  0  0
    2.4851   -0.2569   -1.4733 O   0  0  0  0  0  0  0  0  0  0  0  0
   -0.0200   -2.1235   -3.4332 C   0  0  0  0  0  0  0  0  0  0  0  0
    3.1412   -1.3173   -4.2110 H   0  0  0  0  0  0  0  0  0  0  0  0
    1.0745   -0.3689   -3.8992 H   0  0  0  0  0  0  0  0  0  0  0  0
   -0.0521   -2.9225   -2.6875 H   0  0  0  0  0  0  0  0  0  0  0  0
   -0.9274   -1.5216   -3.3287 H   0  0  0  0  0  0  0  0  0  0  0  0
   -0.0264   -2.5801   -4.4279 H   0  0  0  0  0  0  0  0  0  0  0  0
    0.2955   -0.2624   -1.0967 N   0  0  0  0  0  0  0  0  0  0  0  0
    0.3069    0.1456    0.3314 C   0  0  2  0  0  0  0  0  0  0  0  0
    0.5871    1.6550    0.5010 C   0  0  0  0  0  0  0  0  0  0  0  0
    0.2951    2.2135    1.5510 O   0  0  0  0  0  0  0  0  0  0  0  0
    1.1467   -0.7039    1.3239 C   0  0  0  0  0  0  0  0  0  0  0  0
    0.6778   -2.1591    1.5748 C   0  0  0  0  0  0  0  0  0  0  0  0
    1.7186   -2.8583    2.4590 C   0  0  0  0  0  0  0  0  0  0  0  0
    0.4711   -3.0133    0.3217 C   0  0  0  0  0  0  0  0  0  0  0  0
   -0.5955   -0.5896   -1.4593 H   0  0  0  0  0  0  0  0  0  0  0  0
   -0.7262    0.0316    0.6747 H   0  0  0  0  0  0  0  0  0  0  0  0
    1.1447   -0.1943    2.2935 H   0  0  0  0  0  0  0  0  0  0  0  0
    2.1867   -0.7192    0.9844 H   0  0  0  0  0  0  0  0  0  0  0  0
   -0.2734   -2.1221    2.1165 H   0  0  0  0  0  0  0  0  0  0  0  0
    2.6763   -2.9454    1.9355 H   0  0  0  0  0  0  0  0  0  0  0  0
    1.3789   -3.8628    2.7302 H   0  0  0  0  0  0  0  0  0  0  0  0
    1.8775   -2.2922    3.3823 H   0  0  0  0  0  0  0  0  0  0  0  0
    1.3747   -3.0099   -0.2924 H   0  0  0  0  0  0  0  0  0  0  0  0
    0.2502   -4.0490    0.5977 H   0  0  0  0  0  0  0  0  0  0  0  0
   -0.3718   -2.6443   -0.2665 H   0  0  0  0  0  0  0  0  0  0  0  0
    1.0967    2.3816   -0.5613 N   0  0  0  0  0  0  0  0  0  0  0  0
    1.3975    3.8273   -0.6033 C   0  0  2  0  0  0  0  0  0  0  0  0
    2.5428    4.2887    0.3273 C   0  0  0  0  0  0  0  0  0  0  0  0
    3.3883    5.0637   -0.1009 O   0  0  0  0  0  0  0  0  0  0  0  0
    0.1331    4.6612   -0.3564 C   0  0  0  0  0  0  0  0  0  0  0  0
    1.5276    1.7926   -1.2746 H   0  0  0  0  0  0  0  0  0  0  0  0
    1.7302    4.0484   -1.6225 H   0  0  0  0  0  0  0  0  0  0  0  0
   -0.1963    4.5839    0.6840 H   0  0  0  0  0  0  0  0  0  0  0  0
    0.3328    5.7155   -0.5720 H   0  0  0  0  0  0  0  0  0  0  0  0
   -0.6792    4.3224   -1.0061 H   0  0  0  0  0  0  0  0  0  0  0  0
    2.6123    3.8719    1.6415 N   0  0  0  0  0  0  0  0  0  0  0  0
    3.6216    4.3221    2.5890 C   0  0  0  0  0  0  0  0  0  0  0  0
    1.8396    3.2856    1.9680 H   0  0  0  0  0  0  0  0  0  0  0  0
    3.5150    5.3952    2.7791 H   0  0  0  0  0  0  0  0  0  0  0  0
    3.5126    3.7874    3.5374 H   0  0  0  0  0  0  0  0  0  0  0  0
    4.6269    4.1300    2.1996 H   0  0  0  0  0  0  0  0  0  0  0  0
  1  2  2  0  0  0  0
  1  3  1  0  0  0  0
  1  7  1  0  0  0  0
  3  4  1  0  0  0  0
  3  5  1  0  0  0  0
  3  6  1  0  0  0  0
  7  8  1  0  0  0  0
  7 12  1  0  0  0  0
  8  9  1  0  0  0  0
  8 11  1  0  0  0  0
  8 13  1  0  0  0  0
  9 10  2  0  0  0  0
  9 17  1  0  0  0  0
 11 14  1  0  0  0  0
 11 15  1  0  0  0  0
 11 16  1  0  0  0  0
 17 18  1  0  0  0  0
 17 25  1  0  0  0  0
 18 19  1  0  0  0  0
 18 21  1  0  0  0  0
 18 26  1  0  0  0  0
 19 20  2  0  0  0  0
 19 36  1  0  0  0  0
 21 22  1  0  0  0  0
 21 27  1  0  0  0  0
 21 28  1  0  0  0  0
 22 23  1  0  0  0  0
 22 24  1  0  0  0  0
 22 29  1  0  0  0  0
 23 30  1  0  0  0  0
 23 31  1  0  0  0  0
 23 32  1  0  0  0  0
 24 33  1  0  0  0  0
 24 34  1  0  0  0  0
 24 35  1  0  0  0  0
 36 37  1  0  0  0  0
 36 41  1  0  0  0  0
 37 38  1  0  0  0  0
 37 40  1  0  0  0  0
 37 42  1  0  0  0  0
 38 39  2  0  0  0  0
 38 46  1  0  0  0  0
 40 43  1  0  0  0  0
 40 44  1  0  0  0  0
 40 45  1  0  0  0  0
 46 47  1  0  0  0  0
 46 48  1  0  0  0  0
 47 49  1  0  0  0  0
 47 50  1  0  0  0  0
 47 51  1  0  0  0  0
M  END
$$$$

  -OEChem-05262216553D

 51 50  0     1  0  0  0  0  0999 V2000
    2.9265   -3.1311   -3.2944 C   0  0  0  0  0  0  0  0  0  0  0  0
    2.1944   -3.8650   -2.6524 O   0  0  0  0  0  0  0  0  0  0  0  0
    4.3407   -3.5808   -3.6106 C   0  0  0  0  0  0  0  0  0  0  0  0
    5.0599   -2.8946   -3.1560 H   0  0  0  0  0  0  0  0  0  0  0  0
    4.5152   -4.5853   -3.2145 H   0  0  0  0  0  0  0  0  0  0  0  0
    4.4955   -3.5976   -4.6921 H   0  0  0  0  0  0  0  0  0  0  0  0
    2.5019   -1.8912   -3.7347 N   0  0  0  0  0  0  0  0  0  0  0  0
    1.2870   -1.1903   -3.2743 C   0  0  2  0  0  0  0  0  0  0  0  0
    1.4206   -0.6493   -1.8284 C   0  0  0  0  0  0  0  0  0  0  0  0
    2.5075   -0.2366   -1.4499 O   0  0  0  0  0  0  0  0  0  0  0  0
    0.0103   -2.0209   -3.4980 C   0  0  0  0  0  0  0  0  0  0  0  0
    3.2480   -1.3041   -4.0980 H   0  0  0  0  0  0  0  0  0  0  0  0
    1.1839   -0.3056   -3.9096 H   0  0  0  0  0  0  0  0  0  0  0  0
   -0.0855   -2.8152   -2.7523 H   0  0  0  0  0  0  0  0  0  0  0  0
   -0.8763   -1.3834   -3.4342 H   0  0  0  0  0  0  0  0  0  0  0  0
    0.0289   -2.4803   -4.4912 H   0  0  0  0  0  0  0  0  0  0  0  0
    0.3026   -0.2739   -1.0998 N   0  0  0  0  0  0  0  0  0  0  0  0
    0.2963    0.1287    0.3303 C   0  0  2  0  0  0  0  0  0  0  0  0
    0.5127    1.6507    0.5067 C   0  0  0  0  0  0  0  0  0  0  0  0
    0.4409    2.1578    1.6192 O   0  0  0  0  0  0  0  0  0  0  0  0
    1.1561   -0.7111    1.3176 C   0  0  0  0  0  0  0  0  0  0  0  0
    0.7183   -2.1795    1.5511 C   0  0  0  0  0  0  0  0  0  0  0  0
    1.7713   -2.8669    2.4300 C   0  0  0  0  0  0  0  0  0  0  0  0
    0.5366   -3.0242    0.2875 C   0  0  0  0  0  0  0  0  0  0  0  0
   -0.5731   -0.6369   -1.4660 H   0  0  0  0  0  0  0  0  0  0  0  0
   -0.7329   -0.0226    0.6695 H   0  0  0  0  0  0  0  0  0  0  0  0
    1.1394   -0.2170    2.2946 H   0  0  0  0  0  0  0  0  0  0  0  0
    2.1976   -0.6976    0.9845 H   0  0  0  0  0  0  0  0  0  0  0  0
   -0.2356   -2.1700    2.0894 H   0  0  0  0  0  0  0  0  0  0  0  0
    2.7324   -2.9251    1.9087 H   0  0  0  0  0  0  0  0  0  0  0  0
    1.4533   -3.8825    2.6856 H   0  0  0  0  0  0  0  0  0  0  0  0
    1.9140   -2.3101    3.3615 H   0  0  0  0  0  0  0  0  0  0  0  0
    1.4420   -2.9891   -0.3226 H   0  0  0  0  0  0  0  0  0  0  0  0
    0.3424   -4.0689    0.5502 H   0  0  0  0  0  0  0  0  0  0  0  0
   -0.3139   -2.6708   -0.2996 H   0  0  0  0  0  0  0  0  0  0  0  0
    0.6858    2.4547   -0.6077 N   0  0  0  0  0  0  0  0  0  0  0  0
    0.8692    3.9204   -0.6438 C   0  0  2  0  0  0  0  0  0  0  0  0
    2.1822    4.4260   -0.0043 C   0  0  0  0  0  0  0  0  0  0  0  0
    2.8971    5.1974   -0.6311 O   0  0  0  0  0  0  0  0  0  0  0  0
   -0.3436    4.6477   -0.0470 C   0  0  0  0  0  0  0  0  0  0  0  0
    0.9310    1.9340   -1.4461 H   0  0  0  0  0  0  0  0  0  0  0  0
    0.9196    4.2048   -1.6997 H   0  0  0  0  0  0  0  0  0  0  0  0
   -0.3962    4.5094    1.0367 H   0  0  0  0  0  0  0  0  0  0  0  0
   -0.2728    5.7212   -0.2488 H   0  0  0  0  0  0  0  0  0  0  0  0
   -1.2692    4.2719   -0.4926 H   0  0  0  0  0  0  0  0  0  0  0  0
    2.5577    4.0332    1.2642 N   0  0  0  0  0  0  0  0  0  0  0  0
    3.7968    4.4371    1.9117 C   0  0  0  0  0  0  0  0  0  0  0  0
    1.9306    3.3775    1.7377 H   0  0  0  0  0  0  0  0  0  0  0  0
    3.8583    5.5285    1.9744 H   0  0  0  0  0  0  0  0  0  0  0  0
    3.8418    4.0294    2.9260 H   0  0  0  0  0  0  0  0  0  0  0  0
    4.6598    4.0658    1.3498 H   0  0  0  0  0  0  0  0  0  0  0  0
  1  2  2  0  0  0  0
  1  3  1  0  0  0  0
  1  7  1  0  0  0  0
  3  4  1  0  0  0  0
  3  5  1  0  0  0  0
  3  6  1  0  0  0  0
  7  8  1  0  0  0  0
  7 12  1  0  0  0  0
  8  9  1  0  0  0  0
  8 11  1  0  0  0  0
  8 13  1  0  0  0  0
  9 10  2  0  0  0  0
  9 17  1  0  0  0  0
 11 14  1  0  0  0  0
 11 15  1  0  0  0  0
 11 16  1  0  0  0  0
 17 18  1  0  0  0  0
 17 25  1  0  0  0  0
 18 19  1  0  0  0  0
 18 21  1  0  0  0  0
 18 26  1  0  0  0  0
 19 20  2  0  0  0  0
 19 36  1  0  0  0  0
 21 22  1  0  0  0  0
 21 27  1  0  0  0  0
 21 28  1  0  0  0  0
 22 23  1  0  0  0  0
 22 24  1  0  0  0  0
 22 29  1  0  0  0  0
 23 30  1  0  0  0  0
 23 31  1  0  0  0  0
 23 32  1  0  0  0  0
 24 33  1  0  0  0  0
 24 34  1  0  0  0  0
 24 35  1  0  0  0  0
 36 37  1  0  0  0  0
 36 41  1  0  0  0  0
 37 38  1  0  0  0  0
 37 40  1  0  0  0  0
 37 42  1  0  0  0  0
 38 39  2  0  0  0  0
 38 46  1  0  0  0  0
 40 43  1  0  0  0  0
 40 44  1  0  0  0  0
 40 45  1  0  0  0  0
 46 47  1  0  0  0  0
 46 48  1  0  0  0  0
 47 49  1  0  0  0  0
 47 50  1  0  0  0  0
 47 51  1  0  0  0  0
M  END
$$$$

  -OEChem-05262216553D

 51 50  0     1  0  0  0  0  0999 V2000
    0.9670   -2.9704   -3.2383 C   0  0  0  0  0  0  0  0  0  0  0  0
    0.0344   -2.2265   -2.9774 O   0  0  0  0  0  0  0  0  0  0  0  0
    0.7056   -4.4407   -3.5039 C   0  0  0  0  0  0  0  0  0  0  0  0
    1.2307   -5.0535   -2.7668 H   0  0  0  0  0  0  0  0  0  0  0  0
   -0.3655   -4.6527   -3.4367 H   0  0  0  0  0  0  0  0  0  0  0  0
    1.0535   -4.7081   -4.5048 H   0  0  0  0  0  0  0  0  0  0  0  0
    2.2674   -2.5016   -3.2279 N   0  0  0  0  0  0  0  0  0  0  0  0
    2.7099   -1.1015   -3.0528 C   0  0  2  0  0  0  0  0  0  0  0  0
    2.4463   -0.4850   -1.6582 C   0  0  0  0  0  0  0  0  0  0  0  0
    3.3434    0.1370   -1.1121 O   0  0  0  0  0  0  0  0  0  0  0  0
    2.1332   -0.2061   -4.1588 C   0  0  0  0  0  0  0  0  0  0  0  0
    2.9851   -3.1922   -3.4318 H   0  0  0  0  0  0  0  0  0  0  0  0
    3.7984   -1.0973   -3.1767 H   0  0  0  0  0  0  0  0  0  0  0  0
    1.0507   -0.0894   -4.0528 H   0  0  0  0  0  0  0  0  0  0  0  0
    2.5906    0.7875   -4.1120 H   0  0  0  0  0  0  0  0  0  0  0  0
    2.3413   -0.6351   -5.1436 H   0  0  0  0  0  0  0  0  0  0  0  0
    1.1825   -0.4924   -1.0952 N   0  0  0  0  0  0  0  0  0  0  0  0
    0.8350   -0.1561    0.3054 C   0  0  2  0  0  0  0  0  0  0  0  0
    0.5358    1.3553    0.4623 C   0  0  0  0  0  0  0  0  0  0  0  0
    0.4085    1.8593    1.5719 O   0  0  0  0  0  0  0  0  0  0  0  0
    1.7692   -0.7163    1.4183 C   0  0  0  0  0  0  0  0  0  0  0  0
    1.7949   -2.2560    1.6041 C   0  0  0  0  0  0  0  0  0  0  0  0
    2.8770   -2.6006    2.6355 C   0  0  0  0  0  0  0  0  0  0  0  0
    2.0688   -3.0763    0.3384 C   0  0  0  0  0  0  0  0  0  0  0  0
    0.5017   -1.0462   -1.6247 H   0  0  0  0  0  0  0  0  0  0  0  0
   -0.1324   -0.6326    0.4896 H   0  0  0  0  0  0  0  0  0  0  0  0
    1.4525   -0.2925    2.3769 H   0  0  0  0  0  0  0  0  0  0  0  0
    2.7870   -0.3566    1.2465 H   0  0  0  0  0  0  0  0  0  0  0  0
    0.8218   -2.5663    2.0000 H   0  0  0  0  0  0  0  0  0  0  0  0
    3.8686   -2.3217    2.2643 H   0  0  0  0  0  0  0  0  0  0  0  0
    2.8751   -3.6736    2.8507 H   0  0  0  0  0  0  0  0  0  0  0  0
    2.6942   -2.0654    3.5726 H   0  0  0  0  0  0  0  0  0  0  0  0
    2.9906   -2.7429   -0.1469 H   0  0  0  0  0  0  0  0  0  0  0  0
    2.1782   -4.1361    0.5886 H   0  0  0  0  0  0  0  0  0  0  0  0
    1.2355   -2.9896   -0.3619 H   0  0  0  0  0  0  0  0  0  0  0  0
    0.3104    2.1247   -0.6680 N   0  0  0  0  0  0  0  0  0  0  0  0
   -0.0587    3.5536   -0.7367 C   0  0  2  0  0  0  0  0  0  0  0  0
    1.0218    4.5341   -0.2252 C   0  0  0  0  0  0  0  0  0  0  0  0
    1.3340    5.4957   -0.9163 O   0  0  0  0  0  0  0  0  0  0  0  0
   -1.4016    3.8112   -0.0397 C   0  0  0  0  0  0  0  0  0  0  0  0
    0.5329    1.6538   -1.5408 H   0  0  0  0  0  0  0  0  0  0  0  0
   -0.2008    3.7910   -1.7959 H   0  0  0  0  0  0  0  0  0  0  0  0
   -1.3155    3.6931    1.0443 H   0  0  0  0  0  0  0  0  0  0  0  0
   -1.7394    4.8321   -0.2442 H   0  0  0  0  0  0  0  0  0  0  0  0
   -2.1609    3.1147   -0.4075 H   0  0  0  0  0  0  0  0  0  0  0  0
    1.6262    4.3594    1.0033 N   0  0  0  0  0  0  0  0  0  0  0  0
    2.6824    5.2135    1.5259 C   0  0  0  0  0  0  0  0  0  0  0  0
    1.3464    3.5256    1.5272 H   0  0  0  0  0  0  0  0  0  0  0  0
    2.3544    6.2578    1.5516 H   0  0  0  0  0  0  0  0  0  0  0  0
    2.9428    4.9085    2.5440 H   0  0  0  0  0  0  0  0  0  0  0  0
    3.5779    5.1389    0.9006 H   0  0  0  0  0  0  0  0  0  0  0  0
  1  2  2  0  0  0  0
  1  3  1  0  0  0  0
  1  7  1  0  0  0  0
  3  4  1  0  0  0  0
  3  5  1  0  0  0  0
  3  6  1  0  0  0  0
  7  8  1  0  0  0  0
  7 12  1  0  0  0  0
  8  9  1  0  0  0  0
  8 11  1  0  0  0  0
  8 13  1  0  0  0  0
  9 10  2  0  0  0  0
  9 17  1  0  0  0  0
 11 14  1  0  0  0  0
 11 15  1  0  0  0  0
 11 16  1  0  0  0  0
 17 18  1  0  0  0  0
 17 25  1  0  0  0  0
 18 19  1  0  0  0  0
 18 21  1  0  0  0  0
 18 26  1  0  0  0  0
 19 20  2  0  0  0  0
 19 36  1  0  0  0  0
 21 22  1  0  0  0  0
 21 27  1  0  0  0  0
 21 28  1  0  0  0  0
 22 23  1  0  0  0  0
 22 24  1  0  0  0  0
 22 29  1  0  0  0  0
 23 30  1  0  0  0  0
 23 31  1  0  0  0  0
 23 32  1  0  0  0  0
 24 33  1  0  0  0  0
 24 34  1  0  0  0  0
 24 35  1  0  0  0  0
 36 37  1  0  0  0  0
 36 41  1  0  0  0  0
 37 38  1  0  0  0  0
 37 40  1  0  0  0  0
 37 42  1  0  0  0  0
 38 39  2  0  0  0  0
 38 46  1  0  0  0  0
 40 43  1  0  0  0  0
 40 44  1  0  0  0  0
 40 45  1  0  0  0  0
 46 47  1  0  0  0  0
 46 48  1  0  0  0  0
 47 49  1  0  0  0  0
 47 50  1  0  0  0  0
 47 51  1  0  0  0  0
M  END
$$$$

  -OEChem-05262216553D

 51 50  0     1  0  0  0  0  0999 V2000
    1.0750   -2.8271   -3.2458 C   0  0  0  0  0  0  0  0  0  0  0  0
    0.0915   -2.1538   -2.9782 O   0  0  0  0  0  0  0  0  0  0  0  0
    0.9088   -4.2903   -3.6095 C   0  0  0  0  0  0  0  0  0  0  0  0
    1.3993   -4.9199   -2.8632 H   0  0  0  0  0  0  0  0  0  0  0  0
   -0.1524   -4.5520   -3.6471 H   0  0  0  0  0  0  0  0  0  0  0  0
    1.3525   -4.4853   -4.5889 H   0  0  0  0  0  0  0  0  0  0  0  0
    2.3450   -2.2867   -3.1669 N   0  0  0  0  0  0  0  0  0  0  0  0
    2.6993   -0.8731   -2.9162 C   0  0  2  0  0  0  0  0  0  0  0  0
    2.3571   -0.3363   -1.5067 C   0  0  0  0  0  0  0  0  0  0  0  0
    3.2052    0.3015   -0.9031 O   0  0  0  0  0  0  0  0  0  0  0  0
    2.1071    0.0397   -3.9993 C   0  0  0  0  0  0  0  0  0  0  0  0
    3.1080   -2.9234   -3.3823 H   0  0  0  0  0  0  0  0  0  0  0  0
    3.7888   -0.8015   -3.0022 H   0  0  0  0  0  0  0  0  0  0  0  0
    1.0161    0.0806   -3.9336 H   0  0  0  0  0  0  0  0  0  0  0  0
    2.4936    1.0577   -3.8829 H   0  0  0  0  0  0  0  0  0  0  0  0
    2.3827   -0.3221   -4.9943 H   0  0  0  0  0  0  0  0  0  0  0  0
    1.0791   -0.4474   -0.9870 N   0  0  0  0  0  0  0  0  0  0  0  0
    0.6675   -0.1747    0.4088 C   0  0  2  0  0  0  0  0  0  0  0  0
    0.2651    1.3124    0.5647 C   0  0  0  0  0  0  0  0  0  0  0  0
    0.3991    1.9057    1.6280 O   0  0  0  0  0  0  0  0  0  0  0  0
    1.6006   -0.6962    1.5406 C   0  0  0  0  0  0  0  0  0  0  0  0
    1.7273   -2.2341    1.6895 C   0  0  0  0  0  0  0  0  0  0  0  0
    2.7955   -2.5303    2.7502 C   0  0  0  0  0  0  0  0  0  0  0  0
    2.1055   -2.9973    0.4144 C   0  0  0  0  0  0  0  0  0  0  0  0
    0.4555   -1.0266   -1.5574 H   0  0  0  0  0  0  0  0  0  0  0  0
   -0.2706   -0.7186    0.5527 H   0  0  0  0  0  0  0  0  0  0  0  0
    1.2192   -0.3214    2.4961 H   0  0  0  0  0  0  0  0  0  0  0  0
    2.5958   -0.2613    1.4165 H   0  0  0  0  0  0  0  0  0  0  0  0
    0.7653   -2.6224    2.0409 H   0  0  0  0  0  0  0  0  0  0  0  0
    3.7773   -2.1769    2.4189 H   0  0  0  0  0  0  0  0  0  0  0  0
    2.8595   -3.6060    2.9412 H   0  0  0  0  0  0  0  0  0  0  0  0
    2.5470   -2.0313    3.6923 H   0  0  0  0  0  0  0  0  0  0  0  0
    3.0169   -2.5840   -0.0272 H   0  0  0  0  0  0  0  0  0  0  0  0
    2.2848   -4.0524    0.6432 H   0  0  0  0  0  0  0  0  0  0  0  0
    1.2946   -2.9533   -0.3159 H   0  0  0  0  0  0  0  0  0  0  0  0
   -0.2697    1.9776   -0.5274 N   0  0  0  0  0  0  0  0  0  0  0  0
   -0.5914    3.4160   -0.6301 C   0  0  2  0  0  0  0  0  0  0  0  0
    0.6450    4.3419   -0.5742 C   0  0  0  0  0  0  0  0  0  0  0  0
    0.8264    5.1558   -1.4713 O   0  0  0  0  0  0  0  0  0  0  0  0
   -1.6456    3.8397    0.4026 C   0  0  0  0  0  0  0  0  0  0  0  0
   -0.2151    1.4523   -1.3959 H   0  0  0  0  0  0  0  0  0  0  0  0
   -1.0409    3.5682   -1.6165 H   0  0  0  0  0  0  0  0  0  0  0  0
   -1.2348    3.8393    1.4163 H   0  0  0  0  0  0  0  0  0  0  0  0
   -1.9987    4.8516    0.1812 H   0  0  0  0  0  0  0  0  0  0  0  0
   -2.5019    3.1594    0.3731 H   0  0  0  0  0  0  0  0  0  0  0  0
    1.5654    4.2417    0.4498 N   0  0  0  0  0  0  0  0  0  0  0  0
    2.8297    4.9623    0.4796 C   0  0  0  0  0  0  0  0  0  0  0  0
    1.4011    3.4916    1.1269 H   0  0  0  0  0  0  0  0  0  0  0  0
    2.6566    6.0428    0.4431 H   0  0  0  0  0  0  0  0  0  0  0  0
    3.3730    4.7303    1.4006 H   0  0  0  0  0  0  0  0  0  0  0  0
    3.4536    4.6744   -0.3728 H   0  0  0  0  0  0  0  0  0  0  0  0
  1  2  2  0  0  0  0
  1  3  1  0  0  0  0
  1  7  1  0  0  0  0
  3  4  1  0  0  0  0
  3  5  1  0  0  0  0
  3  6  1  0  0  0  0
  7  8  1  0  0  0  0
  7 12  1  0  0  0  0
  8  9  1  0  0  0  0
  8 11  1  0  0  0  0
  8 13  1  0  0  0  0
  9 10  2  0  0  0  0
  9 17  1  0  0  0  0
 11 14  1  0  0  0  0
 11 15  1  0  0  0  0
 11 16  1  0  0  0  0
 17 18  1  0  0  0  0
 17 25  1  0  0  0  0
 18 19  1  0  0  0  0
 18 21  1  0  0  0  0
 18 26  1  0  0  0  0
 19 20  2  0  0  0  0
 19 36  1  0  0  0  0
 21 22  1  0  0  0  0
 21 27  1  0  0  0  0
 21 28  1  0  0  0  0
 22 23  1  0  0  0  0
 22 24  1  0  0  0  0
 22 29  1  0  0  0  0
 23 30  1  0  0  0  0
 23 31  1  0  0  0  0
 23 32  1  0  0  0  0
 24 33  1  0  0  0  0
 24 34  1  0  0  0  0
 24 35  1  0  0  0  0
 36 37  1  0  0  0  0
 36 41  1  0  0  0  0
 37 38  1  0  0  0  0
 37 40  1  0  0  0  0
 37 42  1  0  0  0  0
 38 39  2  0  0  0  0
 38 46  1  0  0  0  0
 40 43  1  0  0  0  0
 40 44  1  0  0  0  0
 40 45  1  0  0  0  0
 46 47  1  0  0  0  0
 46 48  1  0  0  0  0
 47 49  1  0  0  0  0
 47 50  1  0  0  0  0
 47 51  1  0  0  0  0
M  END
$$$$

  -OEChem-05262216553D

 51 50  0     1  0  0  0  0  0999 V2000
    1.1339   -2.5996   -3.3041 C   0  0  0  0  0  0  0  0  0  0  0  0
    0.1395   -1.9521   -3.0129 O   0  0  0  0  0  0  0  0  0  0  0  0
    0.9834   -4.0340   -3.7746 C   0  0  0  0  0  0  0  0  0  0  0  0
    1.4922   -4.7104   -3.0834 H   0  0  0  0  0  0  0  0  0  0  0  0
   -0.0744   -4.3084   -3.8193 H   0  0  0  0  0  0  0  0  0  0  0  0
    1.4168   -4.1482   -4.7711 H   0  0  0  0  0  0  0  0  0  0  0  0
    2.3997   -2.0631   -3.1553 N   0  0  0  0  0  0  0  0  0  0  0  0
    2.7456   -0.6736   -2.7833 C   0  0  2  0  0  0  0  0  0  0  0  0
    2.3699   -0.2551   -1.3431 C   0  0  0  0  0  0  0  0  0  0  0  0
    3.2031    0.3270   -0.6666 O   0  0  0  0  0  0  0  0  0  0  0  0
    2.1718    0.3255   -3.7983 C   0  0  0  0  0  0  0  0  0  0  0  0
    3.1694   -2.6799   -3.4016 H   0  0  0  0  0  0  0  0  0  0  0  0
    3.8366   -0.5934   -2.8399 H   0  0  0  0  0  0  0  0  0  0  0  0
    1.0795    0.3588   -3.7503 H   0  0  0  0  0  0  0  0  0  0  0  0
    2.5517    1.3311   -3.5896 H   0  0  0  0  0  0  0  0  0  0  0  0
    2.4679    0.0500   -4.8149 H   0  0  0  0  0  0  0  0  0  0  0  0
    1.0771   -0.4137   -0.8765 N   0  0  0  0  0  0  0  0  0  0  0  0
    0.5896   -0.2017    0.5029 C   0  0  2  0  0  0  0  0  0  0  0  0
    0.1453    1.2704    0.6615 C   0  0  0  0  0  0  0  0  0  0  0  0
    0.4635    1.9408    1.6359 O   0  0  0  0  0  0  0  0  0  0  0  0
    1.4760   -0.7264    1.6680 C   0  0  0  0  0  0  0  0  0  0  0  0
    1.6445   -2.2640    1.7771 C   0  0  0  0  0  0  0  0  0  0  0  0
    2.6626   -2.5606    2.8858 C   0  0  0  0  0  0  0  0  0  0  0  0
    2.1157   -2.9720    0.5004 C   0  0  0  0  0  0  0  0  0  0  0  0
    0.4742   -0.9381   -1.5167 H   0  0  0  0  0  0  0  0  0  0  0  0
   -0.3378   -0.7758    0.5865 H   0  0  0  0  0  0  0  0  0  0  0  0
    1.0295   -0.3886    2.6094 H   0  0  0  0  0  0  0  0  0  0  0  0
    2.4618   -0.2571    1.6108 H   0  0  0  0  0  0  0  0  0  0  0  0
    0.6786   -2.6941    2.0628 H   0  0  0  0  0  0  0  0  0  0  0  0
    3.6475   -2.1607    2.6231 H   0  0  0  0  0  0  0  0  0  0  0  0
    2.7563   -3.6396    3.0432 H   0  0  0  0  0  0  0  0  0  0  0  0
    2.3437   -2.1053    3.8288 H   0  0  0  0  0  0  0  0  0  0  0  0
    3.0398   -2.5201    0.1276 H   0  0  0  0  0  0  0  0  0  0  0  0
    2.3094   -4.0298    0.7033 H   0  0  0  0  0  0  0  0  0  0  0  0
    1.3486   -2.9226   -0.2758 H   0  0  0  0  0  0  0  0  0  0  0  0
   -0.6250    1.8350   -0.3435 N   0  0  0  0  0  0  0  0  0  0  0  0
   -0.9582    3.2650   -0.5024 C   0  0  2  0  0  0  0  0  0  0  0  0
    0.2717    4.1544   -0.7937 C   0  0  0  0  0  0  0  0  0  0  0  0
    0.3011    4.8209   -1.8206 O   0  0  0  0  0  0  0  0  0  0  0  0
   -1.7668    3.8047    0.6860 C   0  0  0  0  0  0  0  0  0  0  0  0
   -0.7154    1.2515   -1.1708 H   0  0  0  0  0  0  0  0  0  0  0  0
   -1.6070    3.3425   -1.3808 H   0  0  0  0  0  0  0  0  0  0  0  0
   -1.1496    3.8924    1.5846 H   0  0  0  0  0  0  0  0  0  0  0  0
   -2.1595    4.7980    0.4481 H   0  0  0  0  0  0  0  0  0  0  0  0
   -2.6091    3.1417    0.9046 H   0  0  0  0  0  0  0  0  0  0  0  0
    1.3621    4.1575    0.0526 N   0  0  0  0  0  0  0  0  0  0  0  0
    2.6257    4.8116   -0.2544 C   0  0  0  0  0  0  0  0  0  0  0  0
    1.3247    3.4908    0.8290 H   0  0  0  0  0  0  0  0  0  0  0  0
    2.4678    5.8745   -0.4648 H   0  0  0  0  0  0  0  0  0  0  0  0
    3.3085    4.7263    0.5963 H   0  0  0  0  0  0  0  0  0  0  0  0
    3.0956    4.3436   -1.1255 H   0  0  0  0  0  0  0  0  0  0  0  0
  1  2  2  0  0  0  0
  1  3  1  0  0  0  0
  1  7  1  0  0  0  0
  3  4  1  0  0  0  0
  3  5  1  0  0  0  0
  3  6  1  0  0  0  0
  7  8  1  0  0  0  0
  7 12  1  0  0  0  0
  8  9  1  0  0  0  0
  8 11  1  0  0  0  0
  8 13  1  0  0  0  0
  9 10  2  0  0  0  0
  9 17  1  0  0  0  0
 11 14  1  0  0  0  0
 11 15  1  0  0  0  0
 11 16  1  0  0  0  0
 17 18  1  0  0  0  0
 17 25  1  0  0  0  0
 18 19  1  0  0  0  0
 18 21  1  0  0  0  0
 18 26  1  0  0  0  0
 19 20  2  0  0  0  0
 19 36  1  0  0  0  0
 21 22  1  0  0  0  0
 21 27  1  0  0  0  0
 21 28  1  0  0  0  0
 22 23  1  0  0  0  0
 22 24  1  0  0  0  0
 22 29  1  0  0  0  0
 23 30  1  0  0  0  0
 23 31  1  0  0  0  0
 23 32  1  0  0  0  0
 24 33  1  0  0  0  0
 24 34  1  0  0  0  0
 24 35  1  0  0  0  0
 36 37  1  0  0  0  0
 36 41  1  0  0  0  0
 37 38  1  0  0  0  0
 37 40  1  0  0  0  0
 37 42  1  0  0  0  0
 38 39  2  0  0  0  0
 38 46  1  0  0  0  0
 40 43  1  0  0  0  0
 40 44  1  0  0  0  0
 40 45  1  0  0  0  0
 46 47  1  0  0  0  0
 46 48  1  0  0  0  0
 47 49  1  0  0  0  0
 47 50  1  0  0  0  0
 47 51  1  0  0  0  0
M  END
$$$$

  -OEChem-05262216553D

 51 50  0     1  0  0  0  0  0999 V2000
    1.2820   -2.4606   -3.3033 C   0  0  0  0  0  0  0  0  0  0  0  0
    0.2519   -1.8685   -3.0179 O   0  0  0  0  0  0  0  0  0  0  0  0
    1.2108   -3.8832   -3.8255 C   0  0  0  0  0  0  0  0  0  0  0  0
    1.7065   -4.5633   -3.1283 H   0  0  0  0  0  0  0  0  0  0  0  0
    0.1680   -4.1935   -3.9379 H   0  0  0  0  0  0  0  0  0  0  0  0
    1.7026   -3.9493   -4.7991 H   0  0  0  0  0  0  0  0  0  0  0  0
    2.5179   -1.8734   -3.1060 N   0  0  0  0  0  0  0  0  0  0  0  0
    2.7901   -0.4858   -2.6737 C   0  0  2  0  0  0  0  0  0  0  0  0
    2.3636   -0.1486   -1.2264 C   0  0  0  0  0  0  0  0  0  0  0  0
    3.1779    0.3796   -0.4858 O   0  0  0  0  0  0  0  0  0  0  0  0
    2.1932    0.5257   -3.6633 C   0  0  0  0  0  0  0  0  0  0  0  0
    3.3213   -2.4490   -3.3438 H   0  0  0  0  0  0  0  0  0  0  0  0
    3.8768   -0.3529   -2.7022 H   0  0  0  0  0  0  0  0  0  0  0  0
    1.0997    0.5107   -3.6387 H   0  0  0  0  0  0  0  0  0  0  0  0
    2.5246    1.5380   -3.4092 H   0  0  0  0  0  0  0  0  0  0  0  0
    2.5216    0.3007   -4.6824 H   0  0  0  0  0  0  0  0  0  0  0  0
    1.0529   -0.3278   -0.8208 N   0  0  0  0  0  0  0  0  0  0  0  0
    0.5076   -0.1933    0.5458 C   0  0  2  0  0  0  0  0  0  0  0  0
    0.0612    1.2684    0.7642 C   0  0  0  0  0  0  0  0  0  0  0  0
    0.5570    1.9682    1.6382 O   0  0  0  0  0  0  0  0  0  0  0  0
    1.3433   -0.7756    1.7195 C   0  0  0  0  0  0  0  0  0  0  0  0
    1.5146   -2.3165    1.7549 C   0  0  0  0  0  0  0  0  0  0  0  0
    2.4836   -2.6706    2.8903 C   0  0  0  0  0  0  0  0  0  0  0  0
    2.0425   -2.9557    0.4644 C   0  0  0  0  0  0  0  0  0  0  0  0
    0.4792   -0.8170   -1.5136 H   0  0  0  0  0  0  0  0  0  0  0  0
   -0.4199   -0.7724    0.5608 H   0  0  0  0  0  0  0  0  0  0  0  0
    0.8543   -0.4835    2.6552 H   0  0  0  0  0  0  0  0  0  0  0  0
    2.3292   -0.3027    1.7287 H   0  0  0  0  0  0  0  0  0  0  0  0
    0.5389   -2.7626    1.9747 H   0  0  0  0  0  0  0  0  0  0  0  0
    3.4787   -2.2596    2.6917 H   0  0  0  0  0  0  0  0  0  0  0  0
    2.5708   -3.7564    2.9959 H   0  0  0  0  0  0  0  0  0  0  0  0
    2.1241   -2.2639    3.8408 H   0  0  0  0  0  0  0  0  0  0  0  0
    2.9788   -2.4831    0.1539 H   0  0  0  0  0  0  0  0  0  0  0  0
    2.2324   -4.0221    0.6198 H   0  0  0  0  0  0  0  0  0  0  0  0
    1.3078   -2.8676   -0.3389 H   0  0  0  0  0  0  0  0  0  0  0  0
   -0.9133    1.7928   -0.0713 N   0  0  0  0  0  0  0  0  0  0  0  0
   -1.2619    3.2218   -0.2140 C   0  0  2  0  0  0  0  0  0  0  0  0
   -0.1093    4.0787   -0.7876 C   0  0  0  0  0  0  0  0  0  0  0  0
   -0.2841    4.7012   -1.8276 O   0  0  0  0  0  0  0  0  0  0  0  0
   -1.8055    3.8199    1.0916 C   0  0  0  0  0  0  0  0  0  0  0  0
   -1.1698    1.1858   -0.8450 H   0  0  0  0  0  0  0  0  0  0  0  0
   -2.0762    3.2768   -0.9437 H   0  0  0  0  0  0  0  0  0  0  0  0
   -1.0150    3.9382    1.8383 H   0  0  0  0  0  0  0  0  0  0  0  0
   -2.2375    4.8066    0.8978 H   0  0  0  0  0  0  0  0  0  0  0  0
   -2.5855    3.1758    1.5080 H   0  0  0  0  0  0  0  0  0  0  0  0
    1.1380    4.0859   -0.1952 N   0  0  0  0  0  0  0  0  0  0  0  0
    2.3174    4.6956   -0.7915 C   0  0  0  0  0  0  0  0  0  0  0  0
    1.2559    3.4585    0.6062 H   0  0  0  0  0  0  0  0  0  0  0  0
    2.1580    5.7675   -0.9475 H   0  0  0  0  0  0  0  0  0  0  0  0
    3.1809    4.5663   -0.1319 H   0  0  0  0  0  0  0  0  0  0  0  0
    2.5443    4.2272   -1.7546 H   0  0  0  0  0  0  0  0  0  0  0  0
  1  2  2  0  0  0  0
  1  3  1  0  0  0  0
  1  7  1  0  0  0  0
  3  4  1  0  0  0  0
  3  5  1  0  0  0  0
  3  6  1  0  0  0  0
  7  8  1  0  0  0  0
  7 12  1  0  0  0  0
  8  9  1  0  0  0  0
  8 11  1  0  0  0  0
  8 13  1  0  0  0  0
  9 10  2  0  0  0  0
  9 17  1  0  0  0  0
 11 14  1  0  0  0  0
 11 15  1  0  0  0  0
 11 16  1  0  0  0  0
 17 18  1  0  0  0  0
 17 25  1  0  0  0  0
 18 19  1  0  0  0  0
 18 21  1  0  0  0  0
 18 26  1  0  0  0  0
 19 20  2  0  0  0  0
 19 36  1  0  0  0  0
 21 22  1  0  0  0  0
 21 27  1  0  0  0  0
 21 28  1  0  0  0  0
 22 23  1  0  0  0  0
 22 24  1  0  0  0  0
 22 29  1  0  0  0  0
 23 30  1  0  0  0  0
 23 31  1  0  0  0  0
 23 32  1  0  0  0  0
 24 33  1  0  0  0  0
 24 34  1  0  0  0  0
 24 35  1  0  0  0  0
 36 37  1  0  0  0  0
 36 41  1  0  0  0  0
 37 38  1  0  0  0  0
 37 40  1  0  0  0  0
 37 42  1  0  0  0  0
 38 39  2  0  0  0  0
 38 46  1  0  0  0  0
 40 43  1  0  0  0  0
 40 44  1  0  0  0  0
 40 45  1  0  0  0  0
 46 47  1  0  0  0  0
 46 48  1  0  0  0  0
 47 49  1  0  0  0  0
 47 50  1  0  0  0  0
 47 51  1  0  0  0  0
M  END
$$$$

  -OEChem-05262216553D

 51 50  0     1  0  0  0  0  0999 V2000
    1.1353   -2.4786   -3.3088 C   0  0  0  0  0  0  0  0  0  0  0  0
    0.1515   -1.8230   -2.9999 O   0  0  0  0  0  0  0  0  0  0  0  0
    0.9620   -3.9023   -3.8030 C   0  0  0  0  0  0  0  0  0  0  0  0
    1.4604   -4.5975   -3.1229 H   0  0  0  0  0  0  0  0  0  0  0  0
   -0.1001   -4.1590   -3.8522 H   0  0  0  0  0  0  0  0  0  0  0  0
    1.3943   -4.0069   -4.8012 H   0  0  0  0  0  0  0  0  0  0  0  0
    2.4103   -1.9636   -3.1624 N   0  0  0  0  0  0  0  0  0  0  0  0
    2.7804   -0.5924   -2.7502 C   0  0  2  0  0  0  0  0  0  0  0  0
    2.4295   -0.2243   -1.2902 C   0  0  0  0  0  0  0  0  0  0  0  0
    3.3057    0.2401   -0.5785 O   0  0  0  0  0  0  0  0  0  0  0  0
    2.2060    0.4475   -3.7229 C   0  0  0  0  0  0  0  0  0  0  0  0
    3.1698   -2.5911   -3.4127 H   0  0  0  0  0  0  0  0  0  0  0  0
    3.8713   -0.5248   -2.8205 H   0  0  0  0  0  0  0  0  0  0  0  0
    1.1150    0.4956   -3.6581 H   0  0  0  0  0  0  0  0  0  0  0  0
    2.6037    1.4399   -3.4868 H   0  0  0  0  0  0  0  0  0  0  0  0
    2.4831    0.2002   -4.7520 H   0  0  0  0  0  0  0  0  0  0  0  0
    1.1283   -0.3421   -0.8352 N   0  0  0  0  0  0  0  0  0  0  0  0
    0.6238   -0.1606    0.5406 C   0  0  2  0  0  0  0  0  0  0  0  0
    0.2320    1.3171    0.7576 C   0  0  0  0  0  0  0  0  0  0  0  0
    0.8954    2.0607    1.4690 O   0  0  0  0  0  0  0  0  0  0  0  0
    1.4702   -0.7485    1.7028 C   0  0  0  0  0  0  0  0  0  0  0  0
    1.5887   -2.2936    1.7652 C   0  0  0  0  0  0  0  0  0  0  0  0
    2.5758   -2.6582    2.8813 C   0  0  0  0  0  0  0  0  0  0  0  0
    2.0560   -2.9782    0.4743 C   0  0  0  0  0  0  0  0  0  0  0  0
    0.4984   -0.7735   -1.5174 H   0  0  0  0  0  0  0  0  0  0  0  0
   -0.3185   -0.7131    0.5905 H   0  0  0  0  0  0  0  0  0  0  0  0
    1.0184   -0.4193    2.6447 H   0  0  0  0  0  0  0  0  0  0  0  0
    2.4720   -0.3111    1.6750 H   0  0  0  0  0  0  0  0  0  0  0  0
    0.6049   -2.7001    2.0222 H   0  0  0  0  0  0  0  0  0  0  0  0
    3.5790   -2.2885    2.6447 H   0  0  0  0  0  0  0  0  0  0  0  0
    2.6266   -3.7439    3.0099 H   0  0  0  0  0  0  0  0  0  0  0  0
    2.2584   -2.2169    3.8313 H   0  0  0  0  0  0  0  0  0  0  0  0
    3.0000   -2.5469    0.1286 H   0  0  0  0  0  0  0  0  0  0  0  0
    2.2118   -4.0475    0.6469 H   0  0  0  0  0  0  0  0  0  0  0  0
    1.3027   -2.8792   -0.3109 H   0  0  0  0  0  0  0  0  0  0  0  0
   -0.9408    1.7829    0.1826 N   0  0  0  0  0  0  0  0  0  0  0  0
   -1.4372    3.1748    0.1908 C   0  0  2  0  0  0  0  0  0  0  0  0
   -0.5334    4.1728   -0.5700 C   0  0  0  0  0  0  0  0  0  0  0  0
   -1.0041    4.8225   -1.4950 O   0  0  0  0  0  0  0  0  0  0  0  0
   -1.7254    3.6656    1.6167 C   0  0  0  0  0  0  0  0  0  0  0  0
   -1.3799    1.1442   -0.4743 H   0  0  0  0  0  0  0  0  0  0  0  0
   -2.3960    3.1713   -0.3382 H   0  0  0  0  0  0  0  0  0  0  0  0
   -0.8015    3.8149    2.1827 H   0  0  0  0  0  0  0  0  0  0  0  0
   -2.2594    4.6203    1.5816 H   0  0  0  0  0  0  0  0  0  0  0  0
   -2.3471    2.9405    2.1500 H   0  0  0  0  0  0  0  0  0  0  0  0
    0.8027    4.3165   -0.2533 N   0  0  0  0  0  0  0  0  0  0  0  0
    1.7335    5.1475   -1.0028 C   0  0  0  0  0  0  0  0  0  0  0  0
    1.1654    3.6805    0.4638 H   0  0  0  0  0  0  0  0  0  0  0  0
    1.3748    6.1811   -1.0480 H   0  0  0  0  0  0  0  0  0  0  0  0
    2.7149    5.1443   -0.5184 H   0  0  0  0  0  0  0  0  0  0  0  0
    1.8478    4.7674   -2.0231 H   0  0  0  0  0  0  0  0  0  0  0  0
  1  2  2  0  0  0  0
  1  3  1  0  0  0  0
  1  7  1  0  0  0  0
  3  4  1  0  0  0  0
  3  5  1  0  0  0  0
  3  6  1  0  0  0  0
  7  8  1  0  0  0  0
  7 12  1  0  0  0  0
  8  9  1  0  0  0  0
  8 11  1  0  0  0  0
  8 13  1  0  0  0  0
  9 10  2  0  0  0  0
  9 17  1  0  0  0  0
 11 14  1  0  0  0  0
 11 15  1  0  0  0  0
 11 16  1  0  0  0  0
 17 18  1  0  0  0  0
 17 25  1  0  0  0  0
 18 19  1  0  0  0  0
 18 21  1  0  0  0  0
 18 26  1  0  0  0  0
 19 20  2  0  0  0  0
 19 36  1  0  0  0  0
 21 22  1  0  0  0  0
 21 27  1  0  0  0  0
 21 28  1  0  0  0  0
 22 23  1  0  0  0  0
 22 24  1  0  0  0  0
 22 29  1  0  0  0  0
 23 30  1  0  0  0  0
 23 31  1  0  0  0  0
 23 32  1  0  0  0  0
 24 33  1  0  0  0  0
 24 34  1  0  0  0  0
 24 35  1  0  0  0  0
 36 37  1  0  0  0  0
 36 41  1  0  0  0  0
 37 38  1  0  0  0  0
 37 40  1  0  0  0  0
 37 42  1  0  0  0  0
 38 39  2  0  0  0  0
 38 46  1  0  0  0  0
 40 43  1  0  0  0  0
 40 44  1  0  0  0  0
 40 45  1  0  0  0  0
 46 47  1  0  0  0  0
 46 48  1  0  0  0  0
 47 49  1  0  0  0  0
 47 50  1  0  0  0  0
 47 51  1  0  0  0  0
M  END
$$$$

  -OEChem-05262216553D

 51 50  0     1  0  0  0  0  0999 V2000
    1.2247   -2.5191   -3.2811 C   0  0  0  0  0  0  0  0  0  0  0  0
    0.2248   -1.8762   -2.9979 O   0  0  0  0  0  0  0  0  0  0  0  0
    1.0864   -3.9639   -3.7231 C   0  0  0  0  0  0  0  0  0  0  0  0
    1.6344   -4.6189   -3.0411 H   0  0  0  0  0  0  0  0  0  0  0  0
    0.0335   -4.2602   -3.7238 H   0  0  0  0  0  0  0  0  0  0  0  0
    1.4853   -4.0852   -4.7331 H   0  0  0  0  0  0  0  0  0  0  0  0
    2.4866   -1.9692   -3.1494 N   0  0  0  0  0  0  0  0  0  0  0  0
    2.8215   -0.5853   -2.7501 C   0  0  2  0  0  0  0  0  0  0  0  0
    2.4542   -0.2198   -1.2930 C   0  0  0  0  0  0  0  0  0  0  0  0
    3.3394    0.1782   -0.5528 O   0  0  0  0  0  0  0  0  0  0  0  0
    2.2284    0.4308   -3.7373 C   0  0  0  0  0  0  0  0  0  0  0  0
    3.2629   -2.5893   -3.3639 H   0  0  0  0  0  0  0  0  0  0  0  0
    3.9107   -0.4904   -2.8162 H   0  0  0  0  0  0  0  0  0  0  0  0
    1.1363    0.4540   -3.6794 H   0  0  0  0  0  0  0  0  0  0  0  0
    2.6022    1.4346   -3.5103 H   0  0  0  0  0  0  0  0  0  0  0  0
    2.5173    0.1788   -4.7622 H   0  0  0  0  0  0  0  0  0  0  0  0
    1.1399   -0.3015   -0.8669 N   0  0  0  0  0  0  0  0  0  0  0  0
    0.6071   -0.1264    0.4993 C   0  0  2  0  0  0  0  0  0  0  0  0
    0.2505    1.3553    0.7521 C   0  0  0  0  0  0  0  0  0  0  0  0
    1.0399    2.1172    1.2948 O   0  0  0  0  0  0  0  0  0  0  0  0
    1.4106   -0.7467    1.6741 C   0  0  0  0  0  0  0  0  0  0  0  0
    1.4960   -2.2943    1.7243 C   0  0  0  0  0  0  0  0  0  0  0  0
    2.4474   -2.6884    2.8611 C   0  0  0  0  0  0  0  0  0  0  0  0
    1.9825   -2.9769    0.4399 C   0  0  0  0  0  0  0  0  0  0  0  0
    0.5146   -0.7095   -1.5676 H   0  0  0  0  0  0  0  0  0  0  0  0
   -0.3473   -0.6598    0.5152 H   0  0  0  0  0  0  0  0  0  0  0  0
    0.9426   -0.4166    2.6074 H   0  0  0  0  0  0  0  0  0  0  0  0
    2.4218   -0.3297    1.6765 H   0  0  0  0  0  0  0  0  0  0  0  0
    0.4980   -2.6832    1.9520 H   0  0  0  0  0  0  0  0  0  0  0  0
    3.4633   -2.3364    2.6537 H   0  0  0  0  0  0  0  0  0  0  0  0
    2.4739   -3.7760    2.9805 H   0  0  0  0  0  0  0  0  0  0  0  0
    2.1145   -2.2496    3.8070 H   0  0  0  0  0  0  0  0  0  0  0  0
    2.9459   -2.5655    0.1245 H   0  0  0  0  0  0  0  0  0  0  0  0
    2.1074   -4.0515    0.6050 H   0  0  0  0  0  0  0  0  0  0  0  0
    1.2535   -2.8516   -0.3636 H   0  0  0  0  0  0  0  0  0  0  0  0
   -1.0268    1.8023    0.4473 N   0  0  0  0  0  0  0  0  0  0  0  0
   -1.5500    3.1760    0.6081 C   0  0  2  0  0  0  0  0  0  0  0  0
   -0.8600    4.2384   -0.2801 C   0  0  0  0  0  0  0  0  0  0  0  0
   -1.5437    4.9422   -1.0124 O   0  0  0  0  0  0  0  0  0  0  0  0
   -1.5475    3.6073    2.0819 C   0  0  0  0  0  0  0  0  0  0  0  0
   -1.6073    1.1458   -0.0661 H   0  0  0  0  0  0  0  0  0  0  0  0
   -2.5973    3.1535    0.2892 H   0  0  0  0  0  0  0  0  0  0  0  0
   -0.5295    3.7647    2.4496 H   0  0  0  0  0  0  0  0  0  0  0  0
   -2.0982    4.5460    2.1973 H   0  0  0  0  0  0  0  0  0  0  0  0
   -2.0281    2.8455    2.7028 H   0  0  0  0  0  0  0  0  0  0  0  0
    0.5107    4.4022   -0.2756 N   0  0  0  0  0  0  0  0  0  0  0  0
    1.2257    5.3545   -1.1122 C   0  0  0  0  0  0  0  0  0  0  0  0
    1.0405    3.7593    0.3215 H   0  0  0  0  0  0  0  0  0  0  0  0
    0.8982    6.3764   -0.8940 H   0  0  0  0  0  0  0  0  0  0  0  0
    2.3014    5.2878   -0.9226 H   0  0  0  0  0  0  0  0  0  0  0  0
    1.0467    5.1432   -2.1714 H   0  0  0  0  0  0  0  0  0  0  0  0
  1  2  2  0  0  0  0
  1  3  1  0  0  0  0
  1  7  1  0  0  0  0
  3  4  1  0  0  0  0
  3  5  1  0  0  0  0
  3  6  1  0  0  0  0
  7  8  1  0  0  0  0
  7 12  1  0  0  0  0
  8  9  1  0  0  0  0
  8 11  1  0  0  0  0
  8 13  1  0  0  0  0
  9 10  2  0  0  0  0
  9 17  1  0  0  0  0
 11 14  1  0  0  0  0
 11 15  1  0  0  0  0
 11 16  1  0  0  0  0
 17 18  1  0  0  0  0
 17 25  1  0  0  0  0
 18 19  1  0  0  0  0
 18 21  1  0  0  0  0
 18 26  1  0  0  0  0
 19 20  2  0  0  0  0
 19 36  1  0  0  0  0
 21 22  1  0  0  0  0
 21 27  1  0  0  0  0
 21 28  1  0  0  0  0
 22 23  1  0  0  0  0
 22 24  1  0  0  0  0
 22 29  1  0  0  0  0
 23 30  1  0  0  0  0
 23 31  1  0  0  0  0
 23 32  1  0  0  0  0
 24 33  1  0  0  0  0
 24 34  1  0  0  0  0
 24 35  1  0  0  0  0
 36 37  1  0  0  0  0
 36 41  1  0  0  0  0
 37 38  1  0  0  0  0
 37 40  1  0  0  0  0
 37 42  1  0  0  0  0
 38 39  2  0  0  0  0
 38 46  1  0  0  0  0
 40 43  1  0  0  0  0
 40 44  1  0  0  0  0
 40 45  1  0  0  0  0
 46 47  1  0  0  0  0
 46 48  1  0  0  0  0
 47 49  1  0  0  0  0
 47 50  1  0  0  0  0
 47 51  1  0  0  0  0
M  END
$$$$

  -OEChem-05262216553D

 51 50  0     1  0  0  0  0  0999 V2000
    1.2247   -2.4423   -3.3131 C   0  0  0  0  0  0  0  0  0  0  0  0
    0.2367   -1.7865   -3.0179 O   0  0  0  0  0  0  0  0  0  0  0  0
    1.0583   -3.8715   -3.7935 C   0  0  0  0  0  0  0  0  0  0  0  0
    1.6300   -4.5503   -3.1555 H   0  0  0  0  0  0  0  0  0  0  0  0
    0.0043   -4.1618   -3.7587 H   0  0  0  0  0  0  0  0  0  0  0  0
    1.4137   -3.9630   -4.8227 H   0  0  0  0  0  0  0  0  0  0  0  0
    2.4973   -1.9211   -3.1690 N   0  0  0  0  0  0  0  0  0  0  0  0
    2.8587   -0.5572   -2.7270 C   0  0  2  0  0  0  0  0  0  0  0  0
    2.5012   -0.2361   -1.2573 C   0  0  0  0  0  0  0  0  0  0  0  0
    3.4025    0.0822   -0.4978 O   0  0  0  0  0  0  0  0  0  0  0  0
    2.2820    0.5021   -3.6778 C   0  0  0  0  0  0  0  0  0  0  0  0
    3.2615   -2.5532   -3.3915 H   0  0  0  0  0  0  0  0  0  0  0  0
    3.9494   -0.4796   -2.7926 H   0  0  0  0  0  0  0  0  0  0  0  0
    1.1905    0.5414   -3.6183 H   0  0  0  0  0  0  0  0  0  0  0  0
    2.6723    1.4909   -3.4161 H   0  0  0  0  0  0  0  0  0  0  0  0
    2.5659    0.2808   -4.7108 H   0  0  0  0  0  0  0  0  0  0  0  0
    1.1840   -0.2989   -0.8364 N   0  0  0  0  0  0  0  0  0  0  0  0
    0.6464   -0.1236    0.5276 C   0  0  2  0  0  0  0  0  0  0  0  0
    0.3049    1.3568    0.8057 C   0  0  0  0  0  0  0  0  0  0  0  0
    1.1798    2.1717    1.0644 O   0  0  0  0  0  0  0  0  0  0  0  0
    1.4242   -0.7613    1.7087 C   0  0  0  0  0  0  0  0  0  0  0  0
    1.4781   -2.3111    1.7512 C   0  0  0  0  0  0  0  0  0  0  0  0
    2.4077   -2.7341    2.8961 C   0  0  0  0  0  0  0  0  0  0  0  0
    1.9635   -2.9953    0.4668 C   0  0  0  0  0  0  0  0  0  0  0  0
    0.5437   -0.6464   -1.5560 H   0  0  0  0  0  0  0  0  0  0  0  0
   -0.3130   -0.6472    0.5256 H   0  0  0  0  0  0  0  0  0  0  0  0
    0.9536   -0.4253    2.6386 H   0  0  0  0  0  0  0  0  0  0  0  0
    2.4428   -0.3640    1.7234 H   0  0  0  0  0  0  0  0  0  0  0  0
    0.4696   -2.6808    1.9649 H   0  0  0  0  0  0  0  0  0  0  0  0
    3.4328   -2.3996    2.7058 H   0  0  0  0  0  0  0  0  0  0  0  0
    2.4120   -3.8232    3.0049 H   0  0  0  0  0  0  0  0  0  0  0  0
    2.0711   -2.2990    3.8422 H   0  0  0  0  0  0  0  0  0  0  0  0
    2.9389   -2.6032    0.1645 H   0  0  0  0  0  0  0  0  0  0  0  0
    2.0632   -4.0734    0.6258 H   0  0  0  0  0  0  0  0  0  0  0  0
    1.2467   -2.8487   -0.3443 H   0  0  0  0  0  0  0  0  0  0  0  0
   -1.0230    1.7588    0.8109 N   0  0  0  0  0  0  0  0  0  0  0  0
   -1.5459    3.1110    1.1040 C   0  0  2  0  0  0  0  0  0  0  0  0
   -1.1722    4.1989    0.0692 C   0  0  0  0  0  0  0  0  0  0  0  0
   -2.0460    4.9431   -0.3570 O   0  0  0  0  0  0  0  0  0  0  0  0
   -1.1671    3.5568    2.5237 C   0  0  0  0  0  0  0  0  0  0  0  0
   -1.6975    1.0555    0.5246 H   0  0  0  0  0  0  0  0  0  0  0  0
   -2.6380    3.0373    1.0778 H   0  0  0  0  0  0  0  0  0  0  0  0
   -0.0958    3.7625    2.6039 H   0  0  0  0  0  0  0  0  0  0  0  0
   -1.7081    4.4714    2.7855 H   0  0  0  0  0  0  0  0  0  0  0  0
   -1.4278    2.7803    3.2490 H   0  0  0  0  0  0  0  0  0  0  0  0
    0.1240    4.3553   -0.3790 N   0  0  0  0  0  0  0  0  0  0  0  0
    0.5534    5.3993   -1.2980 C   0  0  0  0  0  0  0  0  0  0  0  0
    0.8248    3.7412    0.0476 H   0  0  0  0  0  0  0  0  0  0  0  0
    0.4224    6.3861   -0.8424 H   0  0  0  0  0  0  0  0  0  0  0  0
    1.6110    5.2689   -1.5471 H   0  0  0  0  0  0  0  0  0  0  0  0
   -0.0270    5.3575   -2.2257 H   0  0  0  0  0  0  0  0  0  0  0  0
  1  2  2  0  0  0  0
  1  3  1  0  0  0  0
  1  7  1  0  0  0  0
  3  4  1  0  0  0  0
  3  5  1  0  0  0  0
  3  6  1  0  0  0  0
  7  8  1  0  0  0  0
  7 12  1  0  0  0  0
  8  9  1  0  0  0  0
  8 11  1  0  0  0  0
  8 13  1  0  0  0  0
  9 10  2  0  0  0  0
  9 17  1  0  0  0  0
 11 14  1  0  0  0  0
 11 15  1  0  0  0  0
 11 16  1  0  0  0  0
 17 18  1  0  0  0  0
 17 25  1  0  0  0  0
 18 19  1  0  0  0  0
 18 21  1  0  0  0  0
 18 26  1  0  0  0  0
 19 20  2  0  0  0  0
 19 36  1  0  0  0  0
 21 22  1  0  0  0  0
 21 27  1  0  0  0  0
 21 28  1  0  0  0  0
 22 23  1  0  0  0  0
 22 24  1  0  0  0  0
 22 29  1  0  0  0  0
 23 30  1  0  0  0  0
 23 31  1  0  0  0  0
 23 32  1  0  0  0  0
 24 33  1  0  0  0  0
 24 34  1  0  0  0  0
 24 35  1  0  0  0  0
 36 37  1  0  0  0  0
 36 41  1  0  0  0  0
 37 38  1  0  0  0  0
 37 40  1  0  0  0  0
 37 42  1  0  0  0  0
 38 39  2  0  0  0  0
 38 46  1  0  0  0  0
 40 43  1  0  0  0  0
 40 44  1  0  0  0  0
 40 45  1  0  0  0  0
 46 47  1  0  0  0  0
 46 48  1  0  0  0  0
 47 49  1  0  0  0  0
 47 50  1  0  0  0  0
 47 51  1  0  0  0  0
M  END
$$$$

  -OEChem-05262216553D

 51 50  0     1  0  0  0  0  0999 V2000
    1.2293   -2.3085   -3.3766 C   0  0  0  0  0  0  0  0  0  0  0  0
    0.2590   -1.6404   -3.0525 O   0  0  0  0  0  0  0  0  0  0  0  0
    1.0237   -3.7013   -3.9408 C   0  0  0  0  0  0  0  0  0  0  0  0
    1.5066   -4.4402   -3.2965 H   0  0  0  0  0  0  0  0  0  0  0  0
   -0.0439   -3.9318   -4.0005 H   0  0  0  0  0  0  0  0  0  0  0  0
    1.4530   -3.7653   -4.9437 H   0  0  0  0  0  0  0  0  0  0  0  0
    2.5161   -1.8371   -3.1934 N   0  0  0  0  0  0  0  0  0  0  0  0
    2.9145   -0.5137   -2.6686 C   0  0  2  0  0  0  0  0  0  0  0  0
    2.5545   -0.2698   -1.1849 C   0  0  0  0  0  0  0  0  0  0  0  0
    3.4619   -0.0401   -0.4003 O   0  0  0  0  0  0  0  0  0  0  0  0
    2.3761    0.6175   -3.5564 C   0  0  0  0  0  0  0  0  0  0  0  0
    3.2624   -2.4777   -3.4495 H   0  0  0  0  0  0  0  0  0  0  0  0
    4.0073   -0.4649   -2.7233 H   0  0  0  0  0  0  0  0  0  0  0  0
    1.2860    0.6864   -3.4994 H   0  0  0  0  0  0  0  0  0  0  0  0
    2.7940    1.5766   -3.2337 H   0  0  0  0  0  0  0  0  0  0  0  0
    2.6600    0.4499   -4.5996 H   0  0  0  0  0  0  0  0  0  0  0  0
    1.2311   -0.3141   -0.7796 N   0  0  0  0  0  0  0  0  0  0  0  0
    0.6775   -0.1466    0.5792 C   0  0  2  0  0  0  0  0  0  0  0  0
    0.3525    1.3325    0.8859 C   0  0  0  0  0  0  0  0  0  0  0  0
    1.2210    2.1934    0.8527 O   0  0  0  0  0  0  0  0  0  0  0  0
    1.4269   -0.8073    1.7648 C   0  0  0  0  0  0  0  0  0  0  0  0
    1.4574   -2.3577    1.7917 C   0  0  0  0  0  0  0  0  0  0  0  0
    2.3629   -2.8039    2.9465 C   0  0  0  0  0  0  0  0  0  0  0  0
    1.9532   -3.0381    0.5093 C   0  0  0  0  0  0  0  0  0  0  0  0
    0.5831   -0.5772   -1.5275 H   0  0  0  0  0  0  0  0  0  0  0  0
   -0.2889   -0.6566    0.5497 H   0  0  0  0  0  0  0  0  0  0  0  0
    0.9460   -0.4753    2.6909 H   0  0  0  0  0  0  0  0  0  0  0  0
    2.4506   -0.4242    1.7996 H   0  0  0  0  0  0  0  0  0  0  0  0
    0.4406   -2.7141    1.9860 H   0  0  0  0  0  0  0  0  0  0  0  0
    3.3961   -2.4858    2.7717 H   0  0  0  0  0  0  0  0  0  0  0  0
    2.3474   -3.8935    3.0473 H   0  0  0  0  0  0  0  0  0  0  0  0
    2.0207   -2.3690    3.8908 H   0  0  0  0  0  0  0  0  0  0  0  0
    2.9445   -2.6670    0.2336 H   0  0  0  0  0  0  0  0  0  0  0  0
    2.0226   -4.1201    0.6576 H   0  0  0  0  0  0  0  0  0  0  0  0
    1.2592   -2.8643   -0.3163 H   0  0  0  0  0  0  0  0  0  0  0  0
   -0.9514    1.6925    1.1946 N   0  0  0  0  0  0  0  0  0  0  0  0
   -1.4448    3.0387    1.5559 C   0  0  2  0  0  0  0  0  0  0  0  0
   -1.3837    4.0880    0.4209 C   0  0  0  0  0  0  0  0  0  0  0  0
   -2.3925    4.7212    0.1373 O   0  0  0  0  0  0  0  0  0  0  0  0
   -0.7506    3.5633    2.8208 C   0  0  0  0  0  0  0  0  0  0  0  0
   -1.6387    0.9464    1.1510 H   0  0  0  0  0  0  0  0  0  0  0  0
   -2.5058    2.9283    1.8024 H   0  0  0  0  0  0  0  0  0  0  0  0
    0.3012    3.7970    2.6313 H   0  0  0  0  0  0  0  0  0  0  0  0
   -1.2446    4.4772    3.1655 H   0  0  0  0  0  0  0  0  0  0  0  0
   -0.8028    2.8182    3.6200 H   0  0  0  0  0  0  0  0  0  0  0  0
   -0.2159    4.3341   -0.2722 N   0  0  0  0  0  0  0  0  0  0  0  0
   -0.0868    5.3135   -1.3411 C   0  0  0  0  0  0  0  0  0  0  0  0
    0.5941    3.7650   -0.0067 H   0  0  0  0  0  0  0  0  0  0  0  0
    0.9393    5.3224   -1.7211 H   0  0  0  0  0  0  0  0  0  0  0  0
   -0.7612    5.0686   -2.1679 H   0  0  0  0  0  0  0  0  0  0  0  0
   -0.3282    6.3160   -0.9730 H   0  0  0  0  0  0  0  0  0  0  0  0
  1  2  2  0  0  0  0
  1  3  1  0  0  0  0
  1  7  1  0  0  0  0
  3  4  1  0  0  0  0
  3  5  1  0  0  0  0
  3  6  1  0  0  0  0
  7  8  1  0  0  0  0
  7 12  1  0  0  0  0
  8  9  1  0  0  0  0
  8 11  1  0  0  0  0
  8 13  1  0  0  0  0
  9 10  2  0  0  0  0
  9 17  1  0  0  0  0
 11 14  1  0  0  0  0
 11 15  1  0  0  0  0
 11 16  1  0  0  0  0
 17 18  1  0  0  0  0
 17 25  1  0  0  0  0
 18 19  1  0  0  0  0
 18 21  1  0  0  0  0
 18 26  1  0  0  0  0
 19 20  2  0  0  0  0
 19 36  1  0  0  0  0
 21 22  1  0  0  0  0
 21 27  1  0  0  0  0
 21 28  1  0  0  0  0
 22 23  1  0  0  0  0
 22 24  1  0  0  0  0
 22 29  1  0  0  0  0
 23 30  1  0  0  0  0
 23 31  1  0  0  0  0
 23 32  1  0  0  0  0
 24 33  1  0  0  0  0
 24 34  1  0  0  0  0
 24 35  1  0  0  0  0
 36 37  1  0  0  0  0
 36 41  1  0  0  0  0
 37 38  1  0  0  0  0
 37 40  1  0  0  0  0
 37 42  1  0  0  0  0
 38 39  2  0  0  0  0
 38 46  1  0  0  0  0
 40 43  1  0  0  0  0
 40 44  1  0  0  0  0
 40 45  1  0  0  0  0
 46 47  1  0  0  0  0
 46 48  1  0  0  0  0
 47 49  1  0  0  0  0
 47 50  1  0  0  0  0
 47 51  1  0  0  0  0
M  END
$$$$

  -OEChem-05262216553D

 51 50  0     1  0  0  0  0  0999 V2000
    1.1267   -2.2392   -3.3789 C   0  0  0  0  0  0  0  0  0  0  0  0
    0.1907   -1.5353   -3.0314 O   0  0  0  0  0  0  0  0  0  0  0  0
    0.8548   -3.6262   -3.9300 C   0  0  0  0  0  0  0  0  0  0  0  0
    1.3254   -4.3806   -3.2942 H   0  0  0  0  0  0  0  0  0  0  0  0
   -0.2221   -3.8160   -3.9616 H   0  0  0  0  0  0  0  0  0  0  0  0
    1.2559   -3.7110   -4.9430 H   0  0  0  0  0  0  0  0  0  0  0  0
    2.4344   -1.8158   -3.2298 N   0  0  0  0  0  0  0  0  0  0  0  0
    2.8945   -0.5176   -2.6931 C   0  0  2  0  0  0  0  0  0  0  0  0
    2.5839   -0.2971   -1.1947 C   0  0  0  0  0  0  0  0  0  0  0  0
    3.5203   -0.1455   -0.4242 O   0  0  0  0  0  0  0  0  0  0  0  0
    2.3739    0.6501   -3.5443 C   0  0  0  0  0  0  0  0  0  0  0  0
    3.1496   -2.4868   -3.4961 H   0  0  0  0  0  0  0  0  0  0  0  0
    3.9863   -0.5059   -2.7785 H   0  0  0  0  0  0  0  0  0  0  0  0
    1.2895    0.7614   -3.4531 H   0  0  0  0  0  0  0  0  0  0  0  0
    2.8393    1.5861   -3.2188 H   0  0  0  0  0  0  0  0  0  0  0  0
    2.6201    0.4905   -4.5983 H   0  0  0  0  0  0  0  0  0  0  0  0
    1.2708   -0.2931   -0.7560 N   0  0  0  0  0  0  0  0  0  0  0  0
    0.7637   -0.1265    0.6208 C   0  0  2  0  0  0  0  0  0  0  0  0
    0.5059    1.3561    0.9766 C   0  0  0  0  0  0  0  0  0  0  0  0
    1.2730    2.2423    0.6229 O   0  0  0  0  0  0  0  0  0  0  0  0
    1.5057   -0.8539    1.7718 C   0  0  0  0  0  0  0  0  0  0  0  0
    1.4488   -2.4039    1.7627 C   0  0  0  0  0  0  0  0  0  0  0  0
    2.3569   -2.9289    2.8820 C   0  0  0  0  0  0  0  0  0  0  0  0
    1.8715   -3.0784    0.4512 C   0  0  0  0  0  0  0  0  0  0  0  0
    0.5896   -0.4886   -1.4948 H   0  0  0  0  0  0  0  0  0  0  0  0
   -0.2272   -0.5884    0.5997 H   0  0  0  0  0  0  0  0  0  0  0  0
    1.0683   -0.5197    2.7184 H   0  0  0  0  0  0  0  0  0  0  0  0
    2.5494   -0.5288    1.7884 H   0  0  0  0  0  0  0  0  0  0  0  0
    0.4186   -2.7079    1.9757 H   0  0  0  0  0  0  0  0  0  0  0  0
    3.4011   -2.6631    2.6873 H   0  0  0  0  0  0  0  0  0  0  0  0
    2.2841   -4.0185    2.9566 H   0  0  0  0  0  0  0  0  0  0  0  0
    2.0632   -2.5011    3.8456 H   0  0  0  0  0  0  0  0  0  0  0  0
    2.8712   -2.7504    0.1525 H   0  0  0  0  0  0  0  0  0  0  0  0
    1.8913   -4.1657    0.5735 H   0  0  0  0  0  0  0  0  0  0  0  0
    1.1623   -2.8515   -0.3485 H   0  0  0  0  0  0  0  0  0  0  0  0
   -0.6706    1.6968    1.6288 N   0  0  0  0  0  0  0  0  0  0  0  0
   -1.0884    3.0429    2.0750 C   0  0  2  0  0  0  0  0  0  0  0  0
   -1.4205    4.0363    0.9373 C   0  0  0  0  0  0  0  0  0  0  0  0
   -2.5077    4.5998    0.9325 O   0  0  0  0  0  0  0  0  0  0  0  0
   -0.0652    3.6467    3.0475 C   0  0  0  0  0  0  0  0  0  0  0  0
   -1.2978    0.9267    1.8403 H   0  0  0  0  0  0  0  0  0  0  0  0
   -2.0184    2.9131    2.6378 H   0  0  0  0  0  0  0  0  0  0  0  0
    0.8670    3.9040    2.5360 H   0  0  0  0  0  0  0  0  0  0  0  0
   -0.4694    4.5596    3.4959 H   0  0  0  0  0  0  0  0  0  0  0  0
    0.1616    2.9381    3.8496 H   0  0  0  0  0  0  0  0  0  0  0  0
   -0.5170    4.3031   -0.0711 N   0  0  0  0  0  0  0  0  0  0  0  0
   -0.7719    5.2090   -1.1816 C   0  0  0  0  0  0  0  0  0  0  0  0
    0.3587    3.7716   -0.0423 H   0  0  0  0  0  0  0  0  0  0  0  0
   -1.0240    6.2078   -0.8109 H   0  0  0  0  0  0  0  0  0  0  0  0
    0.1182    5.2897   -1.8127 H   0  0  0  0  0  0  0  0  0  0  0  0
   -1.6006    4.8404   -1.7947 H   0  0  0  0  0  0  0  0  0  0  0  0
  1  2  2  0  0  0  0
  1  3  1  0  0  0  0
  1  7  1  0  0  0  0
  3  4  1  0  0  0  0
  3  5  1  0  0  0  0
  3  6  1  0  0  0  0
  7  8  1  0  0  0  0
  7 12  1  0  0  0  0
  8  9  1  0  0  0  0
  8 11  1  0  0  0  0
  8 13  1  0  0  0  0
  9 10  2  0  0  0  0
  9 17  1  0  0  0  0
 11 14  1  0  0  0  0
 11 15  1  0  0  0  0
 11 16  1  0  0  0  0
 17 18  1  0  0  0  0
 17 25  1  0  0  0  0
 18 19  1  0  0  0  0
 18 21  1  0  0  0  0
 18 26  1  0  0  0  0
 19 20  2  0  0  0  0
 19 36  1  0  0  0  0
 21 22  1  0  0  0  0
 21 27  1  0  0  0  0
 21 28  1  0  0  0  0
 22 23  1  0  0  0  0
 22 24  1  0  0  0  0
 22 29  1  0  0  0  0
 23 30  1  0  0  0  0
 23 31  1  0  0  0  0
 23 32  1  0  0  0  0
 24 33  1  0  0  0  0
 24 34  1  0  0  0  0
 24 35  1  0  0  0  0
 36 37  1  0  0  0  0
 36 41  1  0  0  0  0
 37 38  1  0  0  0  0
 37 40  1  0  0  0  0
 37 42  1  0  0  0  0
 38 39  2  0  0  0  0
 38 46  1  0  0  0  0
 40 43  1  0  0  0  0
 40 44  1  0  0  0  0
 40 45  1  0  0  0  0
 46 47  1  0  0  0  0
 46 48  1  0  0  0  0
 47 49  1  0  0  0  0
 47 50  1  0  0  0  0
 47 51  1  0  0  0  0
M  END
$$$$

  -OEChem-05262216553D

 51 50  0     1  0  0  0  0  0999 V2000
    1.1335   -2.1984   -3.3962 C   0  0  0  0  0  0  0  0  0  0  0  0
    0.2173   -1.4779   -3.0304 O   0  0  0  0  0  0  0  0  0  0  0  0
    0.8224   -3.5540   -4.0016 C   0  0  0  0  0  0  0  0  0  0  0  0
    1.2833   -4.3450   -3.4046 H   0  0  0  0  0  0  0  0  0  0  0  0
   -0.2590   -3.7175   -4.0265 H   0  0  0  0  0  0  0  0  0  0  0  0
    1.2086   -3.6043   -5.0229 H   0  0  0  0  0  0  0  0  0  0  0  0
    2.4530   -1.8208   -3.2280 N   0  0  0  0  0  0  0  0  0  0  0  0
    2.9497   -0.5511   -2.6568 C   0  0  2  0  0  0  0  0  0  0  0  0
    2.6330   -0.3535   -1.1566 C   0  0  0  0  0  0  0  0  0  0  0  0
    3.5660   -0.2470   -0.3737 O   0  0  0  0  0  0  0  0  0  0  0  0
    2.4713    0.6519   -3.4826 C   0  0  0  0  0  0  0  0  0  0  0  0
    3.1487   -2.5026   -3.5169 H   0  0  0  0  0  0  0  0  0  0  0  0
    4.0422   -0.5712   -2.7331 H   0  0  0  0  0  0  0  0  0  0  0  0
    1.3899    0.7922   -3.3968 H   0  0  0  0  0  0  0  0  0  0  0  0
    2.9603    1.5653   -3.1286 H   0  0  0  0  0  0  0  0  0  0  0  0
    2.7214    0.5120   -4.5384 H   0  0  0  0  0  0  0  0  0  0  0  0
    1.3170   -0.2976   -0.7315 N   0  0  0  0  0  0  0  0  0  0  0  0
    0.8041   -0.1243    0.6420 C   0  0  2  0  0  0  0  0  0  0  0  0
    0.6067    1.3647    1.0154 C   0  0  0  0  0  0  0  0  0  0  0  0
    1.2247    2.2561    0.4461 O   0  0  0  0  0  0  0  0  0  0  0  0
    1.5033   -0.9034    1.7879 C   0  0  0  0  0  0  0  0  0  0  0  0
    1.3742   -2.4488    1.7539 C   0  0  0  0  0  0  0  0  0  0  0  0
    2.2484   -3.0320    2.8719 C   0  0  0  0  0  0  0  0  0  0  0  0
    1.7785   -3.1229    0.4358 C   0  0  0  0  0  0  0  0  0  0  0  0
    0.6344   -0.4463   -1.4799 H   0  0  0  0  0  0  0  0  0  0  0  0
   -0.2089   -0.5349    0.6052 H   0  0  0  0  0  0  0  0  0  0  0  0
    1.0771   -0.5658    2.7382 H   0  0  0  0  0  0  0  0  0  0  0  0
    2.5610   -0.6286    1.8169 H   0  0  0  0  0  0  0  0  0  0  0  0
    0.3292   -2.7082    1.9527 H   0  0  0  0  0  0  0  0  0  0  0  0
    3.3043   -2.8018    2.6961 H   0  0  0  0  0  0  0  0  0  0  0  0
    2.1341   -4.1194    2.9215 H   0  0  0  0  0  0  0  0  0  0  0  0
    1.9586   -2.6146    3.8413 H   0  0  0  0  0  0  0  0  0  0  0  0
    2.7958   -2.8386    0.1519 H   0  0  0  0  0  0  0  0  0  0  0  0
    1.7457   -4.2115    0.5415 H   0  0  0  0  0  0  0  0  0  0  0  0
    1.0896   -2.8513   -0.3675 H   0  0  0  0  0  0  0  0  0  0  0  0
   -0.3873    1.7038    1.9227 N   0  0  0  0  0  0  0  0  0  0  0  0
   -0.7138    3.0538    2.4313 C   0  0  2  0  0  0  0  0  0  0  0  0
   -1.3434    4.0166    1.3972 C   0  0  0  0  0  0  0  0  0  0  0  0
   -2.3627    4.6280    1.6916 O   0  0  0  0  0  0  0  0  0  0  0  0
    0.5062    3.6983    3.1045 C   0  0  0  0  0  0  0  0  0  0  0  0
   -0.9022    0.9252    2.3222 H   0  0  0  0  0  0  0  0  0  0  0  0
   -1.4712    2.9205    3.2105 H   0  0  0  0  0  0  0  0  0  0  0  0
    1.2686    3.9700    2.3684 H   0  0  0  0  0  0  0  0  0  0  0  0
    0.2051    4.6080    3.6333 H   0  0  0  0  0  0  0  0  0  0  0  0
    0.9509    3.0087    3.8280 H   0  0  0  0  0  0  0  0  0  0  0  0
   -0.7788    4.2086    0.1529 N   0  0  0  0  0  0  0  0  0  0  0  0
   -1.3048    5.1154   -0.8568 C   0  0  0  0  0  0  0  0  0  0  0  0
    0.0811    3.6848   -0.0363 H   0  0  0  0  0  0  0  0  0  0  0  0
   -1.3104    6.1440   -0.4817 H   0  0  0  0  0  0  0  0  0  0  0  0
   -0.6828    5.0775   -1.7561 H   0  0  0  0  0  0  0  0  0  0  0  0
   -2.3267    4.8328   -1.1298 H   0  0  0  0  0  0  0  0  0  0  0  0
  1  2  2  0  0  0  0
  1  3  1  0  0  0  0
  1  7  1  0  0  0  0
  3  4  1  0  0  0  0
  3  5  1  0  0  0  0
  3  6  1  0  0  0  0
  7  8  1  0  0  0  0
  7 12  1  0  0  0  0
  8  9  1  0  0  0  0
  8 11  1  0  0  0  0
  8 13  1  0  0  0  0
  9 10  2  0  0  0  0
  9 17  1  0  0  0  0
 11 14  1  0  0  0  0
 11 15  1  0  0  0  0
 11 16  1  0  0  0  0
 17 18  1  0  0  0  0
 17 25  1  0  0  0  0
 18 19  1  0  0  0  0
 18 21  1  0  0  0  0
 18 26  1  0  0  0  0
 19 20  2  0  0  0  0
 19 36  1  0  0  0  0
 21 22  1  0  0  0  0
 21 27  1  0  0  0  0
 21 28  1  0  0  0  0
 22 23  1  0  0  0  0
 22 24  1  0  0  0  0
 22 29  1  0  0  0  0
 23 30  1  0  0  0  0
 23 31  1  0  0  0  0
 23 32  1  0  0  0  0
 24 33  1  0  0  0  0
 24 34  1  0  0  0  0
 24 35  1  0  0  0  0
 36 37  1  0  0  0  0
 36 41  1  0  0  0  0
 37 38  1  0  0  0  0
 37 40  1  0  0  0  0
 37 42  1  0  0  0  0
 38 39  2  0  0  0  0
 38 46  1  0  0  0  0
 40 43  1  0  0  0  0
 40 44  1  0  0  0  0
 40 45  1  0  0  0  0
 46 47  1  0  0  0  0
 46 48  1  0  0  0  0
 47 49  1  0  0  0  0
 47 50  1  0  0  0  0
 47 51  1  0  0  0  0
M  END
$$$$

  -OEChem-05262216553D

 51 50  0     1  0  0  0  0  0999 V2000
    1.0942   -2.1839   -3.3759 C   0  0  0  0  0  0  0  0  0  0  0  0
    0.2062   -1.4333   -3.0016 O   0  0  0  0  0  0  0  0  0  0  0  0
    0.7318   -3.5356   -3.9610 C   0  0  0  0  0  0  0  0  0  0  0  0
    1.1943   -4.3336   -3.3750 H   0  0  0  0  0  0  0  0  0  0  0  0
   -0.3531   -3.6741   -3.9474 H   0  0  0  0  0  0  0  0  0  0  0  0
    1.0815   -3.6016   -4.9941 H   0  0  0  0  0  0  0  0  0  0  0  0
    2.4271   -1.8460   -3.2309 N   0  0  0  0  0  0  0  0  0  0  0  0
    2.9697   -0.5926   -2.6661 C   0  0  2  0  0  0  0  0  0  0  0  0
    2.6788   -0.3894   -1.1619 C   0  0  0  0  0  0  0  0  0  0  0  0
    3.6238   -0.3149   -0.3893 O   0  0  0  0  0  0  0  0  0  0  0  0
    2.5169    0.6268   -3.4826 C   0  0  0  0  0  0  0  0  0  0  0  0
    3.0975   -2.5514   -3.5233 H   0  0  0  0  0  0  0  0  0  0  0  0
    4.0598   -0.6455   -2.7578 H   0  0  0  0  0  0  0  0  0  0  0  0
    1.4424    0.8030   -3.3787 H   0  0  0  0  0  0  0  0  0  0  0  0
    3.0414    1.5231   -3.1360 H   0  0  0  0  0  0  0  0  0  0  0  0
    2.7445    0.4805   -4.5425 H   0  0  0  0  0  0  0  0  0  0  0  0
    1.3726   -0.2796   -0.7188 N   0  0  0  0  0  0  0  0  0  0  0  0
    0.8896   -0.1033    0.6654 C   0  0  2  0  0  0  0  0  0  0  0  0
    0.7699    1.3910    1.0588 C   0  0  0  0  0  0  0  0  0  0  0  0
    1.1576    2.2811    0.3103 O   0  0  0  0  0  0  0  0  0  0  0  0
    1.5637   -0.9561    1.7762 C   0  0  0  0  0  0  0  0  0  0  0  0
    1.3373   -2.4893    1.7021 C   0  0  0  0  0  0  0  0  0  0  0  0
    2.1959   -3.1576    2.7836 C   0  0  0  0  0  0  0  0  0  0  0  0
    1.6677   -3.1495    0.3567 C   0  0  0  0  0  0  0  0  0  0  0  0
    0.6729   -0.3916   -1.4576 H   0  0  0  0  0  0  0  0  0  0  0  0
   -0.1462   -0.4540    0.6406 H   0  0  0  0  0  0  0  0  0  0  0  0
    1.1801   -0.6259    2.7459 H   0  0  0  0  0  0  0  0  0  0  0  0
    2.6365   -0.7483    1.7905 H   0  0  0  0  0  0  0  0  0  0  0  0
    0.2826   -2.6893    1.9192 H   0  0  0  0  0  0  0  0  0  0  0  0
    3.2607   -2.9979    2.5836 H   0  0  0  0  0  0  0  0  0  0  0  0
    2.0060   -4.2353    2.8133 H   0  0  0  0  0  0  0  0  0  0  0  0
    1.9614   -2.7427    3.7690 H   0  0  0  0  0  0  0  0  0  0  0  0
    2.6910   -2.9141    0.0506 H   0  0  0  0  0  0  0  0  0  0  0  0
    1.5769   -4.2372    0.4352 H   0  0  0  0  0  0  0  0  0  0  0  0
    0.9726   -2.8187   -0.4188 H   0  0  0  0  0  0  0  0  0  0  0  0
    0.0462    1.7372    2.1913 N   0  0  0  0  0  0  0  0  0  0  0  0
   -0.1958    3.0962    2.7220 C   0  0  2  0  0  0  0  0  0  0  0  0
   -1.1507    3.9699    1.8760 C   0  0  0  0  0  0  0  0  0  0  0  0
   -2.0670    4.5637    2.4295 O   0  0  0  0  0  0  0  0  0  0  0  0
    1.1244    3.8328    2.9906 C   0  0  0  0  0  0  0  0  0  0  0  0
   -0.3062    0.9597    2.7409 H   0  0  0  0  0  0  0  0  0  0  0  0
   -0.6885    2.9706    3.6916 H   0  0  0  0  0  0  0  0  0  0  0  0
    1.6303    4.0972    2.0575 H   0  0  0  0  0  0  0  0  0  0  0  0
    0.9307    4.7569    3.5443 H   0  0  0  0  0  0  0  0  0  0  0  0
    1.7962    3.2066    3.5852 H   0  0  0  0  0  0  0  0  0  0  0  0
   -0.9912    4.0983    0.5114 N   0  0  0  0  0  0  0  0  0  0  0  0
   -1.8197    4.9448   -0.3349 C   0  0  0  0  0  0  0  0  0  0  0  0
   -0.1855    3.6126    0.1064 H   0  0  0  0  0  0  0  0  0  0  0  0
   -1.6968    5.9971   -0.0590 H   0  0  0  0  0  0  0  0  0  0  0  0
   -1.5316    4.8246   -1.3837 H   0  0  0  0  0  0  0  0  0  0  0  0
   -2.8758    4.6737   -0.2333 H   0  0  0  0  0  0  0  0  0  0  0  0
  1  2  2  0  0  0  0
  1  3  1  0  0  0  0
  1  7  1  0  0  0  0
  3  4  1  0  0  0  0
  3  5  1  0  0  0  0
  3  6  1  0  0  0  0
  7  8  1  0  0  0  0
  7 12  1  0  0  0  0
  8  9  1  0  0  0  0
  8 11  1  0  0  0  0
  8 13  1  0  0  0  0
  9 10  2  0  0  0  0
  9 17  1  0  0  0  0
 11 14  1  0  0  0  0
 11 15  1  0  0  0  0
 11 16  1  0  0  0  0
 17 18  1  0  0  0  0
 17 25  1  0  0  0  0
 18 19  1  0  0  0  0
 18 21  1  0  0  0  0
 18 26  1  0  0  0  0
 19 20  2  0  0  0  0
 19 36  1  0  0  0  0
 21 22  1  0  0  0  0
 21 27  1  0  0  0  0
 21 28  1  0  0  0  0
 22 23  1  0  0  0  0
 22 24  1  0  0  0  0
 22 29  1  0  0  0  0
 23 30  1  0  0  0  0
 23 31  1  0  0  0  0
 23 32  1  0  0  0  0
 24 33  1  0  0  0  0
 24 34  1  0  0  0  0
 24 35  1  0  0  0  0
 36 37  1  0  0  0  0
 36 41  1  0  0  0  0
 37 38  1  0  0  0  0
 37 40  1  0  0  0  0
 37 42  1  0  0  0  0
 38 39  2  0  0  0  0
 38 46  1  0  0  0  0
 40 43  1  0  0  0  0
 40 44  1  0  0  0  0
 40 45  1  0  0  0  0
 46 47  1  0  0  0  0
 46 48  1  0  0  0  0
 47 49  1  0  0  0  0
 47 50  1  0  0  0  0
 47 51  1  0  0  0  0
M  END
$$$$

  -OEChem-05262216553D

 51 50  0     1  0  0  0  0  0999 V2000
    0.9175   -2.0755   -3.3273 C   0  0  0  0  0  0  0  0  0  0  0  0
    0.0641   -1.3084   -2.9102 O   0  0  0  0  0  0  0  0  0  0  0  0
    0.5032   -3.4337   -3.8609 C   0  0  0  0  0  0  0  0  0  0  0  0
    0.9404   -4.2253   -3.2476 H   0  0  0  0  0  0  0  0  0  0  0  0
   -0.5859   -3.5326   -3.8382 H   0  0  0  0  0  0  0  0  0  0  0  0
    0.8438   -3.5502   -4.8925 H   0  0  0  0  0  0  0  0  0  0  0  0
    2.2599   -1.7472   -3.2795 N   0  0  0  0  0  0  0  0  0  0  0  0
    2.8483   -0.4768   -2.8048 C   0  0  2  0  0  0  0  0  0  0  0  0
    2.6677   -0.2052   -1.2937 C   0  0  0  0  0  0  0  0  0  0  0  0
    3.6664   -0.0333   -0.6092 O   0  0  0  0  0  0  0  0  0  0  0  0
    2.3475    0.7111   -3.6386 C   0  0  0  0  0  0  0  0  0  0  0  0
    2.9020   -2.4613   -3.6113 H   0  0  0  0  0  0  0  0  0  0  0  0
    3.9286   -0.5453   -2.9704 H   0  0  0  0  0  0  0  0  0  0  0  0
    1.2831    0.8986   -3.4699 H   0  0  0  0  0  0  0  0  0  0  0  0
    2.8978    1.6171   -3.3657 H   0  0  0  0  0  0  0  0  0  0  0  0
    2.5027    0.5198   -4.7043 H   0  0  0  0  0  0  0  0  0  0  0  0
    1.3987   -0.0999   -0.7539 N   0  0  0  0  0  0  0  0  0  0  0  0
    0.9919    0.0419    0.6602 C   0  0  2  0  0  0  0  0  0  0  0  0
    0.5484    1.4927    0.9865 C   0  0  0  0  0  0  0  0  0  0  0  0
    0.4244    2.3258    0.0955 O   0  0  0  0  0  0  0  0  0  0  0  0
    1.8741   -0.6197    1.7603 C   0  0  0  0  0  0  0  0  0  0  0  0
    1.9316   -2.1725    1.7710 C   0  0  0  0  0  0  0  0  0  0  0  0
    2.9594   -2.6128    2.8213 C   0  0  0  0  0  0  0  0  0  0  0  0
    2.2767   -2.8667    0.4472 C   0  0  0  0  0  0  0  0  0  0  0  0
    0.6498   -0.2281   -1.4408 H   0  0  0  0  0  0  0  0  0  0  0  0
    0.0545   -0.5185    0.7193 H   0  0  0  0  0  0  0  0  0  0  0  0
    1.4958   -0.3201    2.7409 H   0  0  0  0  0  0  0  0  0  0  0  0
    2.8885   -0.2178    1.6937 H   0  0  0  0  0  0  0  0  0  0  0  0
    0.9454   -2.5366    2.0776 H   0  0  0  0  0  0  0  0  0  0  0  0
    3.9649   -2.2846    2.5379 H   0  0  0  0  0  0  0  0  0  0  0  0
    2.9652   -3.7029    2.9191 H   0  0  0  0  0  0  0  0  0  0  0  0
    2.7171   -2.1846    3.7988 H   0  0  0  0  0  0  0  0  0  0  0  0
    3.2538   -2.5411    0.0803 H   0  0  0  0  0  0  0  0  0  0  0  0
    2.3146   -3.9510    0.5901 H   0  0  0  0  0  0  0  0  0  0  0  0
    1.5160   -2.6634   -0.3102 H   0  0  0  0  0  0  0  0  0  0  0  0
    0.1303    1.8235    2.2680 N   0  0  0  0  0  0  0  0  0  0  0  0
   -0.3410    3.1402    2.7482 C   0  0  2  0  0  0  0  0  0  0  0  0
   -1.7180    3.5775    2.1972 C   0  0  0  0  0  0  0  0  0  0  0  0
   -2.6121    3.8699    2.9808 O   0  0  0  0  0  0  0  0  0  0  0  0
    0.7152    4.2304    2.5159 C   0  0  0  0  0  0  0  0  0  0  0  0
    0.1924    1.0787    2.9550 H   0  0  0  0  0  0  0  0  0  0  0  0
   -0.4666    3.0523    3.8323 H   0  0  0  0  0  0  0  0  0  0  0  0
    0.8199    4.4642    1.4525 H   0  0  0  0  0  0  0  0  0  0  0  0
    0.4267    5.1481    3.0378 H   0  0  0  0  0  0  0  0  0  0  0  0
    1.6876    3.9060    2.8979 H   0  0  0  0  0  0  0  0  0  0  0  0
   -1.9628    3.6379    0.8403 N   0  0  0  0  0  0  0  0  0  0  0  0
   -3.2458    3.9996    0.2550 C   0  0  0  0  0  0  0  0  0  0  0  0
   -1.1990    3.3280    0.2320 H   0  0  0  0  0  0  0  0  0  0  0  0
   -3.1648    4.0354   -0.8358 H   0  0  0  0  0  0  0  0  0  0  0  0
   -4.0099    3.2628    0.5234 H   0  0  0  0  0  0  0  0  0  0  0  0
   -3.5649    4.9855    0.6096 H   0  0  0  0  0  0  0  0  0  0  0  0
  1  2  2  0  0  0  0
  1  3  1  0  0  0  0
  1  7  1  0  0  0  0
  3  4  1  0  0  0  0
  3  5  1  0  0  0  0
  3  6  1  0  0  0  0
  7  8  1  0  0  0  0
  7 12  1  0  0  0  0
  8  9  1  0  0  0  0
  8 11  1  0  0  0  0
  8 13  1  0  0  0  0
  9 10  2  0  0  0  0
  9 17  1  0  0  0  0
 11 14  1  0  0  0  0
 11 15  1  0  0  0  0
 11 16  1  0  0  0  0
 17 18  1  0  0  0  0
 17 25  1  0  0  0  0
 18 19  1  0  0  0  0
 18 21  1  0  0  0  0
 18 26  1  0  0  0  0
 19 20  2  0  0  0  0
 19 36  1  0  0  0  0
 21 22  1  0  0  0  0
 21 27  1  0  0  0  0
 21 28  1  0  0  0  0
 22 23  1  0  0  0  0
 22 24  1  0  0  0  0
 22 29  1  0  0  0  0
 23 30  1  0  0  0  0
 23 31  1  0  0  0  0
 23 32  1  0  0  0  0
 24 33  1  0  0  0  0
 24 34  1  0  0  0  0
 24 35  1  0  0  0  0
 36 37  1  0  0  0  0
 36 41  1  0  0  0  0
 37 38  1  0  0  0  0
 37 40  1  0  0  0  0
 37 42  1  0  0  0  0
 38 39  2  0  0  0  0
 38 46  1  0  0  0  0
 40 43  1  0  0  0  0
 40 44  1  0  0  0  0
 40 45  1  0  0  0  0
 46 47  1  0  0  0  0
 46 48  1  0  0  0  0
 47 49  1  0  0  0  0
 47 50  1  0  0  0  0
 47 51  1  0  0  0  0
M  END
$$$$

  -OEChem-05262216553D

 51 50  0     1  0  0  0  0  0999 V2000
    0.8847   -2.1121   -3.3209 C   0  0  0  0  0  0  0  0  0  0  0  0
    0.0508   -1.3231   -2.9058 O   0  0  0  0  0  0  0  0  0  0  0  0
    0.4389   -3.4639   -3.8453 C   0  0  0  0  0  0  0  0  0  0  0  0
    0.8454   -4.2606   -3.2176 H   0  0  0  0  0  0  0  0  0  0  0  0
   -0.6528   -3.5310   -3.8360 H   0  0  0  0  0  0  0  0  0  0  0  0
    0.7900   -3.6014   -4.8708 H   0  0  0  0  0  0  0  0  0  0  0  0
    2.2343   -1.8133   -3.2818 N   0  0  0  0  0  0  0  0  0  0  0  0
    2.8526   -0.5502   -2.8255 C   0  0  2  0  0  0  0  0  0  0  0  0
    2.6894   -0.2580   -1.3163 C   0  0  0  0  0  0  0  0  0  0  0  0
    3.6954   -0.0832   -0.6432 O   0  0  0  0  0  0  0  0  0  0  0  0
    2.3690    0.6387   -3.6685 C   0  0  0  0  0  0  0  0  0  0  0  0
    2.8583   -2.5430   -3.6146 H   0  0  0  0  0  0  0  0  0  0  0  0
    3.9298   -0.6426   -2.9985 H   0  0  0  0  0  0  0  0  0  0  0  0
    1.3150    0.8614   -3.4776 H   0  0  0  0  0  0  0  0  0  0  0  0
    2.9528    1.5320   -3.4244 H   0  0  0  0  0  0  0  0  0  0  0  0
    2.4923    0.4249   -4.7344 H   0  0  0  0  0  0  0  0  0  0  0  0
    1.4284   -0.1280   -0.7639 N   0  0  0  0  0  0  0  0  0  0  0  0
    1.0399    0.0283    0.6538 C   0  0  2  0  0  0  0  0  0  0  0  0
    0.6290    1.4941    0.9562 C   0  0  0  0  0  0  0  0  0  0  0  0
    0.2549    2.2257    0.0461 O   0  0  0  0  0  0  0  0  0  0  0  0
    1.9197   -0.6495    1.7474 C   0  0  0  0  0  0  0  0  0  0  0  0
    1.9432   -2.2030    1.7625 C   0  0  0  0  0  0  0  0  0  0  0  0
    2.9724   -2.6628    2.8036 C   0  0  0  0  0  0  0  0  0  0  0  0
    2.2629   -2.9046    0.4365 C   0  0  0  0  0  0  0  0  0  0  0  0
    0.6685   -0.2468   -1.4408 H   0  0  0  0  0  0  0  0  0  0  0  0
    0.0901   -0.5091    0.7302 H   0  0  0  0  0  0  0  0  0  0  0  0
    1.5521   -0.3472    2.7309 H   0  0  0  0  0  0  0  0  0  0  0  0
    2.9415   -0.2676    1.6725 H   0  0  0  0  0  0  0  0  0  0  0  0
    0.9523   -2.5461    2.0790 H   0  0  0  0  0  0  0  0  0  0  0  0
    3.9813   -2.3519    2.5131 H   0  0  0  0  0  0  0  0  0  0  0  0
    2.9600   -3.7530    2.8999 H   0  0  0  0  0  0  0  0  0  0  0  0
    2.7452   -2.2324    3.7839 H   0  0  0  0  0  0  0  0  0  0  0  0
    3.2406   -2.5939    0.0582 H   0  0  0  0  0  0  0  0  0  0  0  0
    2.2853   -3.9893    0.5797 H   0  0  0  0  0  0  0  0  0  0  0  0
    1.4969   -2.6902   -0.3124 H   0  0  0  0  0  0  0  0  0  0  0  0
    0.5244    1.9545    2.2615 N   0  0  0  0  0  0  0  0  0  0  0  0
    0.1476    3.3132    2.7083 C   0  0  2  0  0  0  0  0  0  0  0  0
   -1.3327    3.6953    2.4722 C   0  0  0  0  0  0  0  0  0  0  0  0
   -1.9970    4.1265    3.4059 O   0  0  0  0  0  0  0  0  0  0  0  0
    1.0894    4.3729    2.1184 C   0  0  0  0  0  0  0  0  0  0  0  0
    0.8254    1.3031    2.9793 H   0  0  0  0  0  0  0  0  0  0  0  0
    0.2902    3.3362    3.7936 H   0  0  0  0  0  0  0  0  0  0  0  0
    0.9326    4.4912    1.0422 H   0  0  0  0  0  0  0  0  0  0  0  0
    0.9091    5.3411    2.5958 H   0  0  0  0  0  0  0  0  0  0  0  0
    2.1329    4.0915    2.2893 H   0  0  0  0  0  0  0  0  0  0  0  0
   -1.9236    3.5607    1.2322 N   0  0  0  0  0  0  0  0  0  0  0  0
   -3.3116    3.8919    0.9444 C   0  0  0  0  0  0  0  0  0  0  0  0
   -1.3280    3.1849    0.4885 H   0  0  0  0  0  0  0  0  0  0  0  0
   -3.5262    3.7235   -0.1153 H   0  0  0  0  0  0  0  0  0  0  0  0
   -3.9851    3.2664    1.5390 H   0  0  0  0  0  0  0  0  0  0  0  0
   -3.5105    4.9436    1.1750 H   0  0  0  0  0  0  0  0  0  0  0  0
  1  2  2  0  0  0  0
  1  3  1  0  0  0  0
  1  7  1  0  0  0  0
  3  4  1  0  0  0  0
  3  5  1  0  0  0  0
  3  6  1  0  0  0  0
  7  8  1  0  0  0  0
  7 12  1  0  0  0  0
  8  9  1  0  0  0  0
  8 11  1  0  0  0  0
  8 13  1  0  0  0  0
  9 10  2  0  0  0  0
  9 17  1  0  0  0  0
 11 14  1  0  0  0  0
 11 15  1  0  0  0  0
 11 16  1  0  0  0  0
 17 18  1  0  0  0  0
 17 25  1  0  0  0  0
 18 19  1  0  0  0  0
 18 21  1  0  0  0  0
 18 26  1  0  0  0  0
 19 20  2  0  0  0  0
 19 36  1  0  0  0  0
 21 22  1  0  0  0  0
 21 27  1  0  0  0  0
 21 28  1  0  0  0  0
 22 23  1  0  0  0  0
 22 24  1  0  0  0  0
 22 29  1  0  0  0  0
 23 30  1  0  0  0  0
 23 31  1  0  0  0  0
 23 32  1  0  0  0  0
 24 33  1  0  0  0  0
 24 34  1  0  0  0  0
 24 35  1  0  0  0  0
 36 37  1  0  0  0  0
 36 41  1  0  0  0  0
 37 38  1  0  0  0  0
 37 40  1  0  0  0  0
 37 42  1  0  0  0  0
 38 39  2  0  0  0  0
 38 46  1  0  0  0  0
 40 43  1  0  0  0  0
 40 44  1  0  0  0  0
 40 45  1  0  0  0  0
 46 47  1  0  0  0  0
 46 48  1  0  0  0  0
 47 49  1  0  0  0  0
 47 50  1  0  0  0  0
 47 51  1  0  0  0  0
M  END
$$$$

  -OEChem-05262216553D

 51 50  0     1  0  0  0  0  0999 V2000
    0.8901   -2.3171   -3.2428 C   0  0  0  0  0  0  0  0  0  0  0  0
    0.0383   -1.5436   -2.8354 O   0  0  0  0  0  0  0  0  0  0  0  0
    0.4849   -3.7085   -3.6913 C   0  0  0  0  0  0  0  0  0  0  0  0
    0.9616   -4.4597   -3.0567 H   0  0  0  0  0  0  0  0  0  0  0  0
   -0.6003   -3.8268   -3.6219 H   0  0  0  0  0  0  0  0  0  0  0  0
    0.7885   -3.8705   -4.7284 H   0  0  0  0  0  0  0  0  0  0  0  0
    2.2259   -1.9607   -3.2626 N   0  0  0  0  0  0  0  0  0  0  0  0
    2.8003   -0.6508   -2.8901 C   0  0  2  0  0  0  0  0  0  0  0  0
    2.6621   -0.2837   -1.3943 C   0  0  0  0  0  0  0  0  0  0  0  0
    3.6778   -0.0559   -0.7518 O   0  0  0  0  0  0  0  0  0  0  0  0
    2.2470    0.4689   -3.7837 C   0  0  0  0  0  0  0  0  0  0  0  0
    2.8710   -2.6776   -3.5826 H   0  0  0  0  0  0  0  0  0  0  0  0
    3.8763   -0.7084   -3.0861 H   0  0  0  0  0  0  0  0  0  0  0  0
    1.1838    0.6442   -3.5946 H   0  0  0  0  0  0  0  0  0  0  0  0
    2.7839    1.4026   -3.5885 H   0  0  0  0  0  0  0  0  0  0  0  0
    2.3743    0.2103   -4.8390 H   0  0  0  0  0  0  0  0  0  0  0  0
    1.4137   -0.1339   -0.8187 N   0  0  0  0  0  0  0  0  0  0  0  0
    1.0687    0.0511    0.6067 C   0  0  2  0  0  0  0  0  0  0  0  0
    0.6813    1.5268    0.8828 C   0  0  0  0  0  0  0  0  0  0  0  0
    0.0451    2.1512    0.0412 O   0  0  0  0  0  0  0  0  0  0  0  0
    1.9682   -0.6133    1.6914 C   0  0  0  0  0  0  0  0  0  0  0  0
    1.9776   -2.1657    1.7385 C   0  0  0  0  0  0  0  0  0  0  0  0
    3.0280   -2.6123    2.7636 C   0  0  0  0  0  0  0  0  0  0  0  0
    2.2627   -2.8947    0.4199 C   0  0  0  0  0  0  0  0  0  0  0  0
    0.6382   -0.3283   -1.4597 H   0  0  0  0  0  0  0  0  0  0  0  0
    0.1149   -0.4727    0.7223 H   0  0  0  0  0  0  0  0  0  0  0  0
    1.6189   -0.2895    2.6754 H   0  0  0  0  0  0  0  0  0  0  0  0
    2.9913   -0.2426    1.5875 H   0  0  0  0  0  0  0  0  0  0  0  0
    0.9915   -2.4944    2.0840 H   0  0  0  0  0  0  0  0  0  0  0  0
    4.0319   -2.3159    2.4422 H   0  0  0  0  0  0  0  0  0  0  0  0
    3.0093   -3.6999    2.8836 H   0  0  0  0  0  0  0  0  0  0  0  0
    2.8276   -2.1593    3.7394 H   0  0  0  0  0  0  0  0  0  0  0  0
    3.2307   -2.5933    0.0102 H   0  0  0  0  0  0  0  0  0  0  0  0
    2.2868   -3.9761    0.5860 H   0  0  0  0  0  0  0  0  0  0  0  0
    1.4775   -2.6939   -0.3124 H   0  0  0  0  0  0  0  0  0  0  0  0
    0.9088    2.1137    2.1198 N   0  0  0  0  0  0  0  0  0  0  0  0
    0.6256    3.5095    2.5186 C   0  0  2  0  0  0  0  0  0  0  0  0
   -0.8725    3.8634    2.6623 C   0  0  0  0  0  0  0  0  0  0  0  0
   -1.2542    4.4580    3.6623 O   0  0  0  0  0  0  0  0  0  0  0  0
    1.3347    4.5062    1.5909 C   0  0  0  0  0  0  0  0  0  0  0  0
    1.4550    1.5548    2.7680 H   0  0  0  0  0  0  0  0  0  0  0  0
    1.0578    3.6438    3.5157 H   0  0  0  0  0  0  0  0  0  0  0  0
    0.8825    4.5136    0.5949 H   0  0  0  0  0  0  0  0  0  0  0  0
    1.2629    5.5173    2.0036 H   0  0  0  0  0  0  0  0  0  0  0  0
    2.3929    4.2468    1.4913 H   0  0  0  0  0  0  0  0  0  0  0  0
   -1.7881    3.5348    1.6836 N   0  0  0  0  0  0  0  0  0  0  0  0
   -3.1970    3.8982    1.7279 C   0  0  0  0  0  0  0  0  0  0  0  0
   -1.4083    3.0811    0.8475 H   0  0  0  0  0  0  0  0  0  0  0  0
   -3.3116    4.9868    1.7074 H   0  0  0  0  0  0  0  0  0  0  0  0
   -3.7220    3.4766    0.8655 H   0  0  0  0  0  0  0  0  0  0  0  0
   -3.6645    3.5113    2.6393 H   0  0  0  0  0  0  0  0  0  0  0  0
  1  2  2  0  0  0  0
  1  3  1  0  0  0  0
  1  7  1  0  0  0  0
  3  4  1  0  0  0  0
  3  5  1  0  0  0  0
  3  6  1  0  0  0  0
  7  8  1  0  0  0  0
  7 12  1  0  0  0  0
  8  9  1  0  0  0  0
  8 11  1  0  0  0  0
  8 13  1  0  0  0  0
  9 10  2  0  0  0  0
  9 17  1  0  0  0  0
 11 14  1  0  0  0  0
 11 15  1  0  0  0  0
 11 16  1  0  0  0  0
 17 18  1  0  0  0  0
 17 25  1  0  0  0  0
 18 19  1  0  0  0  0
 18 21  1  0  0  0  0
 18 26  1  0  0  0  0
 19 20  2  0  0  0  0
 19 36  1  0  0  0  0
 21 22  1  0  0  0  0
 21 27  1  0  0  0  0
 21 28  1  0  0  0  0
 22 23  1  0  0  0  0
 22 24  1  0  0  0  0
 22 29  1  0  0  0  0
 23 30  1  0  0  0  0
 23 31  1  0  0  0  0
 23 32  1  0  0  0  0
 24 33  1  0  0  0  0
 24 34  1  0  0  0  0
 24 35  1  0  0  0  0
 36 37  1  0  0  0  0
 36 41  1  0  0  0  0
 37 38  1  0  0  0  0
 37 40  1  0  0  0  0
 37 42  1  0  0  0  0
 38 39  2  0  0  0  0
 38 46  1  0  0  0  0
 40 43  1  0  0  0  0
 40 44  1  0  0  0  0
 40 45  1  0  0  0  0
 46 47  1  0  0  0  0
 46 48  1  0  0  0  0
 47 49  1  0  0  0  0
 47 50  1  0  0  0  0
 47 51  1  0  0  0  0
M  END
$$$$

  -OEChem-05262216553D

 51 50  0     1  0  0  0  0  0999 V2000
    0.9343   -2.4177   -3.2332 C   0  0  0  0  0  0  0  0  0  0  0  0
    0.0644   -1.6619   -2.8306 O   0  0  0  0  0  0  0  0  0  0  0  0
    0.5702   -3.8336   -3.6381 C   0  0  0  0  0  0  0  0  0  0  0  0
    1.1063   -4.5515   -3.0124 H   0  0  0  0  0  0  0  0  0  0  0  0
   -0.5048   -3.9957   -3.5172 H   0  0  0  0  0  0  0  0  0  0  0  0
    0.8352   -4.0034   -4.6846 H   0  0  0  0  0  0  0  0  0  0  0  0
    2.2573   -2.0194   -3.2803 N   0  0  0  0  0  0  0  0  0  0  0  0
    2.7944   -0.6883   -2.9306 C   0  0  2  0  0  0  0  0  0  0  0  0
    2.6561   -0.3089   -1.4378 C   0  0  0  0  0  0  0  0  0  0  0  0
    3.6701   -0.0745   -0.7949 O   0  0  0  0  0  0  0  0  0  0  0  0
    2.2014    0.4008   -3.8370 C   0  0  0  0  0  0  0  0  0  0  0  0
    2.9215   -2.7240   -3.5881 H   0  0  0  0  0  0  0  0  0  0  0  0
    3.8700   -0.7152   -3.1342 H   0  0  0  0  0  0  0  0  0  0  0  0
    1.1311    0.5356   -3.6552 H   0  0  0  0  0  0  0  0  0  0  0  0
    2.7002    1.3566   -3.6482 H   0  0  0  0  0  0  0  0  0  0  0  0
    2.3446    0.1384   -4.8895 H   0  0  0  0  0  0  0  0  0  0  0  0
    1.4088   -0.1428   -0.8652 N   0  0  0  0  0  0  0  0  0  0  0  0
    1.0708    0.0425    0.5609 C   0  0  2  0  0  0  0  0  0  0  0  0
    0.7095    1.5228    0.8301 C   0  0  0  0  0  0  0  0  0  0  0  0
   -0.1045    2.0831    0.1051 O   0  0  0  0  0  0  0  0  0  0  0  0
    1.9588   -0.6263    1.6515 C   0  0  0  0  0  0  0  0  0  0  0  0
    1.9534   -2.1780    1.7049 C   0  0  0  0  0  0  0  0  0  0  0  0
    2.9949   -2.6312    2.7361 C   0  0  0  0  0  0  0  0  0  0  0  0
    2.2380   -2.9107    0.3890 C   0  0  0  0  0  0  0  0  0  0  0  0
    0.6328   -0.3636   -1.4971 H   0  0  0  0  0  0  0  0  0  0  0  0
    0.1107   -0.4692    0.6791 H   0  0  0  0  0  0  0  0  0  0  0  0
    1.6050   -0.2895    2.6311 H   0  0  0  0  0  0  0  0  0  0  0  0
    2.9870   -0.2683    1.5507 H   0  0  0  0  0  0  0  0  0  0  0  0
    0.9628   -2.4962    2.0471 H   0  0  0  0  0  0  0  0  0  0  0  0
    4.0031   -2.3468    2.4172 H   0  0  0  0  0  0  0  0  0  0  0  0
    2.9638   -3.7182    2.8596 H   0  0  0  0  0  0  0  0  0  0  0  0
    2.7954   -2.1723    3.7095 H   0  0  0  0  0  0  0  0  0  0  0  0
    3.2052   -2.6093   -0.0222 H   0  0  0  0  0  0  0  0  0  0  0  0
    2.2631   -3.9917    0.5570 H   0  0  0  0  0  0  0  0  0  0  0  0
    1.4516   -2.7113   -0.3421 H   0  0  0  0  0  0  0  0  0  0  0  0
    1.2162    2.1943    1.9330 N   0  0  0  0  0  0  0  0  0  0  0  0
    1.0063    3.6113    2.2969 C   0  0  2  0  0  0  0  0  0  0  0  0
   -0.4325    3.9694    2.7374 C   0  0  0  0  0  0  0  0  0  0  0  0
   -0.6110    4.5229    3.8149 O   0  0  0  0  0  0  0  0  0  0  0  0
    1.4874    4.5449    1.1772 C   0  0  0  0  0  0  0  0  0  0  0  0
    1.9251    1.6868    2.4543 H   0  0  0  0  0  0  0  0  0  0  0  0
    1.6411    3.8089    3.1668 H   0  0  0  0  0  0  0  0  0  0  0  0
    0.8415    4.4764    0.2970 H   0  0  0  0  0  0  0  0  0  0  0  0
    1.4794    5.5824    1.5256 H   0  0  0  0  0  0  0  0  0  0  0  0
    2.5087    4.2875    0.8802 H   0  0  0  0  0  0  0  0  0  0  0  0
   -1.5214    3.6824    1.9395 N   0  0  0  0  0  0  0  0  0  0  0  0
   -2.9025    3.9668    2.3012 C   0  0  0  0  0  0  0  0  0  0  0  0
   -1.3205    3.1797    1.0702 H   0  0  0  0  0  0  0  0  0  0  0  0
   -3.5714    3.6793    1.4844 H   0  0  0  0  0  0  0  0  0  0  0  0
   -3.1866    3.4057    3.1973 H   0  0  0  0  0  0  0  0  0  0  0  0
   -3.0355    5.0360    2.4961 H   0  0  0  0  0  0  0  0  0  0  0  0
  1  2  2  0  0  0  0
  1  3  1  0  0  0  0
  1  7  1  0  0  0  0
  3  4  1  0  0  0  0
  3  5  1  0  0  0  0
  3  6  1  0  0  0  0
  7  8  1  0  0  0  0
  7 12  1  0  0  0  0
  8  9  1  0  0  0  0
  8 11  1  0  0  0  0
  8 13  1  0  0  0  0
  9 10  2  0  0  0  0
  9 17  1  0  0  0  0
 11 14  1  0  0  0  0
 11 15  1  0  0  0  0
 11 16  1  0  0  0  0
 17 18  1  0  0  0  0
 17 25  1  0  0  0  0
 18 19  1  0  0  0  0
 18 21  1  0  0  0  0
 18 26  1  0  0  0  0
 19 20  2  0  0  0  0
 19 36  1  0  0  0  0
 21 22  1  0  0  0  0
 21 27  1  0  0  0  0
 21 28  1  0  0  0  0
 22 23  1  0  0  0  0
 22 24  1  0  0  0  0
 22 29  1  0  0  0  0
 23 30  1  0  0  0  0
 23 31  1  0  0  0  0
 23 32  1  0  0  0  0
 24 33  1  0  0  0  0
 24 34  1  0  0  0  0
 24 35  1  0  0  0  0
 36 37  1  0  0  0  0
 36 41  1  0  0  0  0
 37 38  1  0  0  0  0
 37 40  1  0  0  0  0
 37 42  1  0  0  0  0
 38 39  2  0  0  0  0
 38 46  1  0  0  0  0
 40 43  1  0  0  0  0
 40 44  1  0  0  0  0
 40 45  1  0  0  0  0
 46 47  1  0  0  0  0
 46 48  1  0  0  0  0
 47 49  1  0  0  0  0
 47 50  1  0  0  0  0
 47 51  1  0  0  0  0
M  END
$$$$

  -OEChem-05262216553D

 51 50  0     1  0  0  0  0  0999 V2000
    2.2790   -3.0060   -3.4240 C   0  0  0  0  0  0  0  0  0  0  0  0
    1.1894   -3.2986   -2.9600 O   0  0  0  0  0  0  0  0  0  0  0  0
    3.2789   -4.1040   -3.7341 C   0  0  0  0  0  0  0  0  0  0  0  0
    4.1634   -3.9910   -3.1022 H   0  0  0  0  0  0  0  0  0  0  0  0
    2.8334   -5.0845   -3.5436 H   0  0  0  0  0  0  0  0  0  0  0  0
    3.5792   -4.0527   -4.7835 H   0  0  0  0  0  0  0  0  0  0  0  0
    2.6348   -1.6888   -3.6432 N   0  0  0  0  0  0  0  0  0  0  0  0
    1.8850   -0.5192   -3.1494 C   0  0  2  0  0  0  0  0  0  0  0  0
    1.9201   -0.4078   -1.6055 C   0  0  0  0  0  0  0  0  0  0  0  0
    3.0140   -0.4232   -1.0558 O   0  0  0  0  0  0  0  0  0  0  0  0
    0.4670   -0.4579   -3.7461 C   0  0  0  0  0  0  0  0  0  0  0  0
    3.6174   -1.5424   -3.8562 H   0  0  0  0  0  0  0  0  0  0  0  0
    2.4065    0.3702   -3.5165 H   0  0  0  0  0  0  0  0  0  0  0  0
   -0.1870   -1.2160   -3.3055 H   0  0  0  0  0  0  0  0  0  0  0  0
    0.0224    0.5256   -3.5654 H   0  0  0  0  0  0  0  0  0  0  0  0
    0.5062   -0.6215   -4.8273 H   0  0  0  0  0  0  0  0  0  0  0  0
    0.7893   -0.0595   -0.8840 N   0  0  0  0  0  0  0  0  0  0  0  0
    0.6559    0.1350    0.5757 C   0  0  2  0  0  0  0  0  0  0  0  0
    0.5776    1.6454    0.8778 C   0  0  0  0  0  0  0  0  0  0  0  0
   -0.3444    2.2972    0.4007 O   0  0  0  0  0  0  0  0  0  0  0  0
    1.5395   -0.6737    1.5697 C   0  0  0  0  0  0  0  0  0  0  0  0
    1.3059   -2.2061    1.6323 C   0  0  0  0  0  0  0  0  0  0  0  0
    2.3680   -2.8236    2.5510 C   0  0  0  0  0  0  0  0  0  0  0  0
    1.3354   -2.9574    0.2979 C   0  0  0  0  0  0  0  0  0  0  0  0
   -0.0617    0.0318   -1.4329 H   0  0  0  0  0  0  0  0  0  0  0  0
   -0.3528   -0.2225    0.8056 H   0  0  0  0  0  0  0  0  0  0  0  0
    1.3494   -0.2891    2.5772 H   0  0  0  0  0  0  0  0  0  0  0  0
    2.5941   -0.4802    1.3561 H   0  0  0  0  0  0  0  0  0  0  0  0
    0.3197   -2.3740    2.0780 H   0  0  0  0  0  0  0  0  0  0  0  0
    3.3687   -2.6938    2.1258 H   0  0  0  0  0  0  0  0  0  0  0  0
    2.1845   -3.8945    2.6835 H   0  0  0  0  0  0  0  0  0  0  0  0
    2.3445   -2.3492    3.5370 H   0  0  0  0  0  0  0  0  0  0  0  0
    2.2950   -2.8187   -0.2072 H   0  0  0  0  0  0  0  0  0  0  0  0
    1.1936   -4.0297    0.4646 H   0  0  0  0  0  0  0  0  0  0  0  0
    0.5283   -2.6195   -0.3565 H   0  0  0  0  0  0  0  0  0  0  0  0
    1.5224    2.2575    1.6861 N   0  0  0  0  0  0  0  0  0  0  0  0
    1.6777    3.7045    1.9443 C   0  0  2  0  0  0  0  0  0  0  0  0
    0.5573    4.3542    2.7895 C   0  0  0  0  0  0  0  0  0  0  0  0
    0.8583    5.1165    3.6987 O   0  0  0  0  0  0  0  0  0  0  0  0
    1.8864    4.4739    0.6327 C   0  0  0  0  0  0  0  0  0  0  0  0
    2.2926    1.6563    1.9676 H   0  0  0  0  0  0  0  0  0  0  0  0
    2.5950    3.8206    2.5312 H   0  0  0  0  0  0  0  0  0  0  0  0
    0.9730    4.4884    0.0312 H   0  0  0  0  0  0  0  0  0  0  0  0
    2.1694    5.5093    0.8470 H   0  0  0  0  0  0  0  0  0  0  0  0
    2.6842    4.0115    0.0437 H   0  0  0  0  0  0  0  0  0  0  0  0
   -0.7764    4.1118    2.5299 N   0  0  0  0  0  0  0  0  0  0  0  0
   -1.8754    4.7424    3.2474 C   0  0  0  0  0  0  0  0  0  0  0  0
   -0.9759    3.5217    1.7179 H   0  0  0  0  0  0  0  0  0  0  0  0
   -2.8332    4.3674    2.8746 H   0  0  0  0  0  0  0  0  0  0  0  0
   -1.8111    4.5216    4.3181 H   0  0  0  0  0  0  0  0  0  0  0  0
   -1.8498    5.8281    3.1083 H   0  0  0  0  0  0  0  0  0  0  0  0
  1  2  2  0  0  0  0
  1  3  1  0  0  0  0
  1  7  1  0  0  0  0
  3  4  1  0  0  0  0
  3  5  1  0  0  0  0
  3  6  1  0  0  0  0
  7  8  1  0  0  0  0
  7 12  1  0  0  0  0
  8  9  1  0  0  0  0
  8 11  1  0  0  0  0
  8 13  1  0  0  0  0
  9 10  2  0  0  0  0
  9 17  1  0  0  0  0
 11 14  1  0  0  0  0
 11 15  1  0  0  0  0
 11 16  1  0  0  0  0
 17 18  1  0  0  0  0
 17 25  1  0  0  0  0
 18 19  1  0  0  0  0
 18 21  1  0  0  0  0
 18 26  1  0  0  0  0
 19 20  2  0  0  0  0
 19 36  1  0  0  0  0
 21 22  1  0  0  0  0
 21 27  1  0  0  0  0
 21 28  1  0  0  0  0
 22 23  1  0  0  0  0
 22 24  1  0  0  0  0
 22 29  1  0  0  0  0
 23 30  1  0  0  0  0
 23 31  1  0  0  0  0
 23 32  1  0  0  0  0
 24 33  1  0  0  0  0
 24 34  1  0  0  0  0
 24 35  1  0  0  0  0
 36 37  1  0  0  0  0
 36 41  1  0  0  0  0
 37 38  1  0  0  0  0
 37 40  1  0  0  0  0
 37 42  1  0  0  0  0
 38 39  2  0  0  0  0
 38 46  1  0  0  0  0
 40 43  1  0  0  0  0
 40 44  1  0  0  0  0
 40 45  1  0  0  0  0
 46 47  1  0  0  0  0
 46 48  1  0  0  0  0
 47 49  1  0  0  0  0
 47 50  1  0  0  0  0
 47 51  1  0  0  0  0
M  END
$$$$

  -OEChem-05262216553D

 51 50  0     1  0  0  0  0  0999 V2000
    2.2778   -3.1159   -3.3844 C   0  0  0  0  0  0  0  0  0  0  0  0
    1.2202   -3.4293   -2.8638 O   0  0  0  0  0  0  0  0  0  0  0  0
    3.3010   -4.1878   -3.7087 C   0  0  0  0  0  0  0  0  0  0  0  0
    4.2054   -4.0297   -3.1156 H   0  0  0  0  0  0  0  0  0  0  0  0
    2.8975   -5.1781   -3.4789 H   0  0  0  0  0  0  0  0  0  0  0  0
    3.5574   -4.1509   -4.7702 H   0  0  0  0  0  0  0  0  0  0  0  0
    2.5758   -1.7958   -3.6638 N   0  0  0  0  0  0  0  0  0  0  0  0
    1.7987   -0.6337   -3.1955 C   0  0  2  0  0  0  0  0  0  0  0  0
    1.8833   -0.4443   -1.6611 C   0  0  0  0  0  0  0  0  0  0  0  0
    2.9938   -0.3843   -1.1489 O   0  0  0  0  0  0  0  0  0  0  0  0
    0.3592   -0.6530   -3.7423 C   0  0  0  0  0  0  0  0  0  0  0  0
    3.5408   -1.6226   -3.9305 H   0  0  0  0  0  0  0  0  0  0  0  0
    2.2716    0.2557   -3.6229 H   0  0  0  0  0  0  0  0  0  0  0  0
   -0.2474   -1.4187   -3.2500 H   0  0  0  0  0  0  0  0  0  0  0  0
   -0.1195    0.3184   -3.5833 H   0  0  0  0  0  0  0  0  0  0  0  0
    0.3673   -0.8576   -4.8173 H   0  0  0  0  0  0  0  0  0  0  0  0
    0.7680   -0.0892   -0.9198 N   0  0  0  0  0  0  0  0  0  0  0  0
    0.6755    0.1459    0.5368 C   0  0  2  0  0  0  0  0  0  0  0  0
    0.5871    1.6601    0.8006 C   0  0  0  0  0  0  0  0  0  0  0  0
   -0.4598    2.2489    0.5590 O   0  0  0  0  0  0  0  0  0  0  0  0
    1.6015   -0.6074    1.5338 C   0  0  0  0  0  0  0  0  0  0  0  0
    1.4050   -2.1408    1.6562 C   0  0  0  0  0  0  0  0  0  0  0  0
    2.5037   -2.7024    2.5677 C   0  0  0  0  0  0  0  0  0  0  0  0
    1.4188   -2.9342    0.3468 C   0  0  0  0  0  0  0  0  0  0  0  0
   -0.1087   -0.0939   -1.4346 H   0  0  0  0  0  0  0  0  0  0  0  0
   -0.3194   -0.2226    0.8071 H   0  0  0  0  0  0  0  0  0  0  0  0
    1.4337   -0.1844    2.5303 H   0  0  0  0  0  0  0  0  0  0  0  0
    2.6450   -0.4021    1.2809 H   0  0  0  0  0  0  0  0  0  0  0  0
    0.4347   -2.3163    2.1326 H   0  0  0  0  0  0  0  0  0  0  0  0
    3.4906   -2.5621    2.1148 H   0  0  0  0  0  0  0  0  0  0  0  0
    2.3492   -3.7724    2.7390 H   0  0  0  0  0  0  0  0  0  0  0  0
    2.4912   -2.1971    3.5386 H   0  0  0  0  0  0  0  0  0  0  0  0
    2.3596   -2.7849   -0.1898 H   0  0  0  0  0  0  0  0  0  0  0  0
    1.3124   -4.0040    0.5513 H   0  0  0  0  0  0  0  0  0  0  0  0
    0.5843   -2.6401   -0.2942 H   0  0  0  0  0  0  0  0  0  0  0  0
    1.6879    2.3452    1.2878 N   0  0  0  0  0  0  0  0  0  0  0  0
    1.8268    3.8052    1.4683 C   0  0  2  0  0  0  0  0  0  0  0  0
    0.9384    4.4246    2.5725 C   0  0  0  0  0  0  0  0  0  0  0  0
    1.4380    5.1937    3.3835 O   0  0  0  0  0  0  0  0  0  0  0  0
    1.6295    4.5423    0.1369 C   0  0  0  0  0  0  0  0  0  0  0  0
    2.5368    1.7879    1.3557 H   0  0  0  0  0  0  0  0  0  0  0  0
    2.8599    3.9861    1.7832 H   0  0  0  0  0  0  0  0  0  0  0  0
    0.5892    4.4872   -0.1973 H   0  0  0  0  0  0  0  0  0  0  0  0
    1.8948    5.5980    0.2516 H   0  0  0  0  0  0  0  0  0  0  0  0
    2.2685    4.1069   -0.6371 H   0  0  0  0  0  0  0  0  0  0  0  0
   -0.4131    4.1534    2.6486 N   0  0  0  0  0  0  0  0  0  0  0  0
   -1.3134    4.7510    3.6243 C   0  0  0  0  0  0  0  0  0  0  0  0
   -0.7904    3.5353    1.9252 H   0  0  0  0  0  0  0  0  0  0  0  0
   -1.3079    5.8420    3.5308 H   0  0  0  0  0  0  0  0  0  0  0  0
   -2.3347    4.3938    3.4618 H   0  0  0  0  0  0  0  0  0  0  0  0
   -1.0100    4.4817    4.6412 H   0  0  0  0  0  0  0  0  0  0  0  0
  1  2  2  0  0  0  0
  1  3  1  0  0  0  0
  1  7  1  0  0  0  0
  3  4  1  0  0  0  0
  3  5  1  0  0  0  0
  3  6  1  0  0  0  0
  7  8  1  0  0  0  0
  7 12  1  0  0  0  0
  8  9  1  0  0  0  0
  8 11  1  0  0  0  0
  8 13  1  0  0  0  0
  9 10  2  0  0  0  0
  9 17  1  0  0  0  0
 11 14  1  0  0  0  0
 11 15  1  0  0  0  0
 11 16  1  0  0  0  0
 17 18  1  0  0  0  0
 17 25  1  0  0  0  0
 18 19  1  0  0  0  0
 18 21  1  0  0  0  0
 18 26  1  0  0  0  0
 19 20  2  0  0  0  0
 19 36  1  0  0  0  0
 21 22  1  0  0  0  0
 21 27  1  0  0  0  0
 21 28  1  0  0  0  0
 22 23  1  0  0  0  0
 22 24  1  0  0  0  0
 22 29  1  0  0  0  0
 23 30  1  0  0  0  0
 23 31  1  0  0  0  0
 23 32  1  0  0  0  0
 24 33  1  0  0  0  0
 24 34  1  0  0  0  0
 24 35  1  0  0  0  0
 36 37  1  0  0  0  0
 36 41  1  0  0  0  0
 37 38  1  0  0  0  0
 37 40  1  0  0  0  0
 37 42  1  0  0  0  0
 38 39  2  0  0  0  0
 38 46  1  0  0  0  0
 40 43  1  0  0  0  0
 40 44  1  0  0  0  0
 40 45  1  0  0  0  0
 46 47  1  0  0  0  0
 46 48  1  0  0  0  0
 47 49  1  0  0  0  0
 47 50  1  0  0  0  0
 47 51  1  0  0  0  0
M  END
$$$$

  -OEChem-05262216553D

 51 50  0     1  0  0  0  0  0999 V2000
    2.3470   -3.2030   -3.3396 C   0  0  0  0  0  0  0  0  0  0  0  0
    1.3124   -3.5488   -2.7940 O   0  0  0  0  0  0  0  0  0  0  0  0
    3.4089   -4.2392   -3.6571 C   0  0  0  0  0  0  0  0  0  0  0  0
    4.3222   -4.0207   -3.0983 H   0  0  0  0  0  0  0  0  0  0  0  0
    3.0571   -5.2368   -3.3798 H   0  0  0  0  0  0  0  0  0  0  0  0
    3.6323   -4.2305   -4.7266 H   0  0  0  0  0  0  0  0  0  0  0  0
    2.5777   -1.8792   -3.6620 N   0  0  0  0  0  0  0  0  0  0  0  0
    1.7429   -0.7398   -3.2389 C   0  0  2  0  0  0  0  0  0  0  0  0
    1.8351   -0.4626   -1.7179 C   0  0  0  0  0  0  0  0  0  0  0  0
    2.9453   -0.3092   -1.2241 O   0  0  0  0  0  0  0  0  0  0  0  0
    0.2998   -0.8679   -3.7607 C   0  0  0  0  0  0  0  0  0  0  0  0
    3.5258   -1.6675   -3.9597 H   0  0  0  0  0  0  0  0  0  0  0  0
    2.1594    0.1505   -3.7197 H   0  0  0  0  0  0  0  0  0  0  0  0
   -0.2611   -1.6276   -3.2083 H   0  0  0  0  0  0  0  0  0  0  0  0
   -0.2260    0.0867   -3.6610 H   0  0  0  0  0  0  0  0  0  0  0  0
    0.3059   -1.1455   -4.8193 H   0  0  0  0  0  0  0  0  0  0  0  0
    0.7175   -0.1000   -0.9841 N   0  0  0  0  0  0  0  0  0  0  0  0
    0.6383    0.1674    0.4681 C   0  0  2  0  0  0  0  0  0  0  0  0
    0.5416    1.6840    0.6958 C   0  0  0  0  0  0  0  0  0  0  0  0
   -0.5554    2.2266    0.7408 O   0  0  0  0  0  0  0  0  0  0  0  0
    1.5884   -0.5352    1.4782 C   0  0  0  0  0  0  0  0  0  0  0  0
    1.4293   -2.0677    1.6464 C   0  0  0  0  0  0  0  0  0  0  0  0
    2.5469   -2.5786    2.5647 C   0  0  0  0  0  0  0  0  0  0  0  0
    1.4561   -2.8930    0.3581 C   0  0  0  0  0  0  0  0  0  0  0  0
   -0.1668   -0.2009   -1.4755 H   0  0  0  0  0  0  0  0  0  0  0  0
   -0.3479   -0.2091    0.7593 H   0  0  0  0  0  0  0  0  0  0  0  0
    1.4193   -0.0848    2.4624 H   0  0  0  0  0  0  0  0  0  0  0  0
    2.6255   -0.3133    1.2126 H   0  0  0  0  0  0  0  0  0  0  0  0
    0.4663   -2.2527    2.1339 H   0  0  0  0  0  0  0  0  0  0  0  0
    3.5271   -2.4312    2.0995 H   0  0  0  0  0  0  0  0  0  0  0  0
    2.4166   -3.6462    2.7685 H   0  0  0  0  0  0  0  0  0  0  0  0
    2.5318   -2.0451    3.5204 H   0  0  0  0  0  0  0  0  0  0  0  0
    2.3887   -2.7292   -0.1888 H   0  0  0  0  0  0  0  0  0  0  0  0
    1.3823   -3.9599    0.5899 H   0  0  0  0  0  0  0  0  0  0  0  0
    0.6089   -2.6390   -0.2836 H   0  0  0  0  0  0  0  0  0  0  0  0
    1.7076    2.4147    0.8464 N   0  0  0  0  0  0  0  0  0  0  0  0
    1.8387    3.8818    0.9577 C   0  0  2  0  0  0  0  0  0  0  0  0
    1.2741    4.4961    2.2596 C   0  0  0  0  0  0  0  0  0  0  0  0
    1.9536    5.2949    2.8910 O   0  0  0  0  0  0  0  0  0  0  0  0
    1.2473    4.5811   -0.2736 C   0  0  0  0  0  0  0  0  0  0  0  0
    2.5616    1.8799    0.6929 H   0  0  0  0  0  0  0  0  0  0  0  0
    2.9114    4.1013    0.9646 H   0  0  0  0  0  0  0  0  0  0  0  0
    0.1578    4.4860   -0.2992 H   0  0  0  0  0  0  0  0  0  0  0  0
    1.4953    5.6468   -0.2520 H   0  0  0  0  0  0  0  0  0  0  0  0
    1.6579    4.1483   -1.1906 H   0  0  0  0  0  0  0  0  0  0  0  0
    0.0090    4.1826    2.7141 N   0  0  0  0  0  0  0  0  0  0  0  0
   -0.5981    4.7560    3.9068 C   0  0  0  0  0  0  0  0  0  0  0  0
   -0.5298    3.5327    2.1355 H   0  0  0  0  0  0  0  0  0  0  0  0
   -0.6429    5.8472    3.8271 H   0  0  0  0  0  0  0  0  0  0  0  0
   -1.6170    4.3766    4.0297 H   0  0  0  0  0  0  0  0  0  0  0  0
   -0.0188    4.4900    4.7972 H   0  0  0  0  0  0  0  0  0  0  0  0
  1  2  2  0  0  0  0
  1  3  1  0  0  0  0
  1  7  1  0  0  0  0
  3  4  1  0  0  0  0
  3  5  1  0  0  0  0
  3  6  1  0  0  0  0
  7  8  1  0  0  0  0
  7 12  1  0  0  0  0
  8  9  1  0  0  0  0
  8 11  1  0  0  0  0
  8 13  1  0  0  0  0
  9 10  2  0  0  0  0
  9 17  1  0  0  0  0
 11 14  1  0  0  0  0
 11 15  1  0  0  0  0
 11 16  1  0  0  0  0
 17 18  1  0  0  0  0
 17 25  1  0  0  0  0
 18 19  1  0  0  0  0
 18 21  1  0  0  0  0
 18 26  1  0  0  0  0
 19 20  2  0  0  0  0
 19 36  1  0  0  0  0
 21 22  1  0  0  0  0
 21 27  1  0  0  0  0
 21 28  1  0  0  0  0
 22 23  1  0  0  0  0
 22 24  1  0  0  0  0
 22 29  1  0  0  0  0
 23 30  1  0  0  0  0
 23 31  1  0  0  0  0
 23 32  1  0  0  0  0
 24 33  1  0  0  0  0
 24 34  1  0  0  0  0
 24 35  1  0  0  0  0
 36 37  1  0  0  0  0
 36 41  1  0  0  0  0
 37 38  1  0  0  0  0
 37 40  1  0  0  0  0
 37 42  1  0  0  0  0
 38 39  2  0  0  0  0
 38 46  1  0  0  0  0
 40 43  1  0  0  0  0
 40 44  1  0  0  0  0
 40 45  1  0  0  0  0
 46 47  1  0  0  0  0
 46 48  1  0  0  0  0
 47 49  1  0  0  0  0
 47 50  1  0  0  0  0
 47 51  1  0  0  0  0
M  END
$$$$

  -OEChem-05262216553D

 51 50  0     1  0  0  0  0  0999 V2000
    2.5795   -3.2055   -3.3066 C   0  0  0  0  0  0  0  0  0  0  0  0
    1.6269   -3.7096   -2.7358 O   0  0  0  0  0  0  0  0  0  0  0  0
    3.8121   -4.0444   -3.5873 C   0  0  0  0  0  0  0  0  0  0  0  0
    4.6786   -3.6149   -3.0784 H   0  0  0  0  0  0  0  0  0  0  0  0
    3.6637   -5.0661   -3.2261 H   0  0  0  0  0  0  0  0  0  0  0  0
    4.0069   -4.0761   -4.6621 H   0  0  0  0  0  0  0  0  0  0  0  0
    2.5683   -1.8769   -3.6875 N   0  0  0  0  0  0  0  0  0  0  0  0
    1.5653   -0.8772   -3.2738 C   0  0  2  0  0  0  0  0  0  0  0  0
    1.6862   -0.4914   -1.7787 C   0  0  0  0  0  0  0  0  0  0  0  0
    2.7960   -0.2373   -1.3266 O   0  0  0  0  0  0  0  0  0  0  0  0
    0.1400   -1.2848   -3.6901 C   0  0  0  0  0  0  0  0  0  0  0  0
    3.4661   -1.5178   -4.0001 H   0  0  0  0  0  0  0  0  0  0  0  0
    1.7904    0.0385   -3.8289 H   0  0  0  0  0  0  0  0  0  0  0  0
   -0.2560   -2.0723   -3.0422 H   0  0  0  0  0  0  0  0  0  0  0  0
   -0.5332   -0.4241   -3.6337 H   0  0  0  0  0  0  0  0  0  0  0  0
    0.1387   -1.6517   -4.7213 H   0  0  0  0  0  0  0  0  0  0  0  0
    0.5764   -0.1050   -1.0463 N   0  0  0  0  0  0  0  0  0  0  0  0
    0.5216    0.1902    0.4026 C   0  0  2  0  0  0  0  0  0  0  0  0
    0.4447    1.7110    0.5978 C   0  0  0  0  0  0  0  0  0  0  0  0
   -0.6011    2.2420    0.9492 O   0  0  0  0  0  0  0  0  0  0  0  0
    1.4916   -0.4833    1.4127 C   0  0  0  0  0  0  0  0  0  0  0  0
    1.3485   -2.0132    1.6180 C   0  0  0  0  0  0  0  0  0  0  0  0
    2.4844   -2.4938    2.5311 C   0  0  0  0  0  0  0  0  0  0  0  0
    1.3763   -2.8627    0.3458 C   0  0  0  0  0  0  0  0  0  0  0  0
   -0.3141   -0.2840   -1.5026 H   0  0  0  0  0  0  0  0  0  0  0  0
   -0.4605   -0.1754    0.7203 H   0  0  0  0  0  0  0  0  0  0  0  0
    1.3347   -0.0102    2.3885 H   0  0  0  0  0  0  0  0  0  0  0  0
    2.5224   -0.2591    1.1253 H   0  0  0  0  0  0  0  0  0  0  0  0
    0.3927   -2.1991    2.1194 H   0  0  0  0  0  0  0  0  0  0  0  0
    3.4567   -2.3513    2.0480 H   0  0  0  0  0  0  0  0  0  0  0  0
    2.3655   -3.5570    2.7638 H   0  0  0  0  0  0  0  0  0  0  0  0
    2.4796   -1.9371    3.4736 H   0  0  0  0  0  0  0  0  0  0  0  0
    2.3012   -2.6905   -0.2115 H   0  0  0  0  0  0  0  0  0  0  0  0
    1.3263   -3.9265    0.5979 H   0  0  0  0  0  0  0  0  0  0  0  0
    0.5190   -2.6379   -0.2934 H   0  0  0  0  0  0  0  0  0  0  0  0
    1.5975    2.4495    0.3980 N   0  0  0  0  0  0  0  0  0  0  0  0
    1.7466    3.9181    0.4457 C   0  0  2  0  0  0  0  0  0  0  0  0
    1.5757    4.5528    1.8452 C   0  0  0  0  0  0  0  0  0  0  0  0
    2.3659    5.4115    2.2151 O   0  0  0  0  0  0  0  0  0  0  0  0
    0.8191    4.5967   -0.5710 C   0  0  0  0  0  0  0  0  0  0  0  0
    2.3894    1.9044    0.0541 H   0  0  0  0  0  0  0  0  0  0  0  0
    2.7746    4.1398    0.1404 H   0  0  0  0  0  0  0  0  0  0  0  0
   -0.2296    4.5037   -0.2736 H   0  0  0  0  0  0  0  0  0  0  0  0
    1.0595    5.6621   -0.6428 H   0  0  0  0  0  0  0  0  0  0  0  0
    0.9436    4.1464   -1.5602 H   0  0  0  0  0  0  0  0  0  0  0  0
    0.5323    4.1966    2.6762 N   0  0  0  0  0  0  0  0  0  0  0  0
    0.2786    4.8075    3.9735 C   0  0  0  0  0  0  0  0  0  0  0  0
   -0.1409    3.5279    2.2928 H   0  0  0  0  0  0  0  0  0  0  0  0
    0.0929    5.8808    3.8613 H   0  0  0  0  0  0  0  0  0  0  0  0
   -0.5986    4.3504    4.4413 H   0  0  0  0  0  0  0  0  0  0  0  0
    1.1376    4.6655    4.6376 H   0  0  0  0  0  0  0  0  0  0  0  0
  1  2  2  0  0  0  0
  1  3  1  0  0  0  0
  1  7  1  0  0  0  0
  3  4  1  0  0  0  0
  3  5  1  0  0  0  0
  3  6  1  0  0  0  0
  7  8  1  0  0  0  0
  7 12  1  0  0  0  0
  8  9  1  0  0  0  0
  8 11  1  0  0  0  0
  8 13  1  0  0  0  0
  9 10  2  0  0  0  0
  9 17  1  0  0  0  0
 11 14  1  0  0  0  0
 11 15  1  0  0  0  0
 11 16  1  0  0  0  0
 17 18  1  0  0  0  0
 17 25  1  0  0  0  0
 18 19  1  0  0  0  0
 18 21  1  0  0  0  0
 18 26  1  0  0  0  0
 19 20  2  0  0  0  0
 19 36  1  0  0  0  0
 21 22  1  0  0  0  0
 21 27  1  0  0  0  0
 21 28  1  0  0  0  0
 22 23  1  0  0  0  0
 22 24  1  0  0  0  0
 22 29  1  0  0  0  0
 23 30  1  0  0  0  0
 23 31  1  0  0  0  0
 23 32  1  0  0  0  0
 24 33  1  0  0  0  0
 24 34  1  0  0  0  0
 24 35  1  0  0  0  0
 36 37  1  0  0  0  0
 36 41  1  0  0  0  0
 37 38  1  0  0  0  0
 37 40  1  0  0  0  0
 37 42  1  0  0  0  0
 38 39  2  0  0  0  0
 38 46  1  0  0  0  0
 40 43  1  0  0  0  0
 40 44  1  0  0  0  0
 40 45  1  0  0  0  0
 46 47  1  0  0  0  0
 46 48  1  0  0  0  0
 47 49  1  0  0  0  0
 47 50  1  0  0  0  0
 47 51  1  0  0  0  0
M  END
$$$$

  -OEChem-05262216553D

 51 50  0     1  0  0  0  0  0999 V2000
    2.5255   -3.2934   -3.2671 C   0  0  0  0  0  0  0  0  0  0  0  0
    1.5489   -3.7648   -2.7096 O   0  0  0  0  0  0  0  0  0  0  0  0
    3.7413   -4.1676   -3.5089 C   0  0  0  0  0  0  0  0  0  0  0  0
    4.6098   -3.7490   -2.9944 H   0  0  0  0  0  0  0  0  0  0  0  0
    3.5619   -5.1777   -3.1298 H   0  0  0  0  0  0  0  0  0  0  0  0
    3.9529   -4.2266   -4.5793 H   0  0  0  0  0  0  0  0  0  0  0  0
    2.5566   -1.9709   -3.6676 N   0  0  0  0  0  0  0  0  0  0  0  0
    1.5653   -0.9379   -3.3108 C   0  0  2  0  0  0  0  0  0  0  0  0
    1.6814   -0.4841   -1.8349 C   0  0  0  0  0  0  0  0  0  0  0  0
    2.7794   -0.1461   -1.4114 O   0  0  0  0  0  0  0  0  0  0  0  0
    0.1349   -1.3363   -3.7202 C   0  0  0  0  0  0  0  0  0  0  0  0
    3.4689   -1.6400   -3.9697 H   0  0  0  0  0  0  0  0  0  0  0  0
    1.8110   -0.0536   -3.9068 H   0  0  0  0  0  0  0  0  0  0  0  0
   -0.2837   -2.0824   -3.0379 H   0  0  0  0  0  0  0  0  0  0  0  0
   -0.5201   -0.4598   -3.7120 H   0  0  0  0  0  0  0  0  0  0  0  0
    0.1343   -1.7539   -4.7319 H   0  0  0  0  0  0  0  0  0  0  0  0
    0.5635   -0.1255   -1.1014 N   0  0  0  0  0  0  0  0  0  0  0  0
    0.5025    0.1893    0.3450 C   0  0  2  0  0  0  0  0  0  0  0  0
    0.3738    1.7082    0.5268 C   0  0  0  0  0  0  0  0  0  0  0  0
   -0.5830    2.1881    1.1212 O   0  0  0  0  0  0  0  0  0  0  0  0
    1.5168   -0.4179    1.3520 C   0  0  0  0  0  0  0  0  0  0  0  0
    1.4623   -1.9494    1.5816 C   0  0  0  0  0  0  0  0  0  0  0  0
    2.6342   -2.3473    2.4883 C   0  0  0  0  0  0  0  0  0  0  0  0
    1.5201   -2.8192    0.3250 C   0  0  0  0  0  0  0  0  0  0  0  0
   -0.3182   -0.3811   -1.5382 H   0  0  0  0  0  0  0  0  0  0  0  0
   -0.4604   -0.2122    0.6772 H   0  0  0  0  0  0  0  0  0  0  0  0
    1.3441    0.0587    2.3233 H   0  0  0  0  0  0  0  0  0  0  0  0
    2.5301   -0.1399    1.0494 H   0  0  0  0  0  0  0  0  0  0  0  0
    0.5249   -2.1790    2.0994 H   0  0  0  0  0  0  0  0  0  0  0  0
    3.5910   -2.1526    1.9926 H   0  0  0  0  0  0  0  0  0  0  0  0
    2.5822   -3.4121    2.7365 H   0  0  0  0  0  0  0  0  0  0  0  0
    2.6045   -1.7779    3.4227 H   0  0  0  0  0  0  0  0  0  0  0  0
    2.4276   -2.6096   -0.2477 H   0  0  0  0  0  0  0  0  0  0  0  0
    1.5286   -3.8791    0.5967 H   0  0  0  0  0  0  0  0  0  0  0  0
    0.6437   -2.6504   -0.3054 H   0  0  0  0  0  0  0  0  0  0  0  0
    1.3852    2.5053    0.0211 N   0  0  0  0  0  0  0  0  0  0  0  0
    1.4669    3.9795    0.0344 C   0  0  2  0  0  0  0  0  0  0  0  0
    1.6239    4.6184    1.4338 C   0  0  0  0  0  0  0  0  0  0  0  0
    2.4495    5.5071    1.5991 O   0  0  0  0  0  0  0  0  0  0  0  0
    0.2776    4.5983   -0.7113 C   0  0  0  0  0  0  0  0  0  0  0  0
    2.1404    1.9883   -0.4337 H   0  0  0  0  0  0  0  0  0  0  0  0
    2.3707    4.2495   -0.5216 H   0  0  0  0  0  0  0  0  0  0  0  0
   -0.6556    4.4493   -0.1602 H   0  0  0  0  0  0  0  0  0  0  0  0
    0.4331    5.6747   -0.8342 H   0  0  0  0  0  0  0  0  0  0  0  0
    0.1742    4.1479   -1.7029 H   0  0  0  0  0  0  0  0  0  0  0  0
    0.8325    4.2299    2.4961 N   0  0  0  0  0  0  0  0  0  0  0  0
    0.8987    4.8228    3.8241 C   0  0  0  0  0  0  0  0  0  0  0  0
    0.1181    3.5259    2.2923 H   0  0  0  0  0  0  0  0  0  0  0  0
    0.6524    5.8889    3.7803 H   0  0  0  0  0  0  0  0  0  0  0  0
    0.1870    4.3291    4.4928 H   0  0  0  0  0  0  0  0  0  0  0  0
    1.9037    4.7090    4.2437 H   0  0  0  0  0  0  0  0  0  0  0  0
  1  2  2  0  0  0  0
  1  3  1  0  0  0  0
  1  7  1  0  0  0  0
  3  4  1  0  0  0  0
  3  5  1  0  0  0  0
  3  6  1  0  0  0  0
  7  8  1  0  0  0  0
  7 12  1  0  0  0  0
  8  9  1  0  0  0  0
  8 11  1  0  0  0  0
  8 13  1  0  0  0  0
  9 10  2  0  0  0  0
  9 17  1  0  0  0  0
 11 14  1  0  0  0  0
 11 15  1  0  0  0  0
 11 16  1  0  0  0  0
 17 18  1  0  0  0  0
 17 25  1  0  0  0  0
 18 19  1  0  0  0  0
 18 21  1  0  0  0  0
 18 26  1  0  0  0  0
 19 20  2  0  0  0  0
 19 36  1  0  0  0  0
 21 22  1  0  0  0  0
 21 27  1  0  0  0  0
 21 28  1  0  0  0  0
 22 23  1  0  0  0  0
 22 24  1  0  0  0  0
 22 29  1  0  0  0  0
 23 30  1  0  0  0  0
 23 31  1  0  0  0  0
 23 32  1  0  0  0  0
 24 33  1  0  0  0  0
 24 34  1  0  0  0  0
 24 35  1  0  0  0  0
 36 37  1  0  0  0  0
 36 41  1  0  0  0  0
 37 38  1  0  0  0  0
 37 40  1  0  0  0  0
 37 42  1  0  0  0  0
 38 39  2  0  0  0  0
 38 46  1  0  0  0  0
 40 43  1  0  0  0  0
 40 44  1  0  0  0  0
 40 45  1  0  0  0  0
 46 47  1  0  0  0  0
 46 48  1  0  0  0  0
 47 49  1  0  0  0  0
 47 50  1  0  0  0  0
 47 51  1  0  0  0  0
M  END
$$$$

  -OEChem-05262216553D

 51 50  0     1  0  0  0  0  0999 V2000
    2.5553   -3.3325   -3.2480 C   0  0  0  0  0  0  0  0  0  0  0  0
    1.5808   -3.8119   -2.6936 O   0  0  0  0  0  0  0  0  0  0  0  0
    3.7949   -4.1845   -3.4476 C   0  0  0  0  0  0  0  0  0  0  0  0
    4.6504   -3.7209   -2.9499 H   0  0  0  0  0  0  0  0  0  0  0  0
    3.6406   -5.1810   -3.0240 H   0  0  0  0  0  0  0  0  0  0  0  0
    4.0122   -4.2857   -4.5137 H   0  0  0  0  0  0  0  0  0  0  0  0
    2.5638   -2.0192   -3.6794 N   0  0  0  0  0  0  0  0  0  0  0  0
    1.5509   -0.9966   -3.3535 C   0  0  2  0  0  0  0  0  0  0  0  0
    1.6584   -0.4996   -1.8905 C   0  0  0  0  0  0  0  0  0  0  0  0
    2.7458   -0.1082   -1.4889 O   0  0  0  0  0  0  0  0  0  0  0  0
    0.1292   -1.4312   -3.7564 C   0  0  0  0  0  0  0  0  0  0  0  0
    3.4734   -1.6773   -3.9782 H   0  0  0  0  0  0  0  0  0  0  0  0
    1.7817   -0.1248   -3.9735 H   0  0  0  0  0  0  0  0  0  0  0  0
   -0.2776   -2.1684   -3.0581 H   0  0  0  0  0  0  0  0  0  0  0  0
   -0.5421   -0.5672   -3.7710 H   0  0  0  0  0  0  0  0  0  0  0  0
    0.1391   -1.8726   -4.7579 H   0  0  0  0  0  0  0  0  0  0  0  0
    0.5354   -0.1631   -1.1538 N   0  0  0  0  0  0  0  0  0  0  0  0
    0.4707    0.1789    0.2893 C   0  0  2  0  0  0  0  0  0  0  0  0
    0.2916    1.6957    0.4645 C   0  0  0  0  0  0  0  0  0  0  0  0
   -0.5080    2.1348    1.2809 O   0  0  0  0  0  0  0  0  0  0  0  0
    1.5151   -0.3759    1.2960 C   0  0  0  0  0  0  0  0  0  0  0  0
    1.5183   -1.9040    1.5534 C   0  0  0  0  0  0  0  0  0  0  0  0
    2.7125   -2.2440    2.4548 C   0  0  0  0  0  0  0  0  0  0  0  0
    1.5963   -2.7940    0.3121 C   0  0  0  0  0  0  0  0  0  0  0  0
   -0.3375   -0.4712   -1.5741 H   0  0  0  0  0  0  0  0  0  0  0  0
   -0.4761   -0.2497    0.6342 H   0  0  0  0  0  0  0  0  0  0  0  0
    1.3351    0.1101    2.2614 H   0  0  0  0  0  0  0  0  0  0  0  0
    2.5143   -0.0661    0.9779 H   0  0  0  0  0  0  0  0  0  0  0  0
    0.5947   -2.1577    2.0845 H   0  0  0  0  0  0  0  0  0  0  0  0
    3.6569   -2.0275    1.9450 H   0  0  0  0  0  0  0  0  0  0  0  0
    2.6986   -3.3045    2.7249 H   0  0  0  0  0  0  0  0  0  0  0  0
    2.6737   -1.6575    3.3781 H   0  0  0  0  0  0  0  0  0  0  0  0
    2.4916   -2.5636   -0.2718 H   0  0  0  0  0  0  0  0  0  0  0  0
    1.6438   -3.8481    0.6022 H   0  0  0  0  0  0  0  0  0  0  0  0
    0.7095   -2.6671   -0.3134 H   0  0  0  0  0  0  0  0  0  0  0  0
    1.0744    2.5432   -0.2998 N   0  0  0  0  0  0  0  0  0  0  0  0
    1.0721    4.0204   -0.3026 C   0  0  2  0  0  0  0  0  0  0  0  0
    1.5679    4.6829    1.0038 C   0  0  0  0  0  0  0  0  0  0  0  0
    2.3478    5.6245    0.9413 O   0  0  0  0  0  0  0  0  0  0  0  0
   -0.3077    4.5673   -0.6922 C   0  0  0  0  0  0  0  0  0  0  0  0
    1.7843    2.0658   -0.8574 H   0  0  0  0  0  0  0  0  0  0  0  0
    1.7725    4.3351   -1.0830 H   0  0  0  0  0  0  0  0  0  0  0  0
   -1.0462    4.3754    0.0916 H   0  0  0  0  0  0  0  0  0  0  0  0
   -0.2495    5.6493   -0.8475 H   0  0  0  0  0  0  0  0  0  0  0  0
   -0.6537    4.1023   -1.6198 H   0  0  0  0  0  0  0  0  0  0  0  0
    1.1197    4.2610    2.2395 N   0  0  0  0  0  0  0  0  0  0  0  0
    1.4776    4.8989    3.4986 C   0  0  0  0  0  0  0  0  0  0  0  0
    0.4128    3.5209    2.2327 H   0  0  0  0  0  0  0  0  0  0  0  0
    1.1253    5.9355    3.5162 H   0  0  0  0  0  0  0  0  0  0  0  0
    1.0206    4.3621    4.3355 H   0  0  0  0  0  0  0  0  0  0  0  0
    2.5639    4.8929    3.6367 H   0  0  0  0  0  0  0  0  0  0  0  0
  1  2  2  0  0  0  0
  1  3  1  0  0  0  0
  1  7  1  0  0  0  0
  3  4  1  0  0  0  0
  3  5  1  0  0  0  0
  3  6  1  0  0  0  0
  7  8  1  0  0  0  0
  7 12  1  0  0  0  0
  8  9  1  0  0  0  0
  8 11  1  0  0  0  0
  8 13  1  0  0  0  0
  9 10  2  0  0  0  0
  9 17  1  0  0  0  0
 11 14  1  0  0  0  0
 11 15  1  0  0  0  0
 11 16  1  0  0  0  0
 17 18  1  0  0  0  0
 17 25  1  0  0  0  0
 18 19  1  0  0  0  0
 18 21  1  0  0  0  0
 18 26  1  0  0  0  0
 19 20  2  0  0  0  0
 19 36  1  0  0  0  0
 21 22  1  0  0  0  0
 21 27  1  0  0  0  0
 21 28  1  0  0  0  0
 22 23  1  0  0  0  0
 22 24  1  0  0  0  0
 22 29  1  0  0  0  0
 23 30  1  0  0  0  0
 23 31  1  0  0  0  0
 23 32  1  0  0  0  0
 24 33  1  0  0  0  0
 24 34  1  0  0  0  0
 24 35  1  0  0  0  0
 36 37  1  0  0  0  0
 36 41  1  0  0  0  0
 37 38  1  0  0  0  0
 37 40  1  0  0  0  0
 37 42  1  0  0  0  0
 38 39  2  0  0  0  0
 38 46  1  0  0  0  0
 40 43  1  0  0  0  0
 40 44  1  0  0  0  0
 40 45  1  0  0  0  0
 46 47  1  0  0  0  0
 46 48  1  0  0  0  0
 47 49  1  0  0  0  0
 47 50  1  0  0  0  0
 47 51  1  0  0  0  0
M  END
$$$$

  -OEChem-05262216553D

 51 50  0     1  0  0  0  0  0999 V2000
    0.9738   -2.9985   -3.1135 C   0  0  0  0  0  0  0  0  0  0  0  0
    0.0370   -2.2598   -2.8555 O   0  0  0  0  0  0  0  0  0  0  0  0
    0.7399   -4.4907   -3.2543 C   0  0  0  0  0  0  0  0  0  0  0  0
    1.2934   -5.0303   -2.4818 H   0  0  0  0  0  0  0  0  0  0  0  0
   -0.3249   -4.7176   -3.1476 H   0  0  0  0  0  0  0  0  0  0  0  0
    1.0731   -4.8320   -4.2375 H   0  0  0  0  0  0  0  0  0  0  0  0
    2.2576   -2.4973   -3.2215 N   0  0  0  0  0  0  0  0  0  0  0  0
    2.6640   -1.0764   -3.1825 C   0  0  2  0  0  0  0  0  0  0  0  0
    2.4580   -0.3578   -1.8279 C   0  0  0  0  0  0  0  0  0  0  0  0
    3.3429    0.3706   -1.4049 O   0  0  0  0  0  0  0  0  0  0  0  0
    2.0004   -0.2872   -4.3196 C   0  0  0  0  0  0  0  0  0  0  0  0
    2.9822   -3.1825   -3.4183 H   0  0  0  0  0  0  0  0  0  0  0  0
    3.7434   -1.0536   -3.3670 H   0  0  0  0  0  0  0  0  0  0  0  0
    0.9226   -0.1879   -4.1592 H   0  0  0  0  0  0  0  0  0  0  0  0
    2.4307    0.7177   -4.3777 H   0  0  0  0  0  0  0  0  0  0  0  0
    2.1652   -0.7889   -5.2777 H   0  0  0  0  0  0  0  0  0  0  0  0
    1.2336   -0.3425   -1.1886 N   0  0  0  0  0  0  0  0  0  0  0  0
    0.9707   -0.0365    0.2377 C   0  0  2  0  0  0  0  0  0  0  0  0
    0.3727    1.3733    0.3984 C   0  0  0  0  0  0  0  0  0  0  0  0
   -0.3697    1.6215    1.3405 O   0  0  0  0  0  0  0  0  0  0  0  0
    2.0643   -0.3232    1.3028 C   0  0  0  0  0  0  0  0  0  0  0  0
    2.4392   -1.8067    1.5594 C   0  0  0  0  0  0  0  0  0  0  0  0
    3.6290   -1.8444    2.5270 C   0  0  0  0  0  0  0  0  0  0  0  0
    2.8010   -2.6449    0.3296 C   0  0  0  0  0  0  0  0  0  0  0  0
    0.5299   -0.9175   -1.6634 H   0  0  0  0  0  0  0  0  0  0  0  0
    0.1486   -0.7034    0.5157 H   0  0  0  0  0  0  0  0  0  0  0  0
    1.7161    0.0876    2.2569 H   0  0  0  0  0  0  0  0  0  0  0  0
    2.9677    0.2346    1.0416 H   0  0  0  0  0  0  0  0  0  0  0  0
    1.5814   -2.2868    2.0429 H   0  0  0  0  0  0  0  0  0  0  0  0
    4.5161   -1.3975    2.0664 H   0  0  0  0  0  0  0  0  0  0  0  0
    3.8645   -2.8762    2.8056 H   0  0  0  0  0  0  0  0  0  0  0  0
    3.3960   -1.2896    3.4412 H   0  0  0  0  0  0  0  0  0  0  0  0
    3.6354   -2.1940   -0.2152 H   0  0  0  0  0  0  0  0  0  0  0  0
    3.0998   -3.6527    0.6343 H   0  0  0  0  0  0  0  0  0  0  0  0
    1.9397   -2.7448   -0.3342 H   0  0  0  0  0  0  0  0  0  0  0  0
    0.7118    2.3571   -0.5141 N   0  0  0  0  0  0  0  0  0  0  0  0
    0.2231    3.7499   -0.5702 C   0  0  2  0  0  0  0  0  0  0  0  0
    0.6758    4.6567    0.5974 C   0  0  0  0  0  0  0  0  0  0  0  0
    1.0403    5.8018    0.3622 O   0  0  0  0  0  0  0  0  0  0  0  0
   -1.3036    3.7855   -0.7211 C   0  0  0  0  0  0  0  0  0  0  0  0
    1.4379    2.0786   -1.1738 H   0  0  0  0  0  0  0  0  0  0  0  0
    0.6449    4.1956   -1.4768 H   0  0  0  0  0  0  0  0  0  0  0  0
   -1.7994    3.4462    0.1931 H   0  0  0  0  0  0  0  0  0  0  0  0
   -1.6356    4.8074   -0.9293 H   0  0  0  0  0  0  0  0  0  0  0  0
   -1.6196    3.1433   -1.5484 H   0  0  0  0  0  0  0  0  0  0  0  0
    0.6392    4.2176    1.9056 N   0  0  0  0  0  0  0  0  0  0  0  0
    0.9599    5.0511    3.0553 C   0  0  0  0  0  0  0  0  0  0  0  0
    0.2397    3.2870    2.0537 H   0  0  0  0  0  0  0  0  0  0  0  0
    0.2444    5.8753    3.1416 H   0  0  0  0  0  0  0  0  0  0  0  0
    0.9194    4.4576    3.9736 H   0  0  0  0  0  0  0  0  0  0  0  0
    1.9680    5.4675    2.9583 H   0  0  0  0  0  0  0  0  0  0  0  0
  1  2  2  0  0  0  0
  1  3  1  0  0  0  0
  1  7  1  0  0  0  0
  3  4  1  0  0  0  0
  3  5  1  0  0  0  0
  3  6  1  0  0  0  0
  7  8  1  0  0  0  0
  7 12  1  0  0  0  0
  8  9  1  0  0  0  0
  8 11  1  0  0  0  0
  8 13  1  0  0  0  0
  9 10  2  0  0  0  0
  9 17  1  0  0  0  0
 11 14  1  0  0  0  0
 11 15  1  0  0  0  0
 11 16  1  0  0  0  0
 17 18  1  0  0  0  0
 17 25  1  0  0  0  0
 18 19  1  0  0  0  0
 18 21  1  0  0  0  0
 18 26  1  0  0  0  0
 19 20  2  0  0  0  0
 19 36  1  0  0  0  0
 21 22  1  0  0  0  0
 21 27  1  0  0  0  0
 21 28  1  0  0  0  0
 22 23  1  0  0  0  0
 22 24  1  0  0  0  0
 22 29  1  0  0  0  0
 23 30  1  0  0  0  0
 23 31  1  0  0  0  0
 23 32  1  0  0  0  0
 24 33  1  0  0  0  0
 24 34  1  0  0  0  0
 24 35  1  0  0  0  0
 36 37  1  0  0  0  0
 36 41  1  0  0  0  0
 37 38  1  0  0  0  0
 37 40  1  0  0  0  0
 37 42  1  0  0  0  0
 38 39  2  0  0  0  0
 38 46  1  0  0  0  0
 40 43  1  0  0  0  0
 40 44  1  0  0  0  0
 40 45  1  0  0  0  0
 46 47  1  0  0  0  0
 46 48  1  0  0  0  0
 47 49  1  0  0  0  0
 47 50  1  0  0  0  0
 47 51  1  0  0  0  0
M  END
$$$$

  -OEChem-05262216553D

 51 50  0     1  0  0  0  0  0999 V2000
    0.9079   -2.9901   -3.1003 C   0  0  0  0  0  0  0  0  0  0  0  0
   -0.0162   -2.2444   -2.8163 O   0  0  0  0  0  0  0  0  0  0  0  0
    0.6579   -4.4794   -3.2432 C   0  0  0  0  0  0  0  0  0  0  0  0
    1.2500   -5.0310   -2.5086 H   0  0  0  0  0  0  0  0  0  0  0  0
   -0.4006   -4.7023   -3.0801 H   0  0  0  0  0  0  0  0  0  0  0  0
    0.9350   -4.8108   -4.2471 H   0  0  0  0  0  0  0  0  0  0  0  0
    2.1923   -2.4996   -3.2441 N   0  0  0  0  0  0  0  0  0  0  0  0
    2.6138   -1.0825   -3.2188 C   0  0  2  0  0  0  0  0  0  0  0  0
    2.4572   -0.3636   -1.8580 C   0  0  0  0  0  0  0  0  0  0  0  0
    3.3772    0.3264   -1.4482 O   0  0  0  0  0  0  0  0  0  0  0  0
    1.9210   -0.2884   -4.3349 C   0  0  0  0  0  0  0  0  0  0  0  0
    2.9046   -3.1918   -3.4604 H   0  0  0  0  0  0  0  0  0  0  0  0
    3.6868   -1.0691   -3.4379 H   0  0  0  0  0  0  0  0  0  0  0  0
    0.8480   -0.1887   -4.1458 H   0  0  0  0  0  0  0  0  0  0  0  0
    2.3502    0.7166   -4.4019 H   0  0  0  0  0  0  0  0  0  0  0  0
    2.0600   -0.7879   -5.2984 H   0  0  0  0  0  0  0  0  0  0  0  0
    1.2482   -0.3409   -1.1881 N   0  0  0  0  0  0  0  0  0  0  0  0
    1.0091   -0.0186    0.2399 C   0  0  2  0  0  0  0  0  0  0  0  0
    0.4070    1.3918    0.4123 C   0  0  0  0  0  0  0  0  0  0  0  0
   -0.1401    1.6985    1.4645 O   0  0  0  0  0  0  0  0  0  0  0  0
    2.1266   -0.3109    1.2812 C   0  0  0  0  0  0  0  0  0  0  0  0
    2.4923   -1.7971    1.5374 C   0  0  0  0  0  0  0  0  0  0  0  0
    3.7049   -1.8414    2.4762 C   0  0  0  0  0  0  0  0  0  0  0  0
    2.8124   -2.6490    0.3053 C   0  0  0  0  0  0  0  0  0  0  0  0
    0.5311   -0.9129   -1.6463 H   0  0  0  0  0  0  0  0  0  0  0  0
    0.1911   -0.6824    0.5368 H   0  0  0  0  0  0  0  0  0  0  0  0
    1.8078    0.1058    2.2428 H   0  0  0  0  0  0  0  0  0  0  0  0
    3.0289    0.2365    0.9959 H   0  0  0  0  0  0  0  0  0  0  0  0
    1.6419   -2.2643    2.0450 H   0  0  0  0  0  0  0  0  0  0  0  0
    4.5820   -1.3970    1.9945 H   0  0  0  0  0  0  0  0  0  0  0  0
    3.9435   -2.8745    2.7476 H   0  0  0  0  0  0  0  0  0  0  0  0
    3.4963   -1.2869    3.3966 H   0  0  0  0  0  0  0  0  0  0  0  0
    3.6406   -2.2153   -0.2621 H   0  0  0  0  0  0  0  0  0  0  0  0
    3.1029   -3.6589    0.6109 H   0  0  0  0  0  0  0  0  0  0  0  0
    1.9345   -2.7407   -0.3378 H   0  0  0  0  0  0  0  0  0  0  0  0
    0.4486    2.2904   -0.6400 N   0  0  0  0  0  0  0  0  0  0  0  0
   -0.1617    3.6341   -0.7132 C   0  0  2  0  0  0  0  0  0  0  0  0
    0.4366    4.6925    0.2433 C   0  0  0  0  0  0  0  0  0  0  0  0
    0.6389    5.8272   -0.1704 O   0  0  0  0  0  0  0  0  0  0  0  0
   -1.6841    3.5504   -0.5390 C   0  0  0  0  0  0  0  0  0  0  0  0
    1.0144    1.9813   -1.4276 H   0  0  0  0  0  0  0  0  0  0  0  0
    0.0243    4.0087   -1.7250 H   0  0  0  0  0  0  0  0  0  0  0  0
   -1.9505    3.2717    0.4847 H   0  0  0  0  0  0  0  0  0  0  0  0
   -2.1394    4.5216   -0.7571 H   0  0  0  0  0  0  0  0  0  0  0  0
   -2.1058    2.8089   -1.2239 H   0  0  0  0  0  0  0  0  0  0  0  0
    0.7028    4.4020    1.5664 N   0  0  0  0  0  0  0  0  0  0  0  0
    1.1702    5.3784    2.5400 C   0  0  0  0  0  0  0  0  0  0  0  0
    0.4397    3.4641    1.8802 H   0  0  0  0  0  0  0  0  0  0  0  0
    0.4275    6.1718    2.6728 H   0  0  0  0  0  0  0  0  0  0  0  0
    1.3385    4.8946    3.5068 H   0  0  0  0  0  0  0  0  0  0  0  0
    2.1125    5.8278    2.2102 H   0  0  0  0  0  0  0  0  0  0  0  0
  1  2  2  0  0  0  0
  1  3  1  0  0  0  0
  1  7  1  0  0  0  0
  3  4  1  0  0  0  0
  3  5  1  0  0  0  0
  3  6  1  0  0  0  0
  7  8  1  0  0  0  0
  7 12  1  0  0  0  0
  8  9  1  0  0  0  0
  8 11  1  0  0  0  0
  8 13  1  0  0  0  0
  9 10  2  0  0  0  0
  9 17  1  0  0  0  0
 11 14  1  0  0  0  0
 11 15  1  0  0  0  0
 11 16  1  0  0  0  0
 17 18  1  0  0  0  0
 17 25  1  0  0  0  0
 18 19  1  0  0  0  0
 18 21  1  0  0  0  0
 18 26  1  0  0  0  0
 19 20  2  0  0  0  0
 19 36  1  0  0  0  0
 21 22  1  0  0  0  0
 21 27  1  0  0  0  0
 21 28  1  0  0  0  0
 22 23  1  0  0  0  0
 22 24  1  0  0  0  0
 22 29  1  0  0  0  0
 23 30  1  0  0  0  0
 23 31  1  0  0  0  0
 23 32  1  0  0  0  0
 24 33  1  0  0  0  0
 24 34  1  0  0  0  0
 24 35  1  0  0  0  0
 36 37  1  0  0  0  0
 36 41  1  0  0  0  0
 37 38  1  0  0  0  0
 37 40  1  0  0  0  0
 37 42  1  0  0  0  0
 38 39  2  0  0  0  0
 38 46  1  0  0  0  0
 40 43  1  0  0  0  0
 40 44  1  0  0  0  0
 40 45  1  0  0  0  0
 46 47  1  0  0  0  0
 46 48  1  0  0  0  0
 47 49  1  0  0  0  0
 47 50  1  0  0  0  0
 47 51  1  0  0  0  0
M  END
$$$$

  -OEChem-05262216553D

 51 50  0     1  0  0  0  0  0999 V2000
    1.0138   -2.9851   -3.1110 C   0  0  0  0  0  0  0  0  0  0  0  0
    0.0484   -2.2934   -2.8264 O   0  0  0  0  0  0  0  0  0  0  0  0
    0.8543   -4.4880   -3.2384 C   0  0  0  0  0  0  0  0  0  0  0  0
    1.4662   -4.9940   -2.4875 H   0  0  0  0  0  0  0  0  0  0  0  0
   -0.1915   -4.7712   -3.0888 H   0  0  0  0  0  0  0  0  0  0  0  0
    1.1670   -4.8140   -4.2333 H   0  0  0  0  0  0  0  0  0  0  0  0
    2.2676   -2.4212   -3.2556 N   0  0  0  0  0  0  0  0  0  0  0  0
    2.6096   -0.9841   -3.2035 C   0  0  2  0  0  0  0  0  0  0  0  0
    2.4173   -0.3079   -1.8255 C   0  0  0  0  0  0  0  0  0  0  0  0
    3.3263    0.3706   -1.3747 O   0  0  0  0  0  0  0  0  0  0  0  0
    1.8713   -0.2052   -4.3012 C   0  0  0  0  0  0  0  0  0  0  0  0
    3.0217   -3.0712   -3.4620 H   0  0  0  0  0  0  0  0  0  0  0  0
    3.6793   -0.9070   -3.4253 H   0  0  0  0  0  0  0  0  0  0  0  0
    0.7952   -0.1660   -4.1082 H   0  0  0  0  0  0  0  0  0  0  0  0
    2.2473    0.8219   -4.3488 H   0  0  0  0  0  0  0  0  0  0  0  0
    2.0327   -0.6769   -5.2753 H   0  0  0  0  0  0  0  0  0  0  0  0
    1.1924   -0.3276   -1.1823 N   0  0  0  0  0  0  0  0  0  0  0  0
    0.9117   -0.0198    0.2422 C   0  0  2  0  0  0  0  0  0  0  0  0
    0.2595    1.3736    0.3995 C   0  0  0  0  0  0  0  0  0  0  0  0
   -0.0847    1.7788    1.5031 O   0  0  0  0  0  0  0  0  0  0  0  0
    2.0128   -0.3003    1.3068 C   0  0  0  0  0  0  0  0  0  0  0  0
    2.3996   -1.7826    1.5574 C   0  0  0  0  0  0  0  0  0  0  0  0
    3.5918   -1.8131    2.5223 C   0  0  0  0  0  0  0  0  0  0  0  0
    2.7668   -2.6157    0.3249 C   0  0  0  0  0  0  0  0  0  0  0  0
    0.5084   -0.9270   -1.6560 H   0  0  0  0  0  0  0  0  0  0  0  0
    0.1045   -0.7055    0.5168 H   0  0  0  0  0  0  0  0  0  0  0  0
    1.6660    0.0961    2.2668 H   0  0  0  0  0  0  0  0  0  0  0  0
    2.9097    0.2695    1.0499 H   0  0  0  0  0  0  0  0  0  0  0  0
    1.5470   -2.2712    2.0408 H   0  0  0  0  0  0  0  0  0  0  0  0
    4.4741   -1.3585    2.0598 H   0  0  0  0  0  0  0  0  0  0  0  0
    3.8362   -2.8433    2.7992 H   0  0  0  0  0  0  0  0  0  0  0  0
    3.3570   -1.2618    3.4383 H   0  0  0  0  0  0  0  0  0  0  0  0
    3.5985   -2.1583   -0.2188 H   0  0  0  0  0  0  0  0  0  0  0  0
    3.0719   -3.6224    0.6274 H   0  0  0  0  0  0  0  0  0  0  0  0
    1.9065   -2.7199   -0.3394 H   0  0  0  0  0  0  0  0  0  0  0  0
    0.0184    2.1476   -0.7236 N   0  0  0  0  0  0  0  0  0  0  0  0
   -0.6298    3.4737   -0.7917 C   0  0  2  0  0  0  0  0  0  0  0  0
    0.1592    4.6244   -0.1244 C   0  0  0  0  0  0  0  0  0  0  0  0
    0.2702    5.6939   -0.7103 O   0  0  0  0  0  0  0  0  0  0  0  0
   -2.0655    3.4163   -0.2517 C   0  0  0  0  0  0  0  0  0  0  0  0
    0.4334    1.7802   -1.5762 H   0  0  0  0  0  0  0  0  0  0  0  0
   -0.7001    3.7344   -1.8529 H   0  0  0  0  0  0  0  0  0  0  0  0
   -2.0762    3.2670    0.8319 H   0  0  0  0  0  0  0  0  0  0  0  0
   -2.5847    4.3546   -0.4708 H   0  0  0  0  0  0  0  0  0  0  0  0
   -2.6175    2.5978   -0.7231 H   0  0  0  0  0  0  0  0  0  0  0  0
    0.7206    4.4804    1.1285 N   0  0  0  0  0  0  0  0  0  0  0  0
    1.4447    5.5322    1.8274 C   0  0  0  0  0  0  0  0  0  0  0  0
    0.5529    3.5859    1.5968 H   0  0  0  0  0  0  0  0  0  0  0  0
    0.7847    6.3825    2.0277 H   0  0  0  0  0  0  0  0  0  0  0  0
    1.8270    5.1565    2.7813 H   0  0  0  0  0  0  0  0  0  0  0  0
    2.2933    5.8769    1.2276 H   0  0  0  0  0  0  0  0  0  0  0  0
  1  2  2  0  0  0  0
  1  3  1  0  0  0  0
  1  7  1  0  0  0  0
  3  4  1  0  0  0  0
  3  5  1  0  0  0  0
  3  6  1  0  0  0  0
  7  8  1  0  0  0  0
  7 12  1  0  0  0  0
  8  9  1  0  0  0  0
  8 11  1  0  0  0  0
  8 13  1  0  0  0  0
  9 10  2  0  0  0  0
  9 17  1  0  0  0  0
 11 14  1  0  0  0  0
 11 15  1  0  0  0  0
 11 16  1  0  0  0  0
 17 18  1  0  0  0  0
 17 25  1  0  0  0  0
 18 19  1  0  0  0  0
 18 21  1  0  0  0  0
 18 26  1  0  0  0  0
 19 20  2  0  0  0  0
 19 36  1  0  0  0  0
 21 22  1  0  0  0  0
 21 27  1  0  0  0  0
 21 28  1  0  0  0  0
 22 23  1  0  0  0  0
 22 24  1  0  0  0  0
 22 29  1  0  0  0  0
 23 30  1  0  0  0  0
 23 31  1  0  0  0  0
 23 32  1  0  0  0  0
 24 33  1  0  0  0  0
 24 34  1  0  0  0  0
 24 35  1  0  0  0  0
 36 37  1  0  0  0  0
 36 41  1  0  0  0  0
 37 38  1  0  0  0  0
 37 40  1  0  0  0  0
 37 42  1  0  0  0  0
 38 39  2  0  0  0  0
 38 46  1  0  0  0  0
 40 43  1  0  0  0  0
 40 44  1  0  0  0  0
 40 45  1  0  0  0  0
 46 47  1  0  0  0  0
 46 48  1  0  0  0  0
 47 49  1  0  0  0  0
 47 50  1  0  0  0  0
 47 51  1  0  0  0  0
M  END
$$$$

  -OEChem-05262216553D

 51 50  0     1  0  0  0  0  0999 V2000
    1.0546   -2.8977   -3.1494 C   0  0  0  0  0  0  0  0  0  0  0  0
    0.0775   -2.2231   -2.8627 O   0  0  0  0  0  0  0  0  0  0  0  0
    0.9072   -4.3954   -3.3397 C   0  0  0  0  0  0  0  0  0  0  0  0
    1.5196   -4.9281   -2.6078 H   0  0  0  0  0  0  0  0  0  0  0  0
   -0.1370   -4.6933   -3.2068 H   0  0  0  0  0  0  0  0  0  0  0  0
    1.2267   -4.6774   -4.3460 H   0  0  0  0  0  0  0  0  0  0  0  0
    2.3072   -2.3208   -3.2458 N   0  0  0  0  0  0  0  0  0  0  0  0
    2.6370   -0.8830   -3.1469 C   0  0  2  0  0  0  0  0  0  0  0  0
    2.4098   -0.2454   -1.7560 C   0  0  0  0  0  0  0  0  0  0  0  0
    3.3098    0.4166   -1.2642 O   0  0  0  0  0  0  0  0  0  0  0  0
    1.9163   -0.0797   -4.2388 C   0  0  0  0  0  0  0  0  0  0  0  0
    3.0708   -2.9582   -3.4564 H   0  0  0  0  0  0  0  0  0  0  0  0
    3.7108   -0.7912   -3.3435 H   0  0  0  0  0  0  0  0  0  0  0  0
    0.8357   -0.0570   -4.0710 H   0  0  0  0  0  0  0  0  0  0  0  0
    2.2820    0.9522   -4.2468 H   0  0  0  0  0  0  0  0  0  0  0  0
    2.1062   -0.5199   -5.2223 H   0  0  0  0  0  0  0  0  0  0  0  0
    1.1721   -0.3023   -1.1388 N   0  0  0  0  0  0  0  0  0  0  0  0
    0.8566   -0.0202    0.2832 C   0  0  2  0  0  0  0  0  0  0  0  0
    0.1689    1.3590    0.4330 C   0  0  0  0  0  0  0  0  0  0  0  0
    0.0260    1.8802    1.5323 O   0  0  0  0  0  0  0  0  0  0  0  0
    1.9369   -0.3120    1.3675 C   0  0  0  0  0  0  0  0  0  0  0  0
    2.3257   -1.7972    1.5981 C   0  0  0  0  0  0  0  0  0  0  0  0
    3.4970   -1.8435    2.5878 C   0  0  0  0  0  0  0  0  0  0  0  0
    2.7218   -2.6022    0.3561 C   0  0  0  0  0  0  0  0  0  0  0  0
    0.5118   -0.9068   -1.6381 H   0  0  0  0  0  0  0  0  0  0  0  0
    0.0546   -0.7221    0.5296 H   0  0  0  0  0  0  0  0  0  0  0  0
    1.5680    0.0618    2.3280 H   0  0  0  0  0  0  0  0  0  0  0  0
    2.8353    0.2683    1.1419 H   0  0  0  0  0  0  0  0  0  0  0  0
    1.4654   -2.2994    2.0535 H   0  0  0  0  0  0  0  0  0  0  0  0
    4.3833   -1.3628    2.1603 H   0  0  0  0  0  0  0  0  0  0  0  0
    3.7496   -2.8790    2.8364 H   0  0  0  0  0  0  0  0  0  0  0  0
    3.2340   -1.3254    3.5155 H   0  0  0  0  0  0  0  0  0  0  0  0
    3.5600   -2.1279   -0.1622 H   0  0  0  0  0  0  0  0  0  0  0  0
    3.0282   -3.6129    0.6430 H   0  0  0  0  0  0  0  0  0  0  0  0
    1.8751   -2.6980   -0.3269 H   0  0  0  0  0  0  0  0  0  0  0  0
   -0.3429    1.9874   -0.6913 N   0  0  0  0  0  0  0  0  0  0  0  0
   -1.0508    3.2827   -0.7632 C   0  0  2  0  0  0  0  0  0  0  0  0
   -0.1854    4.5153   -0.4139 C   0  0  0  0  0  0  0  0  0  0  0  0
   -0.1693    5.4729   -1.1769 O   0  0  0  0  0  0  0  0  0  0  0  0
   -2.3354    3.2620    0.0766 C   0  0  0  0  0  0  0  0  0  0  0  0
   -0.0923    1.5392   -1.5687 H   0  0  0  0  0  0  0  0  0  0  0  0
   -1.3578    3.4161   -1.8055 H   0  0  0  0  0  0  0  0  0  0  0  0
   -2.1105    3.2460    1.1471 H   0  0  0  0  0  0  0  0  0  0  0  0
   -2.9323    4.1555   -0.1317 H   0  0  0  0  0  0  0  0  0  0  0  0
   -2.9349    2.3801   -0.1677 H   0  0  0  0  0  0  0  0  0  0  0  0
    0.5650    4.5601    0.7437 N   0  0  0  0  0  0  0  0  0  0  0  0
    1.4488    5.6592    1.1043 C   0  0  0  0  0  0  0  0  0  0  0  0
    0.5364    3.7221    1.3311 H   0  0  0  0  0  0  0  0  0  0  0  0
    0.8961    6.6040    1.1300 H   0  0  0  0  0  0  0  0  0  0  0  0
    1.8805    5.4852    2.0945 H   0  0  0  0  0  0  0  0  0  0  0  0
    2.2650    5.7463    0.3797 H   0  0  0  0  0  0  0  0  0  0  0  0
  1  2  2  0  0  0  0
  1  3  1  0  0  0  0
  1  7  1  0  0  0  0
  3  4  1  0  0  0  0
  3  5  1  0  0  0  0
  3  6  1  0  0  0  0
  7  8  1  0  0  0  0
  7 12  1  0  0  0  0
  8  9  1  0  0  0  0
  8 11  1  0  0  0  0
  8 13  1  0  0  0  0
  9 10  2  0  0  0  0
  9 17  1  0  0  0  0
 11 14  1  0  0  0  0
 11 15  1  0  0  0  0
 11 16  1  0  0  0  0
 17 18  1  0  0  0  0
 17 25  1  0  0  0  0
 18 19  1  0  0  0  0
 18 21  1  0  0  0  0
 18 26  1  0  0  0  0
 19 20  2  0  0  0  0
 19 36  1  0  0  0  0
 21 22  1  0  0  0  0
 21 27  1  0  0  0  0
 21 28  1  0  0  0  0
 22 23  1  0  0  0  0
 22 24  1  0  0  0  0
 22 29  1  0  0  0  0
 23 30  1  0  0  0  0
 23 31  1  0  0  0  0
 23 32  1  0  0  0  0
 24 33  1  0  0  0  0
 24 34  1  0  0  0  0
 24 35  1  0  0  0  0
 36 37  1  0  0  0  0
 36 41  1  0  0  0  0
 37 38  1  0  0  0  0
 37 40  1  0  0  0  0
 37 42  1  0  0  0  0
 38 39  2  0  0  0  0
 38 46  1  0  0  0  0
 40 43  1  0  0  0  0
 40 44  1  0  0  0  0
 40 45  1  0  0  0  0
 46 47  1  0  0  0  0
 46 48  1  0  0  0  0
 47 49  1  0  0  0  0
 47 50  1  0  0  0  0
 47 51  1  0  0  0  0
M  END
$$$$

  -OEChem-05262216553D

 51 50  0     1  0  0  0  0  0999 V2000
    1.0809   -2.7577   -3.2120 C   0  0  0  0  0  0  0  0  0  0  0  0
    0.1066   -2.0725   -2.9405 O   0  0  0  0  0  0  0  0  0  0  0  0
    0.9072   -4.2424   -3.4715 C   0  0  0  0  0  0  0  0  0  0  0  0
    1.4652   -4.8202   -2.7305 H   0  0  0  0  0  0  0  0  0  0  0  0
   -0.1498   -4.5166   -3.4068 H   0  0  0  0  0  0  0  0  0  0  0  0
    1.2735   -4.4928   -4.4703 H   0  0  0  0  0  0  0  0  0  0  0  0
    2.3498   -2.2087   -3.2257 N   0  0  0  0  0  0  0  0  0  0  0  0
    2.7103   -0.7851   -3.0490 C   0  0  2  0  0  0  0  0  0  0  0  0
    2.4353   -0.1997   -1.6438 C   0  0  0  0  0  0  0  0  0  0  0  0
    3.3222    0.4318   -1.0917 O   0  0  0  0  0  0  0  0  0  0  0  0
    2.0610    0.0848   -4.1348 C   0  0  0  0  0  0  0  0  0  0  0  0
    3.1066   -2.8554   -3.4327 H   0  0  0  0  0  0  0  0  0  0  0  0
    3.7939   -0.7141   -3.1922 H   0  0  0  0  0  0  0  0  0  0  0  0
    0.9745    0.1259   -4.0161 H   0  0  0  0  0  0  0  0  0  0  0  0
    2.4487    1.1072   -4.0767 H   0  0  0  0  0  0  0  0  0  0  0  0
    2.2880   -0.3135   -5.1283 H   0  0  0  0  0  0  0  0  0  0  0  0
    1.1750   -0.2794   -1.0768 N   0  0  0  0  0  0  0  0  0  0  0  0
    0.7962   -0.0291    0.3343 C   0  0  2  0  0  0  0  0  0  0  0  0
    0.0896    1.3418    0.4682 C   0  0  0  0  0  0  0  0  0  0  0  0
    0.1187    1.9807    1.5129 O   0  0  0  0  0  0  0  0  0  0  0  0
    1.8292   -0.3362    1.4581 C   0  0  0  0  0  0  0  0  0  0  0  0
    2.2162   -1.8245    1.6723 C   0  0  0  0  0  0  0  0  0  0  0  0
    3.3434   -1.8867    2.7111 C   0  0  0  0  0  0  0  0  0  0  0  0
    2.6690   -2.6038    0.4322 C   0  0  0  0  0  0  0  0  0  0  0  0
    0.5350   -0.8621   -1.6248 H   0  0  0  0  0  0  0  0  0  0  0  0
   -0.0098   -0.7417    0.5334 H   0  0  0  0  0  0  0  0  0  0  0  0
    1.4120    0.0125    2.4084 H   0  0  0  0  0  0  0  0  0  0  0  0
    2.7313    0.2569    1.2870 H   0  0  0  0  0  0  0  0  0  0  0  0
    1.3398   -2.3394    2.0797 H   0  0  0  0  0  0  0  0  0  0  0  0
    4.2465   -1.3983    2.3304 H   0  0  0  0  0  0  0  0  0  0  0  0
    3.5862   -2.9262    2.9530 H   0  0  0  0  0  0  0  0  0  0  0  0
    3.0399   -1.3836    3.6347 H   0  0  0  0  0  0  0  0  0  0  0  0
    3.5304   -2.1199   -0.0368 H   0  0  0  0  0  0  0  0  0  0  0  0
    2.9623   -3.6202    0.7128 H   0  0  0  0  0  0  0  0  0  0  0  0
    1.8559   -2.6861   -0.2924 H   0  0  0  0  0  0  0  0  0  0  0  0
   -0.6427    1.8236   -0.6058 N   0  0  0  0  0  0  0  0  0  0  0  0
   -1.4122    3.0829   -0.6838 C   0  0  2  0  0  0  0  0  0  0  0  0
   -0.5556    4.3691   -0.6412 C   0  0  0  0  0  0  0  0  0  0  0  0
   -0.7382    5.2396   -1.4827 O   0  0  0  0  0  0  0  0  0  0  0  0
   -2.5180    3.1278    0.3801 C   0  0  0  0  0  0  0  0  0  0  0  0
   -0.5238    1.2949   -1.4656 H   0  0  0  0  0  0  0  0  0  0  0  0
   -1.9114    3.0861   -1.6581 H   0  0  0  0  0  0  0  0  0  0  0  0
   -2.0993    3.2457    1.3838 H   0  0  0  0  0  0  0  0  0  0  0  0
   -3.1860    3.9737    0.1898 H   0  0  0  0  0  0  0  0  0  0  0  0
   -3.1088    2.2074    0.3543 H   0  0  0  0  0  0  0  0  0  0  0  0
    0.4118    4.5551    0.3252 N   0  0  0  0  0  0  0  0  0  0  0  0
    1.2817    5.7197    0.4004 C   0  0  0  0  0  0  0  0  0  0  0  0
    0.5297    3.7928    0.9983 H   0  0  0  0  0  0  0  0  0  0  0  0
    0.6918    6.6287    0.5569 H   0  0  0  0  0  0  0  0  0  0  0  0
    1.9820    5.6127    1.2345 H   0  0  0  0  0  0  0  0  0  0  0  0
    1.8585    5.8266   -0.5242 H   0  0  0  0  0  0  0  0  0  0  0  0
  1  2  2  0  0  0  0
  1  3  1  0  0  0  0
  1  7  1  0  0  0  0
  3  4  1  0  0  0  0
  3  5  1  0  0  0  0
  3  6  1  0  0  0  0
  7  8  1  0  0  0  0
  7 12  1  0  0  0  0
  8  9  1  0  0  0  0
  8 11  1  0  0  0  0
  8 13  1  0  0  0  0
  9 10  2  0  0  0  0
  9 17  1  0  0  0  0
 11 14  1  0  0  0  0
 11 15  1  0  0  0  0
 11 16  1  0  0  0  0
 17 18  1  0  0  0  0
 17 25  1  0  0  0  0
 18 19  1  0  0  0  0
 18 21  1  0  0  0  0
 18 26  1  0  0  0  0
 19 20  2  0  0  0  0
 19 36  1  0  0  0  0
 21 22  1  0  0  0  0
 21 27  1  0  0  0  0
 21 28  1  0  0  0  0
 22 23  1  0  0  0  0
 22 24  1  0  0  0  0
 22 29  1  0  0  0  0
 23 30  1  0  0  0  0
 23 31  1  0  0  0  0
 23 32  1  0  0  0  0
 24 33  1  0  0  0  0
 24 34  1  0  0  0  0
 24 35  1  0  0  0  0
 36 37  1  0  0  0  0
 36 41  1  0  0  0  0
 37 38  1  0  0  0  0
 37 40  1  0  0  0  0
 37 42  1  0  0  0  0
 38 39  2  0  0  0  0
 38 46  1  0  0  0  0
 40 43  1  0  0  0  0
 40 44  1  0  0  0  0
 40 45  1  0  0  0  0
 46 47  1  0  0  0  0
 46 48  1  0  0  0  0
 47 49  1  0  0  0  0
 47 50  1  0  0  0  0
 47 51  1  0  0  0  0
M  END
$$$$

  -OEChem-05262216553D

 51 50  0     1  0  0  0  0  0999 V2000
    1.1414   -2.6385   -3.2412 C   0  0  0  0  0  0  0  0  0  0  0  0
    0.1445   -1.9964   -2.9457 O   0  0  0  0  0  0  0  0  0  0  0  0
    1.0117   -4.1096   -3.5883 C   0  0  0  0  0  0  0  0  0  0  0  0
    1.5525   -4.7160   -2.8573 H   0  0  0  0  0  0  0  0  0  0  0  0
   -0.0406   -4.4081   -3.5830 H   0  0  0  0  0  0  0  0  0  0  0  0
    1.4237   -4.2972   -4.5830 H   0  0  0  0  0  0  0  0  0  0  0  0
    2.3955   -2.0568   -3.2110 N   0  0  0  0  0  0  0  0  0  0  0  0
    2.7173   -0.6349   -2.9611 C   0  0  2  0  0  0  0  0  0  0  0  0
    2.4113   -0.1280   -1.5321 C   0  0  0  0  0  0  0  0  0  0  0  0
    3.2870    0.4666   -0.9236 O   0  0  0  0  0  0  0  0  0  0  0  0
    2.0555    0.2694   -4.0105 C   0  0  0  0  0  0  0  0  0  0  0  0
    3.1708   -2.6715   -3.4449 H   0  0  0  0  0  0  0  0  0  0  0  0
    3.7999   -0.5284   -3.0888 H   0  0  0  0  0  0  0  0  0  0  0  0
    0.9665    0.2682   -3.9091 H   0  0  0  0  0  0  0  0  0  0  0  0
    2.4067    1.2995   -3.8915 H   0  0  0  0  0  0  0  0  0  0  0  0
    2.3118   -0.0683   -5.0190 H   0  0  0  0  0  0  0  0  0  0  0  0
    1.1369   -0.2446   -1.0055 N   0  0  0  0  0  0  0  0  0  0  0  0
    0.7047   -0.0498    0.3971 C   0  0  2  0  0  0  0  0  0  0  0  0
   -0.0259    1.3060    0.5361 C   0  0  0  0  0  0  0  0  0  0  0  0
    0.1761    2.0521    1.4862 O   0  0  0  0  0  0  0  0  0  0  0  0
    1.7019   -0.3649    1.5492 C   0  0  0  0  0  0  0  0  0  0  0  0
    2.1212   -1.8478    1.7354 C   0  0  0  0  0  0  0  0  0  0  0  0
    3.2096   -1.9081    2.8146 C   0  0  0  0  0  0  0  0  0  0  0  0
    2.6425   -2.5760    0.4910 C   0  0  0  0  0  0  0  0  0  0  0  0
    0.5187   -0.8012   -1.6024 H   0  0  0  0  0  0  0  0  0  0  0  0
   -0.0920   -0.7840    0.5484 H   0  0  0  0  0  0  0  0  0  0  0  0
    1.2381   -0.0527    2.4908 H   0  0  0  0  0  0  0  0  0  0  0  0
    2.5938    0.2559    1.4295 H   0  0  0  0  0  0  0  0  0  0  0  0
    1.2450   -2.3985    2.0938 H   0  0  0  0  0  0  0  0  0  0  0  0
    4.1128   -1.3864    2.4812 H   0  0  0  0  0  0  0  0  0  0  0  0
    3.4706   -2.9468    3.0389 H   0  0  0  0  0  0  0  0  0  0  0  0
    2.8592   -1.4377    3.7386 H   0  0  0  0  0  0  0  0  0  0  0  0
    3.5092   -2.0566    0.0726 H   0  0  0  0  0  0  0  0  0  0  0  0
    2.9504   -3.5933    0.7513 H   0  0  0  0  0  0  0  0  0  0  0  0
    1.8612   -2.6547   -0.2685 H   0  0  0  0  0  0  0  0  0  0  0  0
   -0.9666    1.6557   -0.4209 N   0  0  0  0  0  0  0  0  0  0  0  0
   -1.7426    2.9113   -0.4975 C   0  0  2  0  0  0  0  0  0  0  0  0
   -0.8946    4.1740   -0.7753 C   0  0  0  0  0  0  0  0  0  0  0  0
   -1.2204    4.9281   -1.6833 O   0  0  0  0  0  0  0  0  0  0  0  0
   -2.6237    3.1043    0.7448 C   0  0  0  0  0  0  0  0  0  0  0  0
   -0.9924    1.0451   -1.2329 H   0  0  0  0  0  0  0  0  0  0  0  0
   -2.4209    2.8098   -1.3507 H   0  0  0  0  0  0  0  0  0  0  0  0
   -2.0218    3.3302    1.6297 H   0  0  0  0  0  0  0  0  0  0  0  0
   -3.3165    3.9363    0.5854 H   0  0  0  0  0  0  0  0  0  0  0  0
   -3.2074    2.2000    0.9412 H   0  0  0  0  0  0  0  0  0  0  0  0
    0.2297    4.4612   -0.0280 N   0  0  0  0  0  0  0  0  0  0  0  0
    1.0953    5.6087   -0.2574 C   0  0  0  0  0  0  0  0  0  0  0  0
    0.4664    3.7906    0.7090 H   0  0  0  0  0  0  0  0  0  0  0  0
    0.5443    6.5409   -0.0966 H   0  0  0  0  0  0  0  0  0  0  0  0
    1.9442    5.5835    0.4329 H   0  0  0  0  0  0  0  0  0  0  0  0
    1.4826    5.5985   -1.2815 H   0  0  0  0  0  0  0  0  0  0  0  0
  1  2  2  0  0  0  0
  1  3  1  0  0  0  0
  1  7  1  0  0  0  0
  3  4  1  0  0  0  0
  3  5  1  0  0  0  0
  3  6  1  0  0  0  0
  7  8  1  0  0  0  0
  7 12  1  0  0  0  0
  8  9  1  0  0  0  0
  8 11  1  0  0  0  0
  8 13  1  0  0  0  0
  9 10  2  0  0  0  0
  9 17  1  0  0  0  0
 11 14  1  0  0  0  0
 11 15  1  0  0  0  0
 11 16  1  0  0  0  0
 17 18  1  0  0  0  0
 17 25  1  0  0  0  0
 18 19  1  0  0  0  0
 18 21  1  0  0  0  0
 18 26  1  0  0  0  0
 19 20  2  0  0  0  0
 19 36  1  0  0  0  0
 21 22  1  0  0  0  0
 21 27  1  0  0  0  0
 21 28  1  0  0  0  0
 22 23  1  0  0  0  0
 22 24  1  0  0  0  0
 22 29  1  0  0  0  0
 23 30  1  0  0  0  0
 23 31  1  0  0  0  0
 23 32  1  0  0  0  0
 24 33  1  0  0  0  0
 24 34  1  0  0  0  0
 24 35  1  0  0  0  0
 36 37  1  0  0  0  0
 36 41  1  0  0  0  0
 37 38  1  0  0  0  0
 37 40  1  0  0  0  0
 37 42  1  0  0  0  0
 38 39  2  0  0  0  0
 38 46  1  0  0  0  0
 40 43  1  0  0  0  0
 40 44  1  0  0  0  0
 40 45  1  0  0  0  0
 46 47  1  0  0  0  0
 46 48  1  0  0  0  0
 47 49  1  0  0  0  0
 47 50  1  0  0  0  0
 47 51  1  0  0  0  0
M  END
$$$$

  -OEChem-05262216553D

 51 50  0     1  0  0  0  0  0999 V2000
    1.2192   -2.5047   -3.2657 C   0  0  0  0  0  0  0  0  0  0  0  0
    0.2038   -1.8939   -2.9658 O   0  0  0  0  0  0  0  0  0  0  0  0
    1.1257   -3.9649   -3.6656 C   0  0  0  0  0  0  0  0  0  0  0  0
    1.7172   -4.5790   -2.9817 H   0  0  0  0  0  0  0  0  0  0  0  0
    0.0854   -4.3008   -3.6297 H   0  0  0  0  0  0  0  0  0  0  0  0
    1.5023   -4.0982   -4.6828 H   0  0  0  0  0  0  0  0  0  0  0  0
    2.4613   -1.9010   -3.1936 N   0  0  0  0  0  0  0  0  0  0  0  0
    2.7520   -0.4859   -2.8761 C   0  0  2  0  0  0  0  0  0  0  0  0
    2.4085   -0.0504   -1.4323 C   0  0  0  0  0  0  0  0  0  0  0  0
    3.2727    0.4978   -0.7666 O   0  0  0  0  0  0  0  0  0  0  0  0
    2.0930    0.4502   -3.8992 C   0  0  0  0  0  0  0  0  0  0  0  0
    3.2532   -2.4938   -3.4290 H   0  0  0  0  0  0  0  0  0  0  0  0
    3.8347   -0.3535   -2.9772 H   0  0  0  0  0  0  0  0  0  0  0  0
    1.0025    0.4233   -3.8206 H   0  0  0  0  0  0  0  0  0  0  0  0
    2.4209    1.4806   -3.7288 H   0  0  0  0  0  0  0  0  0  0  0  0
    2.3760    0.1621   -4.9160 H   0  0  0  0  0  0  0  0  0  0  0  0
    1.1190   -0.1895   -0.9507 N   0  0  0  0  0  0  0  0  0  0  0  0
    0.6364   -0.0592    0.4416 C   0  0  2  0  0  0  0  0  0  0  0  0
   -0.0997    1.2875    0.6116 C   0  0  0  0  0  0  0  0  0  0  0  0
    0.2585    2.1143    1.4409 O   0  0  0  0  0  0  0  0  0  0  0  0
    1.5890   -0.4135    1.6181 C   0  0  0  0  0  0  0  0  0  0  0  0
    2.0148   -1.8996    1.7607 C   0  0  0  0  0  0  0  0  0  0  0  0
    3.0599   -1.9979    2.8795 C   0  0  0  0  0  0  0  0  0  0  0  0
    2.5925   -2.5722    0.5102 C   0  0  0  0  0  0  0  0  0  0  0  0
    0.5135   -0.6964   -1.6018 H   0  0  0  0  0  0  0  0  0  0  0  0
   -0.1588   -0.8047    0.5341 H   0  0  0  0  0  0  0  0  0  0  0  0
    1.0850   -0.1371    2.5508 H   0  0  0  0  0  0  0  0  0  0  0  0
    2.4808    0.2161    1.5549 H   0  0  0  0  0  0  0  0  0  0  0  0
    1.1297   -2.4711    2.0600 H   0  0  0  0  0  0  0  0  0  0  0  0
    3.9700   -1.4541    2.6057 H   0  0  0  0  0  0  0  0  0  0  0  0
    3.3234   -3.0432    3.0683 H   0  0  0  0  0  0  0  0  0  0  0  0
    2.6677   -1.5721    3.8084 H   0  0  0  0  0  0  0  0  0  0  0  0
    3.4709   -2.0301    0.1493 H   0  0  0  0  0  0  0  0  0  0  0  0
    2.8985   -3.5969    0.7420 H   0  0  0  0  0  0  0  0  0  0  0  0
    1.8437   -2.6247   -0.2833 H   0  0  0  0  0  0  0  0  0  0  0  0
   -1.2157    1.5397   -0.1718 N   0  0  0  0  0  0  0  0  0  0  0  0
   -2.0161    2.7820   -0.2074 C   0  0  2  0  0  0  0  0  0  0  0  0
   -1.2615    4.0158   -0.7556 C   0  0  0  0  0  0  0  0  0  0  0  0
   -1.7837    4.6987   -1.6274 O   0  0  0  0  0  0  0  0  0  0  0  0
   -2.6455    3.0875    1.1591 C   0  0  0  0  0  0  0  0  0  0  0  0
   -1.3864    0.8602   -0.9078 H   0  0  0  0  0  0  0  0  0  0  0  0
   -2.8439    2.6026   -0.9010 H   0  0  0  0  0  0  0  0  0  0  0  0
   -1.8903    3.4022    1.8850 H   0  0  0  0  0  0  0  0  0  0  0  0
   -3.3769    3.8956    1.0607 H   0  0  0  0  0  0  0  0  0  0  0  0
   -3.1565    2.2023    1.5491 H   0  0  0  0  0  0  0  0  0  0  0  0
   -0.0036    4.3524   -0.2971 N   0  0  0  0  0  0  0  0  0  0  0  0
    0.7729    5.4821   -0.7869 C   0  0  0  0  0  0  0  0  0  0  0  0
    0.3851    3.7544    0.4384 H   0  0  0  0  0  0  0  0  0  0  0  0
    0.2539    6.4228   -0.5772 H   0  0  0  0  0  0  0  0  0  0  0  0
    1.7501    5.5076   -0.2952 H   0  0  0  0  0  0  0  0  0  0  0  0
    0.9313    5.3987   -1.8671 H   0  0  0  0  0  0  0  0  0  0  0  0
  1  2  2  0  0  0  0
  1  3  1  0  0  0  0
  1  7  1  0  0  0  0
  3  4  1  0  0  0  0
  3  5  1  0  0  0  0
  3  6  1  0  0  0  0
  7  8  1  0  0  0  0
  7 12  1  0  0  0  0
  8  9  1  0  0  0  0
  8 11  1  0  0  0  0
  8 13  1  0  0  0  0
  9 10  2  0  0  0  0
  9 17  1  0  0  0  0
 11 14  1  0  0  0  0
 11 15  1  0  0  0  0
 11 16  1  0  0  0  0
 17 18  1  0  0  0  0
 17 25  1  0  0  0  0
 18 19  1  0  0  0  0
 18 21  1  0  0  0  0
 18 26  1  0  0  0  0
 19 20  2  0  0  0  0
 19 36  1  0  0  0  0
 21 22  1  0  0  0  0
 21 27  1  0  0  0  0
 21 28  1  0  0  0  0
 22 23  1  0  0  0  0
 22 24  1  0  0  0  0
 22 29  1  0  0  0  0
 23 30  1  0  0  0  0
 23 31  1  0  0  0  0
 23 32  1  0  0  0  0
 24 33  1  0  0  0  0
 24 34  1  0  0  0  0
 24 35  1  0  0  0  0
 36 37  1  0  0  0  0
 36 41  1  0  0  0  0
 37 38  1  0  0  0  0
 37 40  1  0  0  0  0
 37 42  1  0  0  0  0
 38 39  2  0  0  0  0
 38 46  1  0  0  0  0
 40 43  1  0  0  0  0
 40 44  1  0  0  0  0
 40 45  1  0  0  0  0
 46 47  1  0  0  0  0
 46 48  1  0  0  0  0
 47 49  1  0  0  0  0
 47 50  1  0  0  0  0
 47 51  1  0  0  0  0
M  END
$$$$

  -OEChem-05262216553D

 51 50  0     1  0  0  0  0  0999 V2000
    1.2052   -2.5013   -3.2202 C   0  0  0  0  0  0  0  0  0  0  0  0
    0.1926   -1.8851   -2.9225 O   0  0  0  0  0  0  0  0  0  0  0  0
    1.1072   -3.9712   -3.5821 C   0  0  0  0  0  0  0  0  0  0  0  0
    1.6636   -4.5722   -2.8586 H   0  0  0  0  0  0  0  0  0  0  0  0
    0.0618   -4.2932   -3.5764 H   0  0  0  0  0  0  0  0  0  0  0  0
    1.5200   -4.1398   -4.5798 H   0  0  0  0  0  0  0  0  0  0  0  0
    2.4476   -1.8954   -3.1769 N   0  0  0  0  0  0  0  0  0  0  0  0
    2.7426   -0.4781   -2.8734 C   0  0  2  0  0  0  0  0  0  0  0  0
    2.4233   -0.0392   -1.4254 C   0  0  0  0  0  0  0  0  0  0  0  0
    3.3082    0.4796   -0.7632 O   0  0  0  0  0  0  0  0  0  0  0  0
    2.0643    0.4538   -3.8877 C   0  0  0  0  0  0  0  0  0  0  0  0
    3.2377   -2.4939   -3.4028 H   0  0  0  0  0  0  0  0  0  0  0  0
    3.8231   -0.3453   -2.9945 H   0  0  0  0  0  0  0  0  0  0  0  0
    0.9759    0.4376   -3.7802 H   0  0  0  0  0  0  0  0  0  0  0  0
    2.4054    1.4829   -3.7355 H   0  0  0  0  0  0  0  0  0  0  0  0
    2.3176    0.1534   -4.9087 H   0  0  0  0  0  0  0  0  0  0  0  0
    1.1362   -0.1640   -0.9338 N   0  0  0  0  0  0  0  0  0  0  0  0
    0.6580   -0.0222    0.4572 C   0  0  2  0  0  0  0  0  0  0  0  0
   -0.0685    1.3291    0.6271 C   0  0  0  0  0  0  0  0  0  0  0  0
    0.4273    2.2425    1.2741 O   0  0  0  0  0  0  0  0  0  0  0  0
    1.6114   -0.3682    1.6340 C   0  0  0  0  0  0  0  0  0  0  0  0
    2.0355   -1.8539    1.7893 C   0  0  0  0  0  0  0  0  0  0  0  0
    3.0824   -1.9444    2.9066 C   0  0  0  0  0  0  0  0  0  0  0  0
    2.6061   -2.5427    0.5442 C   0  0  0  0  0  0  0  0  0  0  0  0
    0.5133   -0.6456   -1.5880 H   0  0  0  0  0  0  0  0  0  0  0  0
   -0.1362   -0.7673    0.5575 H   0  0  0  0  0  0  0  0  0  0  0  0
    1.1103   -0.0779    2.5637 H   0  0  0  0  0  0  0  0  0  0  0  0
    2.5050    0.2581    1.5615 H   0  0  0  0  0  0  0  0  0  0  0  0
    1.1504   -2.4198    2.0976 H   0  0  0  0  0  0  0  0  0  0  0  0
    3.9949   -1.4092    2.6240 H   0  0  0  0  0  0  0  0  0  0  0  0
    3.3402   -2.9888    3.1077 H   0  0  0  0  0  0  0  0  0  0  0  0
    2.6945   -1.5047    3.8308 H   0  0  0  0  0  0  0  0  0  0  0  0
    3.4885   -2.0117    0.1771 H   0  0  0  0  0  0  0  0  0  0  0  0
    2.9046   -3.5678    0.7845 H   0  0  0  0  0  0  0  0  0  0  0  0
    1.8561   -2.5964   -0.2480 H   0  0  0  0  0  0  0  0  0  0  0  0
   -1.3427    1.4746    0.0989 N   0  0  0  0  0  0  0  0  0  0  0  0
   -2.1999    2.6778    0.1557 C   0  0  2  0  0  0  0  0  0  0  0  0
   -1.6551    3.8984   -0.6227 C   0  0  0  0  0  0  0  0  0  0  0  0
   -2.3812    4.4675   -1.4276 O   0  0  0  0  0  0  0  0  0  0  0  0
   -2.5357    3.0575    1.6048 C   0  0  0  0  0  0  0  0  0  0  0  0
   -1.6517    0.7167   -0.5030 H   0  0  0  0  0  0  0  0  0  0  0  0
   -3.1464    2.4126   -0.3268 H   0  0  0  0  0  0  0  0  0  0  0  0
   -1.6552    3.4350    2.1324 H   0  0  0  0  0  0  0  0  0  0  0  0
   -3.3002    3.8406    1.6181 H   0  0  0  0  0  0  0  0  0  0  0  0
   -2.9209    2.1886    2.1465 H   0  0  0  0  0  0  0  0  0  0  0  0
   -0.3664    4.3561   -0.4357 N   0  0  0  0  0  0  0  0  0  0  0  0
    0.2139    5.4858   -1.1470 C   0  0  0  0  0  0  0  0  0  0  0  0
    0.2062    3.8345    0.2349 H   0  0  0  0  0  0  0  0  0  0  0  0
    1.2428    5.6520   -0.8134 H   0  0  0  0  0  0  0  0  0  0  0  0
    0.2260    5.2946   -2.2250 H   0  0  0  0  0  0  0  0  0  0  0  0
   -0.3640    6.3959   -0.9557 H   0  0  0  0  0  0  0  0  0  0  0  0
  1  2  2  0  0  0  0
  1  3  1  0  0  0  0
  1  7  1  0  0  0  0
  3  4  1  0  0  0  0
  3  5  1  0  0  0  0
  3  6  1  0  0  0  0
  7  8  1  0  0  0  0
  7 12  1  0  0  0  0
  8  9  1  0  0  0  0
  8 11  1  0  0  0  0
  8 13  1  0  0  0  0
  9 10  2  0  0  0  0
  9 17  1  0  0  0  0
 11 14  1  0  0  0  0
 11 15  1  0  0  0  0
 11 16  1  0  0  0  0
 17 18  1  0  0  0  0
 17 25  1  0  0  0  0
 18 19  1  0  0  0  0
 18 21  1  0  0  0  0
 18 26  1  0  0  0  0
 19 20  2  0  0  0  0
 19 36  1  0  0  0  0
 21 22  1  0  0  0  0
 21 27  1  0  0  0  0
 21 28  1  0  0  0  0
 22 23  1  0  0  0  0
 22 24  1  0  0  0  0
 22 29  1  0  0  0  0
 23 30  1  0  0  0  0
 23 31  1  0  0  0  0
 23 32  1  0  0  0  0
 24 33  1  0  0  0  0
 24 34  1  0  0  0  0
 24 35  1  0  0  0  0
 36 37  1  0  0  0  0
 36 41  1  0  0  0  0
 37 38  1  0  0  0  0
 37 40  1  0  0  0  0
 37 42  1  0  0  0  0
 38 39  2  0  0  0  0
 38 46  1  0  0  0  0
 40 43  1  0  0  0  0
 40 44  1  0  0  0  0
 40 45  1  0  0  0  0
 46 47  1  0  0  0  0
 46 48  1  0  0  0  0
 47 49  1  0  0  0  0
 47 50  1  0  0  0  0
 47 51  1  0  0  0  0
M  END
$$$$

  -OEChem-05262216553D

 51 50  0     1  0  0  0  0  0999 V2000
    1.1980   -2.4287   -3.2554 C   0  0  0  0  0  0  0  0  0  0  0  0
    0.1893   -1.8175   -2.9355 O   0  0  0  0  0  0  0  0  0  0  0  0
    1.0913   -3.8855   -3.6653 C   0  0  0  0  0  0  0  0  0  0  0  0
    1.6953   -4.5074   -2.9996 H   0  0  0  0  0  0  0  0  0  0  0  0
    0.0510   -4.2193   -3.6093 H   0  0  0  0  0  0  0  0  0  0  0  0
    1.4451   -4.0119   -4.6917 H   0  0  0  0  0  0  0  0  0  0  0  0
    2.4432   -1.8292   -3.2031 N   0  0  0  0  0  0  0  0  0  0  0  0
    2.7444   -0.4216   -2.8641 C   0  0  2  0  0  0  0  0  0  0  0  0
    2.4331   -0.0210   -1.4029 C   0  0  0  0  0  0  0  0  0  0  0  0
    3.3353    0.4370   -0.7190 O   0  0  0  0  0  0  0  0  0  0  0  0
    2.0669    0.5377   -3.8536 C   0  0  0  0  0  0  0  0  0  0  0  0
    3.2297   -2.4236   -3.4507 H   0  0  0  0  0  0  0  0  0  0  0  0
    3.8247   -0.2894   -2.9855 H   0  0  0  0  0  0  0  0  0  0  0  0
    0.9779    0.5129   -3.7535 H   0  0  0  0  0  0  0  0  0  0  0  0
    2.4021    1.5634   -3.6686 H   0  0  0  0  0  0  0  0  0  0  0  0
    2.3276    0.2698   -4.8819 H   0  0  0  0  0  0  0  0  0  0  0  0
    1.1418   -0.1305   -0.9180 N   0  0  0  0  0  0  0  0  0  0  0  0
    0.6588   -0.0135    0.4738 C   0  0  2  0  0  0  0  0  0  0  0  0
   -0.0442    1.3431    0.6925 C   0  0  0  0  0  0  0  0  0  0  0  0
    0.5693    2.3096    1.1252 O   0  0  0  0  0  0  0  0  0  0  0  0
    1.5930   -0.4033    1.6506 C   0  0  0  0  0  0  0  0  0  0  0  0
    1.9867   -1.9006    1.7747 C   0  0  0  0  0  0  0  0  0  0  0  0
    3.0205   -2.0363    2.8997 C   0  0  0  0  0  0  0  0  0  0  0  0
    2.5580   -2.5718    0.5197 C   0  0  0  0  0  0  0  0  0  0  0  0
    0.5057   -0.5667   -1.5913 H   0  0  0  0  0  0  0  0  0  0  0  0
   -0.1445   -0.7517    0.5461 H   0  0  0  0  0  0  0  0  0  0  0  0
    1.0900   -0.1220    2.5821 H   0  0  0  0  0  0  0  0  0  0  0  0
    2.4996    0.2065    1.5988 H   0  0  0  0  0  0  0  0  0  0  0  0
    1.0874   -2.4565    2.0602 H   0  0  0  0  0  0  0  0  0  0  0  0
    3.9448   -1.5098    2.6397 H   0  0  0  0  0  0  0  0  0  0  0  0
    3.2586   -3.0896    3.0775 H   0  0  0  0  0  0  0  0  0  0  0  0
    2.6305   -1.6129    3.8306 H   0  0  0  0  0  0  0  0  0  0  0  0
    3.4583   -2.0536    0.1782 H   0  0  0  0  0  0  0  0  0  0  0  0
    2.8280   -3.6096    0.7381 H   0  0  0  0  0  0  0  0  0  0  0  0
    1.8187   -2.5876   -0.2841 H   0  0  0  0  0  0  0  0  0  0  0  0
   -1.4084    1.4455    0.4622 N   0  0  0  0  0  0  0  0  0  0  0  0
   -2.2595    2.6393    0.6552 C   0  0  2  0  0  0  0  0  0  0  0  0
   -1.9531    3.8221   -0.2937 C   0  0  0  0  0  0  0  0  0  0  0  0
   -2.8772    4.3784   -0.8728 O   0  0  0  0  0  0  0  0  0  0  0  0
   -2.2493    3.0984    2.1203 C   0  0  0  0  0  0  0  0  0  0  0  0
   -1.8435    0.6326    0.0361 H   0  0  0  0  0  0  0  0  0  0  0  0
   -3.2857    2.3328    0.4283 H   0  0  0  0  0  0  0  0  0  0  0  0
   -1.2841    3.5348    2.3935 H   0  0  0  0  0  0  0  0  0  0  0  0
   -3.0218    3.8574    2.2797 H   0  0  0  0  0  0  0  0  0  0  0  0
   -2.4514    2.2538    2.7858 H   0  0  0  0  0  0  0  0  0  0  0  0
   -0.6629    4.2670   -0.5011 N   0  0  0  0  0  0  0  0  0  0  0  0
   -0.3119    5.4021   -1.3422 C   0  0  0  0  0  0  0  0  0  0  0  0
    0.0682    3.7989    0.0432 H   0  0  0  0  0  0  0  0  0  0  0  0
   -0.7423    6.3244   -0.9387 H   0  0  0  0  0  0  0  0  0  0  0  0
    0.7757    5.5158   -1.3855 H   0  0  0  0  0  0  0  0  0  0  0  0
   -0.6841    5.2545   -2.3614 H   0  0  0  0  0  0  0  0  0  0  0  0
  1  2  2  0  0  0  0
  1  3  1  0  0  0  0
  1  7  1  0  0  0  0
  3  4  1  0  0  0  0
  3  5  1  0  0  0  0
  3  6  1  0  0  0  0
  7  8  1  0  0  0  0
  7 12  1  0  0  0  0
  8  9  1  0  0  0  0
  8 11  1  0  0  0  0
  8 13  1  0  0  0  0
  9 10  2  0  0  0  0
  9 17  1  0  0  0  0
 11 14  1  0  0  0  0
 11 15  1  0  0  0  0
 11 16  1  0  0  0  0
 17 18  1  0  0  0  0
 17 25  1  0  0  0  0
 18 19  1  0  0  0  0
 18 21  1  0  0  0  0
 18 26  1  0  0  0  0
 19 20  2  0  0  0  0
 19 36  1  0  0  0  0
 21 22  1  0  0  0  0
 21 27  1  0  0  0  0
 21 28  1  0  0  0  0
 22 23  1  0  0  0  0
 22 24  1  0  0  0  0
 22 29  1  0  0  0  0
 23 30  1  0  0  0  0
 23 31  1  0  0  0  0
 23 32  1  0  0  0  0
 24 33  1  0  0  0  0
 24 34  1  0  0  0  0
 24 35  1  0  0  0  0
 36 37  1  0  0  0  0
 36 41  1  0  0  0  0
 37 38  1  0  0  0  0
 37 40  1  0  0  0  0
 37 42  1  0  0  0  0
 38 39  2  0  0  0  0
 38 46  1  0  0  0  0
 40 43  1  0  0  0  0
 40 44  1  0  0  0  0
 40 45  1  0  0  0  0
 46 47  1  0  0  0  0
 46 48  1  0  0  0  0
 47 49  1  0  0  0  0
 47 50  1  0  0  0  0
 47 51  1  0  0  0  0
M  END
$$$$

  -OEChem-05262216553D

 51 50  0     1  0  0  0  0  0999 V2000
    1.1924   -2.2832   -3.3117 C   0  0  0  0  0  0  0  0  0  0  0  0
    0.1995   -1.6546   -2.9776 O   0  0  0  0  0  0  0  0  0  0  0  0
    1.0427   -3.7112   -3.8010 C   0  0  0  0  0  0  0  0  0  0  0  0
    1.5359   -4.3980   -3.1085 H   0  0  0  0  0  0  0  0  0  0  0  0
   -0.0158   -3.9789   -3.8680 H   0  0  0  0  0  0  0  0  0  0  0  0
    1.4934   -3.8162   -4.7910 H   0  0  0  0  0  0  0  0  0  0  0  0
    2.4560   -1.7310   -3.2076 N   0  0  0  0  0  0  0  0  0  0  0  0
    2.7969   -0.3528   -2.7934 C   0  0  2  0  0  0  0  0  0  0  0  0
    2.4808   -0.0196   -1.3175 C   0  0  0  0  0  0  0  0  0  0  0  0
    3.3908    0.3771   -0.6061 O   0  0  0  0  0  0  0  0  0  0  0  0
    2.1614    0.6795   -3.7357 C   0  0  0  0  0  0  0  0  0  0  0  0
    3.2269   -2.3396   -3.4692 H   0  0  0  0  0  0  0  0  0  0  0  0
    3.8822   -0.2489   -2.8968 H   0  0  0  0  0  0  0  0  0  0  0  0
    1.0731    0.7035   -3.6274 H   0  0  0  0  0  0  0  0  0  0  0  0
    2.5473    1.6789   -3.5098 H   0  0  0  0  0  0  0  0  0  0  0  0
    2.4025    0.4434   -4.7763 H   0  0  0  0  0  0  0  0  0  0  0  0
    1.1832   -0.1283   -0.8483 N   0  0  0  0  0  0  0  0  0  0  0  0
    0.6827   -0.0248    0.5376 C   0  0  2  0  0  0  0  0  0  0  0  0
   -0.0201    1.3284    0.7753 C   0  0  0  0  0  0  0  0  0  0  0  0
    0.6281    2.3547    0.9280 O   0  0  0  0  0  0  0  0  0  0  0  0
    1.5973   -0.4317    1.7221 C   0  0  0  0  0  0  0  0  0  0  0  0
    1.9808   -1.9327    1.8341 C   0  0  0  0  0  0  0  0  0  0  0  0
    2.9982   -2.0875    2.9713 C   0  0  0  0  0  0  0  0  0  0  0  0
    2.5590   -2.5991    0.5794 C   0  0  0  0  0  0  0  0  0  0  0  0
    0.5361   -0.4996   -1.5496 H   0  0  0  0  0  0  0  0  0  0  0  0
   -0.1212   -0.7641    0.5837 H   0  0  0  0  0  0  0  0  0  0  0  0
    1.0837   -0.1573    2.6494 H   0  0  0  0  0  0  0  0  0  0  0  0
    2.5078    0.1739    1.6892 H   0  0  0  0  0  0  0  0  0  0  0  0
    1.0742   -2.4843    2.1039 H   0  0  0  0  0  0  0  0  0  0  0  0
    3.9307   -1.5685    2.7259 H   0  0  0  0  0  0  0  0  0  0  0  0
    3.2235   -3.1445    3.1435 H   0  0  0  0  0  0  0  0  0  0  0  0
    2.6014   -1.6675    3.9010 H   0  0  0  0  0  0  0  0  0  0  0  0
    3.4723   -2.0924    0.2563 H   0  0  0  0  0  0  0  0  0  0  0  0
    2.8094   -3.6432    0.7906 H   0  0  0  0  0  0  0  0  0  0  0  0
    1.8313   -2.5951   -0.2355 H   0  0  0  0  0  0  0  0  0  0  0  0
   -1.4050    1.3754    0.8438 N   0  0  0  0  0  0  0  0  0  0  0  0
   -2.2469    2.5626    1.1034 C   0  0  2  0  0  0  0  0  0  0  0  0
   -2.2245    3.6358   -0.0098 C   0  0  0  0  0  0  0  0  0  0  0  0
   -3.2842    4.0525   -0.4599 O   0  0  0  0  0  0  0  0  0  0  0  0
   -1.9246    3.1858    2.4685 C   0  0  0  0  0  0  0  0  0  0  0  0
   -1.8869    0.5058    0.6371 H   0  0  0  0  0  0  0  0  0  0  0  0
   -3.2816    2.2083    1.1560 H   0  0  0  0  0  0  0  0  0  0  0  0
   -0.9404    3.6632    2.4671 H   0  0  0  0  0  0  0  0  0  0  0  0
   -2.6701    3.9478    2.7159 H   0  0  0  0  0  0  0  0  0  0  0  0
   -1.9395    2.4191    3.2487 H   0  0  0  0  0  0  0  0  0  0  0  0
   -1.0375    4.1374   -0.5041 N   0  0  0  0  0  0  0  0  0  0  0  0
   -0.9477    5.1597   -1.5368 C   0  0  0  0  0  0  0  0  0  0  0  0
   -0.1796    3.7546   -0.0945 H   0  0  0  0  0  0  0  0  0  0  0  0
    0.1008    5.3887   -1.7493 H   0  0  0  0  0  0  0  0  0  0  0  0
   -1.4210    4.8137   -2.4613 H   0  0  0  0  0  0  0  0  0  0  0  0
   -1.4437    6.0792   -1.2095 H   0  0  0  0  0  0  0  0  0  0  0  0
  1  2  2  0  0  0  0
  1  3  1  0  0  0  0
  1  7  1  0  0  0  0
  3  4  1  0  0  0  0
  3  5  1  0  0  0  0
  3  6  1  0  0  0  0
  7  8  1  0  0  0  0
  7 12  1  0  0  0  0
  8  9  1  0  0  0  0
  8 11  1  0  0  0  0
  8 13  1  0  0  0  0
  9 10  2  0  0  0  0
  9 17  1  0  0  0  0
 11 14  1  0  0  0  0
 11 15  1  0  0  0  0
 11 16  1  0  0  0  0
 17 18  1  0  0  0  0
 17 25  1  0  0  0  0
 18 19  1  0  0  0  0
 18 21  1  0  0  0  0
 18 26  1  0  0  0  0
 19 20  2  0  0  0  0
 19 36  1  0  0  0  0
 21 22  1  0  0  0  0
 21 27  1  0  0  0  0
 21 28  1  0  0  0  0
 22 23  1  0  0  0  0
 22 24  1  0  0  0  0
 22 29  1  0  0  0  0
 23 30  1  0  0  0  0
 23 31  1  0  0  0  0
 23 32  1  0  0  0  0
 24 33  1  0  0  0  0
 24 34  1  0  0  0  0
 24 35  1  0  0  0  0
 36 37  1  0  0  0  0
 36 41  1  0  0  0  0
 37 38  1  0  0  0  0
 37 40  1  0  0  0  0
 37 42  1  0  0  0  0
 38 39  2  0  0  0  0
 38 46  1  0  0  0  0
 40 43  1  0  0  0  0
 40 44  1  0  0  0  0
 40 45  1  0  0  0  0
 46 47  1  0  0  0  0
 46 48  1  0  0  0  0
 47 49  1  0  0  0  0
 47 50  1  0  0  0  0
 47 51  1  0  0  0  0
M  END
$$$$

  -OEChem-05262216553D

 51 50  0     1  0  0  0  0  0999 V2000
    1.1514   -2.2829   -3.2893 C   0  0  0  0  0  0  0  0  0  0  0  0
    0.1615   -1.6660   -2.9260 O   0  0  0  0  0  0  0  0  0  0  0  0
    1.0088   -3.7218   -3.7478 C   0  0  0  0  0  0  0  0  0  0  0  0
    1.5792   -4.3821   -3.0896 H   0  0  0  0  0  0  0  0  0  0  0  0
   -0.0422   -4.0240   -3.7239 H   0  0  0  0  0  0  0  0  0  0  0  0
    1.3804   -3.8263   -4.7701 H   0  0  0  0  0  0  0  0  0  0  0  0
    2.4084   -1.7086   -3.2438 N   0  0  0  0  0  0  0  0  0  0  0  0
    2.7440   -0.3297   -2.8299 C   0  0  2  0  0  0  0  0  0  0  0  0
    2.4700   -0.0178   -1.3402 C   0  0  0  0  0  0  0  0  0  0  0  0
    3.4094    0.3197   -0.6358 O   0  0  0  0  0  0  0  0  0  0  0  0
    2.0649    0.7006   -3.7442 C   0  0  0  0  0  0  0  0  0  0  0  0
    3.1792   -2.3089   -3.5237 H   0  0  0  0  0  0  0  0  0  0  0  0
    3.8238   -0.2091   -2.9664 H   0  0  0  0  0  0  0  0  0  0  0  0
    0.9784    0.6948   -3.6175 H   0  0  0  0  0  0  0  0  0  0  0  0
    2.4288    1.7059   -3.5085 H   0  0  0  0  0  0  0  0  0  0  0  0
    2.2938    0.4877   -4.7926 H   0  0  0  0  0  0  0  0  0  0  0  0
    1.1786   -0.0910   -0.8475 N   0  0  0  0  0  0  0  0  0  0  0  0
    0.7096   -0.0012    0.5507 C   0  0  2  0  0  0  0  0  0  0  0  0
    0.0581    1.3669    0.8463 C   0  0  0  0  0  0  0  0  0  0  0  0
    0.6936    2.4055    0.7242 O   0  0  0  0  0  0  0  0  0  0  0  0
    1.6301   -0.4635    1.7100 C   0  0  0  0  0  0  0  0  0  0  0  0
    1.9655   -1.9781    1.7869 C   0  0  0  0  0  0  0  0  0  0  0  0
    2.9964   -2.1891    2.9028 C   0  0  0  0  0  0  0  0  0  0  0  0
    2.4995   -2.6376    0.5097 C   0  0  0  0  0  0  0  0  0  0  0  0
    0.5074   -0.4345   -1.5404 H   0  0  0  0  0  0  0  0  0  0  0  0
   -0.1180   -0.7144    0.5889 H   0  0  0  0  0  0  0  0  0  0  0  0
    1.1424   -0.1916    2.6520 H   0  0  0  0  0  0  0  0  0  0  0  0
    2.5596    0.1121    1.6715 H   0  0  0  0  0  0  0  0  0  0  0  0
    1.0458   -2.5050    2.0614 H   0  0  0  0  0  0  0  0  0  0  0  0
    3.9424   -1.6983    2.6508 H   0  0  0  0  0  0  0  0  0  0  0  0
    3.1878   -3.2563    3.0527 H   0  0  0  0  0  0  0  0  0  0  0  0
    2.6298   -1.7727    3.8463 H   0  0  0  0  0  0  0  0  0  0  0  0
    3.4256   -2.1581    0.1820 H   0  0  0  0  0  0  0  0  0  0  0  0
    2.7147   -3.6943    0.6949 H   0  0  0  0  0  0  0  0  0  0  0  0
    1.7600   -2.5893   -0.2928 H   0  0  0  0  0  0  0  0  0  0  0  0
   -1.2659    1.4179    1.2581 N   0  0  0  0  0  0  0  0  0  0  0  0
   -2.0421    2.6217    1.6246 C   0  0  2  0  0  0  0  0  0  0  0  0
   -2.3183    3.6031    0.4612 C   0  0  0  0  0  0  0  0  0  0  0  0
   -3.4700    3.9488    0.2302 O   0  0  0  0  0  0  0  0  0  0  0  0
   -1.4033    3.3507    2.8150 C   0  0  0  0  0  0  0  0  0  0  0  0
   -1.7557    0.5287    1.2831 H   0  0  0  0  0  0  0  0  0  0  0  0
   -3.0243    2.2727    1.9596 H   0  0  0  0  0  0  0  0  0  0  0  0
   -0.4556    3.8187    2.5332 H   0  0  0  0  0  0  0  0  0  0  0  0
   -2.0753    4.1351    3.1772 H   0  0  0  0  0  0  0  0  0  0  0  0
   -1.2156    2.6501    3.6340 H   0  0  0  0  0  0  0  0  0  0  0  0
   -1.2946    4.1042   -0.3171 N   0  0  0  0  0  0  0  0  0  0  0  0
   -1.4844    5.0228   -1.4300 C   0  0  0  0  0  0  0  0  0  0  0  0
   -0.3544    3.7572   -0.1033 H   0  0  0  0  0  0  0  0  0  0  0  0
   -1.9912    5.9329   -1.0924 H   0  0  0  0  0  0  0  0  0  0  0  0
   -0.5160    5.3040   -1.8551 H   0  0  0  0  0  0  0  0  0  0  0  0
   -2.0857    4.5535   -2.2155 H   0  0  0  0  0  0  0  0  0  0  0  0
  1  2  2  0  0  0  0
  1  3  1  0  0  0  0
  1  7  1  0  0  0  0
  3  4  1  0  0  0  0
  3  5  1  0  0  0  0
  3  6  1  0  0  0  0
  7  8  1  0  0  0  0
  7 12  1  0  0  0  0
  8  9  1  0  0  0  0
  8 11  1  0  0  0  0
  8 13  1  0  0  0  0
  9 10  2  0  0  0  0
  9 17  1  0  0  0  0
 11 14  1  0  0  0  0
 11 15  1  0  0  0  0
 11 16  1  0  0  0  0
 17 18  1  0  0  0  0
 17 25  1  0  0  0  0
 18 19  1  0  0  0  0
 18 21  1  0  0  0  0
 18 26  1  0  0  0  0
 19 20  2  0  0  0  0
 19 36  1  0  0  0  0
 21 22  1  0  0  0  0
 21 27  1  0  0  0  0
 21 28  1  0  0  0  0
 22 23  1  0  0  0  0
 22 24  1  0  0  0  0
 22 29  1  0  0  0  0
 23 30  1  0  0  0  0
 23 31  1  0  0  0  0
 23 32  1  0  0  0  0
 24 33  1  0  0  0  0
 24 34  1  0  0  0  0
 24 35  1  0  0  0  0
 36 37  1  0  0  0  0
 36 41  1  0  0  0  0
 37 38  1  0  0  0  0
 37 40  1  0  0  0  0
 37 42  1  0  0  0  0
 38 39  2  0  0  0  0
 38 46  1  0  0  0  0
 40 43  1  0  0  0  0
 40 44  1  0  0  0  0
 40 45  1  0  0  0  0
 46 47  1  0  0  0  0
 46 48  1  0  0  0  0
 47 49  1  0  0  0  0
 47 50  1  0  0  0  0
 47 51  1  0  0  0  0
M  END
$$$$

  -OEChem-05262216553D

 51 50  0     1  0  0  0  0  0999 V2000
    1.0918   -2.1593   -3.3228 C   0  0  0  0  0  0  0  0  0  0  0  0
    0.1354   -1.5007   -2.9433 O   0  0  0  0  0  0  0  0  0  0  0  0
    0.8727   -3.5691   -3.8387 C   0  0  0  0  0  0  0  0  0  0  0  0
    1.4224   -4.2831   -3.2203 H   0  0  0  0  0  0  0  0  0  0  0  0
   -0.1910   -3.8219   -3.8070 H   0  0  0  0  0  0  0  0  0  0  0  0
    1.2213   -3.6476   -4.8715 H   0  0  0  0  0  0  0  0  0  0  0  0
    2.3789   -1.6597   -3.2485 N   0  0  0  0  0  0  0  0  0  0  0  0
    2.7880   -0.3163   -2.7868 C   0  0  2  0  0  0  0  0  0  0  0  0
    2.5310   -0.0447   -1.2868 C   0  0  0  0  0  0  0  0  0  0  0  0
    3.4873    0.2202   -0.5733 O   0  0  0  0  0  0  0  0  0  0  0  0
    2.1656    0.7819   -3.6618 C   0  0  0  0  0  0  0  0  0  0  0  0
    3.1171   -2.2933   -3.5425 H   0  0  0  0  0  0  0  0  0  0  0  0
    3.8728   -0.2493   -2.9214 H   0  0  0  0  0  0  0  0  0  0  0  0
    1.0813    0.8342   -3.5278 H   0  0  0  0  0  0  0  0  0  0  0  0
    2.5879    1.7559   -3.3946 H   0  0  0  0  0  0  0  0  0  0  0  0
    2.3764    0.5921   -4.7185 H   0  0  0  0  0  0  0  0  0  0  0  0
    1.2389   -0.0731   -0.7921 N   0  0  0  0  0  0  0  0  0  0  0  0
    0.7784    0.0154    0.6089 C   0  0  2  0  0  0  0  0  0  0  0  0
    0.1807    1.4011    0.9405 C   0  0  0  0  0  0  0  0  0  0  0  0
    0.7026    2.4299    0.5303 O   0  0  0  0  0  0  0  0  0  0  0  0
    1.6770   -0.5126    1.7573 C   0  0  0  0  0  0  0  0  0  0  0  0
    1.9351   -2.0434    1.8050 C   0  0  0  0  0  0  0  0  0  0  0  0
    2.9565   -2.3263    2.9139 C   0  0  0  0  0  0  0  0  0  0  0  0
    2.4338   -2.7054    0.5143 C   0  0  0  0  0  0  0  0  0  0  0  0
    0.5442   -0.3408   -1.4949 H   0  0  0  0  0  0  0  0  0  0  0  0
   -0.0823   -0.6585    0.6308 H   0  0  0  0  0  0  0  0  0  0  0  0
    1.2061   -0.2362    2.7064 H   0  0  0  0  0  0  0  0  0  0  0  0
    2.6339    0.0163    1.7276 H   0  0  0  0  0  0  0  0  0  0  0  0
    0.9906   -2.5289    2.0721 H   0  0  0  0  0  0  0  0  0  0  0  0
    3.9240   -1.8748    2.6703 H   0  0  0  0  0  0  0  0  0  0  0  0
    3.0975   -3.4043    3.0397 H   0  0  0  0  0  0  0  0  0  0  0  0
    2.6114   -1.9143    3.8675 H   0  0  0  0  0  0  0  0  0  0  0  0
    3.3824   -2.2673    0.1926 H   0  0  0  0  0  0  0  0  0  0  0  0
    2.5956   -3.7750    0.6798 H   0  0  0  0  0  0  0  0  0  0  0  0
    1.6968   -2.6050   -0.2858 H   0  0  0  0  0  0  0  0  0  0  0  0
   -1.0087    1.4753    1.6516 N   0  0  0  0  0  0  0  0  0  0  0  0
   -1.7294    2.6986    2.0639 C   0  0  2  0  0  0  0  0  0  0  0  0
   -2.3414    3.5168    0.9027 C   0  0  0  0  0  0  0  0  0  0  0  0
   -3.5339    3.7929    0.9272 O   0  0  0  0  0  0  0  0  0  0  0  0
   -0.8506    3.5860    2.9568 C   0  0  0  0  0  0  0  0  0  0  0  0
   -1.4258    0.5863    1.9099 H   0  0  0  0  0  0  0  0  0  0  0  0
   -2.5752    2.3736    2.6785 H   0  0  0  0  0  0  0  0  0  0  0  0
   -0.0321    4.0367    2.3881 H   0  0  0  0  0  0  0  0  0  0  0  0
   -1.4506    4.3941    3.3868 H   0  0  0  0  0  0  0  0  0  0  0  0
   -0.4237    2.9984    3.7751 H   0  0  0  0  0  0  0  0  0  0  0  0
   -1.5722    3.9382   -0.1627 N   0  0  0  0  0  0  0  0  0  0  0  0
   -2.0886    4.6749   -1.3069 C   0  0  0  0  0  0  0  0  0  0  0  0
   -0.5915    3.6413   -0.1540 H   0  0  0  0  0  0  0  0  0  0  0  0
   -2.5486    5.6140   -0.9823 H   0  0  0  0  0  0  0  0  0  0  0  0
   -1.2755    4.9103   -2.0003 H   0  0  0  0  0  0  0  0  0  0  0  0
   -2.8374    4.0792   -1.8390 H   0  0  0  0  0  0  0  0  0  0  0  0
  1  2  2  0  0  0  0
  1  3  1  0  0  0  0
  1  7  1  0  0  0  0
  3  4  1  0  0  0  0
  3  5  1  0  0  0  0
  3  6  1  0  0  0  0
  7  8  1  0  0  0  0
  7 12  1  0  0  0  0
  8  9  1  0  0  0  0
  8 11  1  0  0  0  0
  8 13  1  0  0  0  0
  9 10  2  0  0  0  0
  9 17  1  0  0  0  0
 11 14  1  0  0  0  0
 11 15  1  0  0  0  0
 11 16  1  0  0  0  0
 17 18  1  0  0  0  0
 17 25  1  0  0  0  0
 18 19  1  0  0  0  0
 18 21  1  0  0  0  0
 18 26  1  0  0  0  0
 19 20  2  0  0  0  0
 19 36  1  0  0  0  0
 21 22  1  0  0  0  0
 21 27  1  0  0  0  0
 21 28  1  0  0  0  0
 22 23  1  0  0  0  0
 22 24  1  0  0  0  0
 22 29  1  0  0  0  0
 23 30  1  0  0  0  0
 23 31  1  0  0  0  0
 23 32  1  0  0  0  0
 24 33  1  0  0  0  0
 24 34  1  0  0  0  0
 24 35  1  0  0  0  0
 36 37  1  0  0  0  0
 36 41  1  0  0  0  0
 37 38  1  0  0  0  0
 37 40  1  0  0  0  0
 37 42  1  0  0  0  0
 38 39  2  0  0  0  0
 38 46  1  0  0  0  0
 40 43  1  0  0  0  0
 40 44  1  0  0  0  0
 40 45  1  0  0  0  0
 46 47  1  0  0  0  0
 46 48  1  0  0  0  0
 47 49  1  0  0  0  0
 47 50  1  0  0  0  0
 47 51  1  0  0  0  0
M  END
$$$$

  -OEChem-05262216553D

 51 50  0     1  0  0  0  0  0999 V2000
    1.0328   -2.1705   -3.3128 C   0  0  0  0  0  0  0  0  0  0  0  0
    0.0997   -1.4988   -2.9004 O   0  0  0  0  0  0  0  0  0  0  0  0
    0.7747   -3.5722   -3.8320 C   0  0  0  0  0  0  0  0  0  0  0  0
    1.3079   -4.3021   -3.2181 H   0  0  0  0  0  0  0  0  0  0  0  0
   -0.2949   -3.7976   -3.7962 H   0  0  0  0  0  0  0  0  0  0  0  0
    1.1162   -3.6566   -4.8666 H   0  0  0  0  0  0  0  0  0  0  0  0
    2.3294   -1.6922   -3.2755 N   0  0  0  0  0  0  0  0  0  0  0  0
    2.7711   -0.3569   -2.8212 C   0  0  2  0  0  0  0  0  0  0  0  0
    2.5576   -0.0847   -1.3145 C   0  0  0  0  0  0  0  0  0  0  0  0
    3.5385    0.1470   -0.6226 O   0  0  0  0  0  0  0  0  0  0  0  0
    2.1420    0.7524   -3.6768 C   0  0  0  0  0  0  0  0  0  0  0  0
    3.0480   -2.3348   -3.5970 H   0  0  0  0  0  0  0  0  0  0  0  0
    3.8528   -0.3054   -2.9847 H   0  0  0  0  0  0  0  0  0  0  0  0
    1.0616    0.8178   -3.5186 H   0  0  0  0  0  0  0  0  0  0  0  0
    2.5817    1.7201   -3.4150 H   0  0  0  0  0  0  0  0  0  0  0  0
    2.3267    0.5639   -4.7384 H   0  0  0  0  0  0  0  0  0  0  0  0
    1.2773   -0.0620   -0.7898 N   0  0  0  0  0  0  0  0  0  0  0  0
    0.8548    0.0503    0.6223 C   0  0  2  0  0  0  0  0  0  0  0  0
    0.3159    1.4574    0.9718 C   0  0  0  0  0  0  0  0  0  0  0  0
    0.6451    2.4456    0.3271 O   0  0  0  0  0  0  0  0  0  0  0  0
    1.7597   -0.5254    1.7450 C   0  0  0  0  0  0  0  0  0  0  0  0
    1.9410   -2.0674    1.7819 C   0  0  0  0  0  0  0  0  0  0  0  0
    2.9783   -2.4055    2.8601 C   0  0  0  0  0  0  0  0  0  0  0  0
    2.3689   -2.7480    0.4758 C   0  0  0  0  0  0  0  0  0  0  0  0
    0.5551   -0.3014   -1.4749 H   0  0  0  0  0  0  0  0  0  0  0  0
   -0.0363   -0.5823    0.6654 H   0  0  0  0  0  0  0  0  0  0  0  0
    1.3357   -0.2303    2.7100 H   0  0  0  0  0  0  0  0  0  0  0  0
    2.7410   -0.0462    1.6875 H   0  0  0  0  0  0  0  0  0  0  0  0
    0.9809   -2.5054    2.0745 H   0  0  0  0  0  0  0  0  0  0  0  0
    3.9580   -1.9948    2.5944 H   0  0  0  0  0  0  0  0  0  0  0  0
    3.0755   -3.4897    2.9738 H   0  0  0  0  0  0  0  0  0  0  0  0
    2.6768   -1.9875    3.8256 H   0  0  0  0  0  0  0  0  0  0  0  0
    3.3274   -2.3540    0.1273 H   0  0  0  0  0  0  0  0  0  0  0  0
    2.4841   -3.8247    0.6343 H   0  0  0  0  0  0  0  0  0  0  0  0
    1.6139   -2.6103   -0.3017 H   0  0  0  0  0  0  0  0  0  0  0  0
   -0.6507    1.5826    1.9597 N   0  0  0  0  0  0  0  0  0  0  0  0
   -1.2846    2.8287    2.4411 C   0  0  2  0  0  0  0  0  0  0  0  0
   -2.2246    3.5167    1.4238 C   0  0  0  0  0  0  0  0  0  0  0  0
   -3.3761    3.7734    1.7508 O   0  0  0  0  0  0  0  0  0  0  0  0
   -0.2362    3.8150    2.9752 C   0  0  0  0  0  0  0  0  0  0  0  0
   -0.9262    0.7194    2.4182 H   0  0  0  0  0  0  0  0  0  0  0  0
   -1.9164    2.5522    3.2917 H   0  0  0  0  0  0  0  0  0  0  0  0
    0.3732    4.2260    2.1649 H   0  0  0  0  0  0  0  0  0  0  0  0
   -0.7320    4.6478    3.4839 H   0  0  0  0  0  0  0  0  0  0  0  0
    0.4255    3.3175    3.6905 H   0  0  0  0  0  0  0  0  0  0  0  0
   -1.7963    3.8401    0.1524 N   0  0  0  0  0  0  0  0  0  0  0  0
   -2.6418    4.4431   -0.8678 C   0  0  0  0  0  0  0  0  0  0  0  0
   -0.8401    3.5588   -0.0848 H   0  0  0  0  0  0  0  0  0  0  0  0
   -3.0365    5.4036   -0.5204 H   0  0  0  0  0  0  0  0  0  0  0  0
   -2.0643    4.6167   -1.7809 H   0  0  0  0  0  0  0  0  0  0  0  0
   -3.4813    3.7827   -1.1079 H   0  0  0  0  0  0  0  0  0  0  0  0
  1  2  2  0  0  0  0
  1  3  1  0  0  0  0
  1  7  1  0  0  0  0
  3  4  1  0  0  0  0
  3  5  1  0  0  0  0
  3  6  1  0  0  0  0
  7  8  1  0  0  0  0
  7 12  1  0  0  0  0
  8  9  1  0  0  0  0
  8 11  1  0  0  0  0
  8 13  1  0  0  0  0
  9 10  2  0  0  0  0
  9 17  1  0  0  0  0
 11 14  1  0  0  0  0
 11 15  1  0  0  0  0
 11 16  1  0  0  0  0
 17 18  1  0  0  0  0
 17 25  1  0  0  0  0
 18 19  1  0  0  0  0
 18 21  1  0  0  0  0
 18 26  1  0  0  0  0
 19 20  2  0  0  0  0
 19 36  1  0  0  0  0
 21 22  1  0  0  0  0
 21 27  1  0  0  0  0
 21 28  1  0  0  0  0
 22 23  1  0  0  0  0
 22 24  1  0  0  0  0
 22 29  1  0  0  0  0
 23 30  1  0  0  0  0
 23 31  1  0  0  0  0
 23 32  1  0  0  0  0
 24 33  1  0  0  0  0
 24 34  1  0  0  0  0
 24 35  1  0  0  0  0
 36 37  1  0  0  0  0
 36 41  1  0  0  0  0
 37 38  1  0  0  0  0
 37 40  1  0  0  0  0
 37 42  1  0  0  0  0
 38 39  2  0  0  0  0
 38 46  1  0  0  0  0
 40 43  1  0  0  0  0
 40 44  1  0  0  0  0
 40 45  1  0  0  0  0
 46 47  1  0  0  0  0
 46 48  1  0  0  0  0
 47 49  1  0  0  0  0
 47 50  1  0  0  0  0
 47 51  1  0  0  0  0
M  END
$$$$

  -OEChem-05262216553D

 51 50  0     1  0  0  0  0  0999 V2000
    0.9667   -2.0288   -3.3530 C   0  0  0  0  0  0  0  0  0  0  0  0
    0.0972   -1.2752   -2.9441 O   0  0  0  0  0  0  0  0  0  0  0  0
    0.5765   -3.3773   -3.9286 C   0  0  0  0  0  0  0  0  0  0  0  0
    1.0184   -4.1804   -3.3335 H   0  0  0  0  0  0  0  0  0  0  0  0
   -0.5115   -3.4914   -3.9200 H   0  0  0  0  0  0  0  0  0  0  0  0
    0.9290   -3.4608   -4.9597 H   0  0  0  0  0  0  0  0  0  0  0  0
    2.3053   -1.6942   -3.2615 N   0  0  0  0  0  0  0  0  0  0  0  0
    2.8749   -0.4274   -2.7542 C   0  0  2  0  0  0  0  0  0  0  0  0
    2.6564   -0.1785   -1.2444 C   0  0  0  0  0  0  0  0  0  0  0  0
    3.6378   -0.0066   -0.5353 O   0  0  0  0  0  0  0  0  0  0  0  0
    2.3881    0.7705   -3.5829 C   0  0  0  0  0  0  0  0  0  0  0  0
    2.9604   -2.3993   -3.5873 H   0  0  0  0  0  0  0  0  0  0  0  0
    3.9595   -0.4869   -2.8939 H   0  0  0  0  0  0  0  0  0  0  0  0
    1.3188    0.9500   -3.4372 H   0  0  0  0  0  0  0  0  0  0  0  0
    2.9273    1.6753   -3.2839 H   0  0  0  0  0  0  0  0  0  0  0  0
    2.5698    0.5955   -4.6474 H   0  0  0  0  0  0  0  0  0  0  0  0
    1.3731   -0.0953   -0.7354 N   0  0  0  0  0  0  0  0  0  0  0  0
    0.9318    0.0380    0.6690 C   0  0  2  0  0  0  0  0  0  0  0  0
    0.4552    1.4747    0.9972 C   0  0  0  0  0  0  0  0  0  0  0  0
    0.5854    2.3858    0.1879 O   0  0  0  0  0  0  0  0  0  0  0  0
    1.7941   -0.5929    1.7986 C   0  0  0  0  0  0  0  0  0  0  0  0
    1.8910   -2.1434    1.8254 C   0  0  0  0  0  0  0  0  0  0  0  0
    2.8972   -2.5465    2.9109 C   0  0  0  0  0  0  0  0  0  0  0  0
    2.2950   -2.8393    0.5194 C   0  0  0  0  0  0  0  0  0  0  0  0
    0.6447   -0.2339   -1.4417 H   0  0  0  0  0  0  0  0  0  0  0  0
    0.0065   -0.5440    0.7015 H   0  0  0  0  0  0  0  0  0  0  0  0
    1.3781   -0.2874    2.7630 H   0  0  0  0  0  0  0  0  0  0  0  0
    2.8002   -0.1670    1.7565 H   0  0  0  0  0  0  0  0  0  0  0  0
    0.9057   -2.5308    2.1052 H   0  0  0  0  0  0  0  0  0  0  0  0
    3.9013   -2.1923    2.6553 H   0  0  0  0  0  0  0  0  0  0  0  0
    2.9306   -3.6353    3.0187 H   0  0  0  0  0  0  0  0  0  0  0  0
    2.6126   -2.1169    3.8765 H   0  0  0  0  0  0  0  0  0  0  0  0
    3.2773   -2.4966    0.1835 H   0  0  0  0  0  0  0  0  0  0  0  0
    2.3499   -3.9215    0.6724 H   0  0  0  0  0  0  0  0  0  0  0  0
    1.5572   -2.6567   -0.2656 H   0  0  0  0  0  0  0  0  0  0  0  0
   -0.2755    1.7038    2.1548 N   0  0  0  0  0  0  0  0  0  0  0  0
   -0.8489    2.9868    2.6161 C   0  0  2  0  0  0  0  0  0  0  0  0
   -2.0283    3.5188    1.7688 C   0  0  0  0  0  0  0  0  0  0  0  0
   -3.0534    3.8819    2.3309 O   0  0  0  0  0  0  0  0  0  0  0  0
    0.2380    4.0600    2.7727 C   0  0  0  0  0  0  0  0  0  0  0  0
   -0.4010    0.8993    2.7615 H   0  0  0  0  0  0  0  0  0  0  0  0
   -1.2582    2.8065    3.6154 H   0  0  0  0  0  0  0  0  0  0  0  0
    0.6306    4.3739    1.8011 H   0  0  0  0  0  0  0  0  0  0  0  0
   -0.1768    4.9418    3.2714 H   0  0  0  0  0  0  0  0  0  0  0  0
    1.0667    3.6784    3.3767 H   0  0  0  0  0  0  0  0  0  0  0  0
   -1.9496    3.5962    0.3932 N   0  0  0  0  0  0  0  0  0  0  0  0
   -3.0032    4.1251   -0.4602 C   0  0  0  0  0  0  0  0  0  0  0  0
   -1.0587    3.3094   -0.0231 H   0  0  0  0  0  0  0  0  0  0  0  0
   -3.1869    5.1799   -0.2314 H   0  0  0  0  0  0  0  0  0  0  0  0
   -2.7118    4.0439   -1.5116 H   0  0  0  0  0  0  0  0  0  0  0  0
   -3.9320    3.5639   -0.3145 H   0  0  0  0  0  0  0  0  0  0  0  0
  1  2  2  0  0  0  0
  1  3  1  0  0  0  0
  1  7  1  0  0  0  0
  3  4  1  0  0  0  0
  3  5  1  0  0  0  0
  3  6  1  0  0  0  0
  7  8  1  0  0  0  0
  7 12  1  0  0  0  0
  8  9  1  0  0  0  0
  8 11  1  0  0  0  0
  8 13  1  0  0  0  0
  9 10  2  0  0  0  0
  9 17  1  0  0  0  0
 11 14  1  0  0  0  0
 11 15  1  0  0  0  0
 11 16  1  0  0  0  0
 17 18  1  0  0  0  0
 17 25  1  0  0  0  0
 18 19  1  0  0  0  0
 18 21  1  0  0  0  0
 18 26  1  0  0  0  0
 19 20  2  0  0  0  0
 19 36  1  0  0  0  0
 21 22  1  0  0  0  0
 21 27  1  0  0  0  0
 21 28  1  0  0  0  0
 22 23  1  0  0  0  0
 22 24  1  0  0  0  0
 22 29  1  0  0  0  0
 23 30  1  0  0  0  0
 23 31  1  0  0  0  0
 23 32  1  0  0  0  0
 24 33  1  0  0  0  0
 24 34  1  0  0  0  0
 24 35  1  0  0  0  0
 36 37  1  0  0  0  0
 36 41  1  0  0  0  0
 37 38  1  0  0  0  0
 37 40  1  0  0  0  0
 37 42  1  0  0  0  0
 38 39  2  0  0  0  0
 38 46  1  0  0  0  0
 40 43  1  0  0  0  0
 40 44  1  0  0  0  0
 40 45  1  0  0  0  0
 46 47  1  0  0  0  0
 46 48  1  0  0  0  0
 47 49  1  0  0  0  0
 47 50  1  0  0  0  0
 47 51  1  0  0  0  0
M  END
$$$$

  -OEChem-05262216553D

 51 50  0     1  0  0  0  0  0999 V2000
    0.8942   -2.1134   -3.2245 C   0  0  0  0  0  0  0  0  0  0  0  0
   -0.0182   -1.4381   -2.7749 O   0  0  0  0  0  0  0  0  0  0  0  0
    0.6306   -3.5493   -3.6358 C   0  0  0  0  0  0  0  0  0  0  0  0
    1.2434   -4.2278   -3.0371 H   0  0  0  0  0  0  0  0  0  0  0  0
   -0.4234   -3.7992   -3.4825 H   0  0  0  0  0  0  0  0  0  0  0  0
    0.8734   -3.6857   -4.6926 H   0  0  0  0  0  0  0  0  0  0  0  0
    2.1765   -1.6067   -3.3259 N   0  0  0  0  0  0  0  0  0  0  0  0
    2.6202   -0.2417   -2.9759 C   0  0  2  0  0  0  0  0  0  0  0  0
    2.5227    0.0960   -1.4703 C   0  0  0  0  0  0  0  0  0  0  0  0
    3.5442    0.4047   -0.8727 O   0  0  0  0  0  0  0  0  0  0  0  0
    1.8944    0.8097   -3.8291 C   0  0  0  0  0  0  0  0  0  0  0  0
    2.8816   -2.2511   -3.6723 H   0  0  0  0  0  0  0  0  0  0  0  0
    3.6832   -0.1754   -3.2308 H   0  0  0  0  0  0  0  0  0  0  0  0
    0.8316    0.8671   -3.5762 H   0  0  0  0  0  0  0  0  0  0  0  0
    2.3363    1.7972   -3.6619 H   0  0  0  0  0  0  0  0  0  0  0  0
    1.9854    0.5657   -4.8917 H   0  0  0  0  0  0  0  0  0  0  0  0
    1.2890    0.1512   -0.8489 N   0  0  0  0  0  0  0  0  0  0  0  0
    0.9575    0.2277    0.5912 C   0  0  2  0  0  0  0  0  0  0  0  0
    0.1633    1.5161    0.9327 C   0  0  0  0  0  0  0  0  0  0  0  0
   -0.2177    2.2679    0.0426 O   0  0  0  0  0  0  0  0  0  0  0  0
    2.0036   -0.2092    1.6604 C   0  0  0  0  0  0  0  0  0  0  0  0
    2.3935   -1.7154    1.7133 C   0  0  0  0  0  0  0  0  0  0  0  0
    3.5342   -1.8849    2.7248 C   0  0  0  0  0  0  0  0  0  0  0  0
    2.7953   -2.4137    0.4094 C   0  0  0  0  0  0  0  0  0  0  0  0
    0.5164   -0.0945   -1.4749 H   0  0  0  0  0  0  0  0  0  0  0  0
    0.1880   -0.5421    0.6997 H   0  0  0  0  0  0  0  0  0  0  0  0
    1.6199    0.0413    2.6524 H   0  0  0  0  0  0  0  0  0  0  0  0
    2.9070    0.3921    1.5235 H   0  0  0  0  0  0  0  0  0  0  0  0
    1.5194   -2.2542    2.0943 H   0  0  0  0  0  0  0  0  0  0  0  0
    4.4344   -1.3671    2.3780 H   0  0  0  0  0  0  0  0  0  0  0  0
    3.7740   -2.9443    2.8598 H   0  0  0  0  0  0  0  0  0  0  0  0
    3.2500   -1.4732    3.6981 H   0  0  0  0  0  0  0  0  0  0  0  0
    2.9967   -3.4720    0.6010 H   0  0  0  0  0  0  0  0  0  0  0  0
    3.7037   -1.9730   -0.0083 H   0  0  0  0  0  0  0  0  0  0  0  0
    1.9885   -2.3622   -0.3252 H   0  0  0  0  0  0  0  0  0  0  0  0
   -0.2411    1.7712    2.2358 N   0  0  0  0  0  0  0  0  0  0  0  0
   -0.9698    2.9581    2.7342 C   0  0  2  0  0  0  0  0  0  0  0  0
   -2.4415    3.0750    2.2717 C   0  0  0  0  0  0  0  0  0  0  0  0
   -3.3174    3.2662    3.1055 O   0  0  0  0  0  0  0  0  0  0  0  0
   -0.1986    4.2500    2.4290 C   0  0  0  0  0  0  0  0  0  0  0  0
    0.0644    1.0957    2.9294 H   0  0  0  0  0  0  0  0  0  0  0  0
   -1.0090    2.8654    3.8243 H   0  0  0  0  0  0  0  0  0  0  0  0
   -0.2066    4.4746    1.3585 H   0  0  0  0  0  0  0  0  0  0  0  0
   -0.6572    5.0928    2.9556 H   0  0  0  0  0  0  0  0  0  0  0  0
    0.8409    4.1597    2.7579 H   0  0  0  0  0  0  0  0  0  0  0  0
   -2.7900    2.9779    0.9399 N   0  0  0  0  0  0  0  0  0  0  0  0
   -4.1493    3.1089    0.4348 C   0  0  0  0  0  0  0  0  0  0  0  0
   -2.0193    2.8230    0.2833 H   0  0  0  0  0  0  0  0  0  0  0  0
   -4.5423    4.1082    0.6485 H   0  0  0  0  0  0  0  0  0  0  0  0
   -4.1642    2.9544   -0.6485 H   0  0  0  0  0  0  0  0  0  0  0  0
   -4.8044    2.3648    0.8996 H   0  0  0  0  0  0  0  0  0  0  0  0
  1  2  2  0  0  0  0
  1  3  1  0  0  0  0
  1  7  1  0  0  0  0
  3  4  1  0  0  0  0
  3  5  1  0  0  0  0
  3  6  1  0  0  0  0
  7  8  1  0  0  0  0
  7 12  1  0  0  0  0
  8  9  1  0  0  0  0
  8 11  1  0  0  0  0
  8 13  1  0  0  0  0
  9 10  2  0  0  0  0
  9 17  1  0  0  0  0
 11 14  1  0  0  0  0
 11 15  1  0  0  0  0
 11 16  1  0  0  0  0
 17 18  1  0  0  0  0
 17 25  1  0  0  0  0
 18 19  1  0  0  0  0
 18 21  1  0  0  0  0
 18 26  1  0  0  0  0
 19 20  2  0  0  0  0
 19 36  1  0  0  0  0
 21 22  1  0  0  0  0
 21 27  1  0  0  0  0
 21 28  1  0  0  0  0
 22 23  1  0  0  0  0
 22 24  1  0  0  0  0
 22 29  1  0  0  0  0
 23 30  1  0  0  0  0
 23 31  1  0  0  0  0
 23 32  1  0  0  0  0
 24 33  1  0  0  0  0
 24 34  1  0  0  0  0
 24 35  1  0  0  0  0
 36 37  1  0  0  0  0
 36 41  1  0  0  0  0
 37 38  1  0  0  0  0
 37 40  1  0  0  0  0
 37 42  1  0  0  0  0
 38 39  2  0  0  0  0
 38 46  1  0  0  0  0
 40 43  1  0  0  0  0
 40 44  1  0  0  0  0
 40 45  1  0  0  0  0
 46 47  1  0  0  0  0
 46 48  1  0  0  0  0
 47 49  1  0  0  0  0
 47 50  1  0  0  0  0
 47 51  1  0  0  0  0
M  END
$$$$

  -OEChem-05262216553D

 51 50  0     1  0  0  0  0  0999 V2000
    0.8297   -2.1131   -3.2089 C   0  0  0  0  0  0  0  0  0  0  0  0
   -0.0392   -1.3756   -2.7719 O   0  0  0  0  0  0  0  0  0  0  0  0
    0.4738   -3.5295   -3.6198 C   0  0  0  0  0  0  0  0  0  0  0  0
    1.0101   -4.2471   -2.9940 H   0  0  0  0  0  0  0  0  0  0  0  0
   -0.6010   -3.6969   -3.5054 H   0  0  0  0  0  0  0  0  0  0  0  0
    0.7447   -3.6946   -4.6655 H   0  0  0  0  0  0  0  0  0  0  0  0
    2.1432   -1.6917   -3.3013 N   0  0  0  0  0  0  0  0  0  0  0  0
    2.6698   -0.3490   -2.9787 C   0  0  2  0  0  0  0  0  0  0  0  0
    2.5862    0.0356   -1.4835 C   0  0  0  0  0  0  0  0  0  0  0  0
    3.6181    0.3368   -0.8997 O   0  0  0  0  0  0  0  0  0  0  0  0
    2.0195    0.7254   -3.8621 C   0  0  0  0  0  0  0  0  0  0  0  0
    2.8066   -2.3821   -3.6413 H   0  0  0  0  0  0  0  0  0  0  0  0
    3.7365   -0.3580   -3.2259 H   0  0  0  0  0  0  0  0  0  0  0  0
    0.9620    0.8594   -3.6159 H   0  0  0  0  0  0  0  0  0  0  0  0
    2.5260    1.6848   -3.7167 H   0  0  0  0  0  0  0  0  0  0  0  0
    2.0986    0.4491   -4.9177 H   0  0  0  0  0  0  0  0  0  0  0  0
    1.3593    0.1438   -0.8555 N   0  0  0  0  0  0  0  0  0  0  0  0
    1.0440    0.2647    0.5848 C   0  0  2  0  0  0  0  0  0  0  0  0
    0.2934    1.5886    0.8869 C   0  0  0  0  0  0  0  0  0  0  0  0
   -0.3177    2.1607   -0.0087 O   0  0  0  0  0  0  0  0  0  0  0  0
    2.0849   -0.1923    1.6511 C   0  0  0  0  0  0  0  0  0  0  0  0
    2.4106   -1.7124    1.7246 C   0  0  0  0  0  0  0  0  0  0  0  0
    3.5557   -1.9162    2.7248 C   0  0  0  0  0  0  0  0  0  0  0  0
    2.7637   -2.4478    0.4268 C   0  0  0  0  0  0  0  0  0  0  0  0
    0.5706   -0.0790   -1.4706 H   0  0  0  0  0  0  0  0  0  0  0  0
    0.2476   -0.4729    0.7215 H   0  0  0  0  0  0  0  0  0  0  0  0
    1.7182    0.0823    2.6428 H   0  0  0  0  0  0  0  0  0  0  0  0
    3.0100    0.3711    1.4985 H   0  0  0  0  0  0  0  0  0  0  0  0
    1.5188   -2.2058    2.1256 H   0  0  0  0  0  0  0  0  0  0  0  0
    4.4748   -1.4489    2.3560 H   0  0  0  0  0  0  0  0  0  0  0  0
    3.7464   -2.9831    2.8775 H   0  0  0  0  0  0  0  0  0  0  0  0
    3.3049   -1.4728    3.6934 H   0  0  0  0  0  0  0  0  0  0  0  0
    2.9269   -3.5099    0.6333 H   0  0  0  0  0  0  0  0  0  0  0  0
    3.6813   -2.0494   -0.0128 H   0  0  0  0  0  0  0  0  0  0  0  0
    1.9473   -2.3774   -0.2956 H   0  0  0  0  0  0  0  0  0  0  0  0
    0.1677    2.0652    2.1845 N   0  0  0  0  0  0  0  0  0  0  0  0
   -0.5320    3.2895    2.6308 C   0  0  2  0  0  0  0  0  0  0  0  0
   -2.0731    3.2418    2.5130 C   0  0  0  0  0  0  0  0  0  0  0  0
   -2.7587    3.5318    3.4851 O   0  0  0  0  0  0  0  0  0  0  0  0
    0.0310    4.5385    1.9374 C   0  0  0  0  0  0  0  0  0  0  0  0
    0.6695    1.5400    2.8933 H   0  0  0  0  0  0  0  0  0  0  0  0
   -0.3188    3.4005    3.6990 H   0  0  0  0  0  0  0  0  0  0  0  0
   -0.2418    4.5631    0.8782 H   0  0  0  0  0  0  0  0  0  0  0  0
   -0.3681    5.4411    2.4110 H   0  0  0  0  0  0  0  0  0  0  0  0
    1.1222    4.5590    2.0166 H   0  0  0  0  0  0  0  0  0  0  0  0
   -2.6934    2.8759    1.3358 N   0  0  0  0  0  0  0  0  0  0  0  0
   -4.1363    2.8183    1.1517 C   0  0  0  0  0  0  0  0  0  0  0  0
   -2.0740    2.6494    0.5522 H   0  0  0  0  0  0  0  0  0  0  0  0
   -4.5758    3.8150    1.2612 H   0  0  0  0  0  0  0  0  0  0  0  0
   -4.3731    2.4416    0.1519 H   0  0  0  0  0  0  0  0  0  0  0  0
   -4.5902    2.1485    1.8894 H   0  0  0  0  0  0  0  0  0  0  0  0
  1  2  2  0  0  0  0
  1  3  1  0  0  0  0
  1  7  1  0  0  0  0
  3  4  1  0  0  0  0
  3  5  1  0  0  0  0
  3  6  1  0  0  0  0
  7  8  1  0  0  0  0
  7 12  1  0  0  0  0
  8  9  1  0  0  0  0
  8 11  1  0  0  0  0
  8 13  1  0  0  0  0
  9 10  2  0  0  0  0
  9 17  1  0  0  0  0
 11 14  1  0  0  0  0
 11 15  1  0  0  0  0
 11 16  1  0  0  0  0
 17 18  1  0  0  0  0
 17 25  1  0  0  0  0
 18 19  1  0  0  0  0
 18 21  1  0  0  0  0
 18 26  1  0  0  0  0
 19 20  2  0  0  0  0
 19 36  1  0  0  0  0
 21 22  1  0  0  0  0
 21 27  1  0  0  0  0
 21 28  1  0  0  0  0
 22 23  1  0  0  0  0
 22 24  1  0  0  0  0
 22 29  1  0  0  0  0
 23 30  1  0  0  0  0
 23 31  1  0  0  0  0
 23 32  1  0  0  0  0
 24 33  1  0  0  0  0
 24 34  1  0  0  0  0
 24 35  1  0  0  0  0
 36 37  1  0  0  0  0
 36 41  1  0  0  0  0
 37 38  1  0  0  0  0
 37 40  1  0  0  0  0
 37 42  1  0  0  0  0
 38 39  2  0  0  0  0
 38 46  1  0  0  0  0
 40 43  1  0  0  0  0
 40 44  1  0  0  0  0
 40 45  1  0  0  0  0
 46 47  1  0  0  0  0
 46 48  1  0  0  0  0
 47 49  1  0  0  0  0
 47 50  1  0  0  0  0
 47 51  1  0  0  0  0
M  END
$$$$

  -OEChem-05262216553D

 51 50  0     1  0  0  0  0  0999 V2000
    0.8529   -2.1706   -3.2131 C   0  0  0  0  0  0  0  0  0  0  0  0
   -0.0153   -1.4254   -2.7885 O   0  0  0  0  0  0  0  0  0  0  0  0
    0.4972   -3.5985   -3.5829 C   0  0  0  0  0  0  0  0  0  0  0  0
    1.0366   -4.2974   -2.9386 H   0  0  0  0  0  0  0  0  0  0  0  0
   -0.5770   -3.7640   -3.4582 H   0  0  0  0  0  0  0  0  0  0  0  0
    0.7627   -3.7929   -4.6250 H   0  0  0  0  0  0  0  0  0  0  0  0
    2.1648   -1.7470   -3.3205 N   0  0  0  0  0  0  0  0  0  0  0  0
    2.6881   -0.3981   -3.0172 C   0  0  2  0  0  0  0  0  0  0  0  0
    2.6032    0.0090   -1.5273 C   0  0  0  0  0  0  0  0  0  0  0  0
    3.6325    0.3233   -0.9457 O   0  0  0  0  0  0  0  0  0  0  0  0
    2.0351    0.6624   -3.9159 C   0  0  0  0  0  0  0  0  0  0  0  0
    2.8282   -2.4408   -3.6537 H   0  0  0  0  0  0  0  0  0  0  0  0
    3.7549   -0.4076   -3.2645 H   0  0  0  0  0  0  0  0  0  0  0  0
    0.9748    0.7902   -3.6788 H   0  0  0  0  0  0  0  0  0  0  0  0
    2.5323    1.6275   -3.7762 H   0  0  0  0  0  0  0  0  0  0  0  0
    2.1242    0.3773   -4.9683 H   0  0  0  0  0  0  0  0  0  0  0  0
    1.3776    0.1320   -0.8999 N   0  0  0  0  0  0  0  0  0  0  0  0
    1.0688    0.2544    0.5411 C   0  0  2  0  0  0  0  0  0  0  0  0
    0.3382    1.5895    0.8330 C   0  0  0  0  0  0  0  0  0  0  0  0
   -0.4636    2.0271    0.0156 O   0  0  0  0  0  0  0  0  0  0  0  0
    2.0995   -0.2100    1.6135 C   0  0  0  0  0  0  0  0  0  0  0  0
    2.4127   -1.7315    1.6951 C   0  0  0  0  0  0  0  0  0  0  0  0
    3.5499   -1.9368    2.7031 C   0  0  0  0  0  0  0  0  0  0  0  0
    2.7799   -2.4655    0.4008 C   0  0  0  0  0  0  0  0  0  0  0  0
    0.5870   -0.1068   -1.5073 H   0  0  0  0  0  0  0  0  0  0  0  0
    0.2624   -0.4718    0.6814 H   0  0  0  0  0  0  0  0  0  0  0  0
    1.7222    0.0674    2.6015 H   0  0  0  0  0  0  0  0  0  0  0  0
    3.0304    0.3452    1.4661 H   0  0  0  0  0  0  0  0  0  0  0  0
    1.5150   -2.2211    2.0878 H   0  0  0  0  0  0  0  0  0  0  0  0
    4.4743   -1.4777    2.3379 H   0  0  0  0  0  0  0  0  0  0  0  0
    3.7316   -3.0039    2.8641 H   0  0  0  0  0  0  0  0  0  0  0  0
    3.2948   -1.4855    3.6667 H   0  0  0  0  0  0  0  0  0  0  0  0
    2.9461   -3.5271    0.6083 H   0  0  0  0  0  0  0  0  0  0  0  0
    3.6996   -2.0623   -0.0306 H   0  0  0  0  0  0  0  0  0  0  0  0
    1.9696   -2.3976   -0.3286 H   0  0  0  0  0  0  0  0  0  0  0  0
    0.4732    2.2366    2.0530 N   0  0  0  0  0  0  0  0  0  0  0  0
   -0.1534    3.5094    2.4695 C   0  0  2  0  0  0  0  0  0  0  0  0
   -1.6847    3.4462    2.6783 C   0  0  0  0  0  0  0  0  0  0  0  0
   -2.1628    3.8290    3.7385 O   0  0  0  0  0  0  0  0  0  0  0  0
    0.2235    4.6517    1.5153 C   0  0  0  0  0  0  0  0  0  0  0  0
    1.1606    1.8352    2.6834 H   0  0  0  0  0  0  0  0  0  0  0  0
    0.2700    3.7628    3.4468 H   0  0  0  0  0  0  0  0  0  0  0  0
   -0.2565    4.5304    0.5399 H   0  0  0  0  0  0  0  0  0  0  0  0
   -0.0975    5.6101    1.9349 H   0  0  0  0  0  0  0  0  0  0  0  0
    1.3073    4.6834    1.3684 H   0  0  0  0  0  0  0  0  0  0  0  0
   -2.5249    2.9638    1.6954 N   0  0  0  0  0  0  0  0  0  0  0  0
   -3.9698    2.8536    1.8323 C   0  0  0  0  0  0  0  0  0  0  0  0
   -2.0709    2.6313    0.8397 H   0  0  0  0  0  0  0  0  0  0  0  0
   -4.4063    2.4650    0.9073 H   0  0  0  0  0  0  0  0  0  0  0  0
   -4.2261    2.1721    2.6501 H   0  0  0  0  0  0  0  0  0  0  0  0
   -4.4110    3.8345    2.0376 H   0  0  0  0  0  0  0  0  0  0  0  0
  1  2  2  0  0  0  0
  1  3  1  0  0  0  0
  1  7  1  0  0  0  0
  3  4  1  0  0  0  0
  3  5  1  0  0  0  0
  3  6  1  0  0  0  0
  7  8  1  0  0  0  0
  7 12  1  0  0  0  0
  8  9  1  0  0  0  0
  8 11  1  0  0  0  0
  8 13  1  0  0  0  0
  9 10  2  0  0  0  0
  9 17  1  0  0  0  0
 11 14  1  0  0  0  0
 11 15  1  0  0  0  0
 11 16  1  0  0  0  0
 17 18  1  0  0  0  0
 17 25  1  0  0  0  0
 18 19  1  0  0  0  0
 18 21  1  0  0  0  0
 18 26  1  0  0  0  0
 19 20  2  0  0  0  0
 19 36  1  0  0  0  0
 21 22  1  0  0  0  0
 21 27  1  0  0  0  0
 21 28  1  0  0  0  0
 22 23  1  0  0  0  0
 22 24  1  0  0  0  0
 22 29  1  0  0  0  0
 23 30  1  0  0  0  0
 23 31  1  0  0  0  0
 23 32  1  0  0  0  0
 24 33  1  0  0  0  0
 24 34  1  0  0  0  0
 24 35  1  0  0  0  0
 36 37  1  0  0  0  0
 36 41  1  0  0  0  0
 37 38  1  0  0  0  0
 37 40  1  0  0  0  0
 37 42  1  0  0  0  0
 38 39  2  0  0  0  0
 38 46  1  0  0  0  0
 40 43  1  0  0  0  0
 40 44  1  0  0  0  0
 40 45  1  0  0  0  0
 46 47  1  0  0  0  0
 46 48  1  0  0  0  0
 47 49  1  0  0  0  0
 47 50  1  0  0  0  0
 47 51  1  0  0  0  0
M  END
$$$$

  -OEChem-05262216553D

 51 50  0     1  0  0  0  0  0999 V2000
    2.3531   -2.7727   -3.4796 C   0  0  0  0  0  0  0  0  0  0  0  0
    1.3004   -3.1276   -2.9755 O   0  0  0  0  0  0  0  0  0  0  0  0
    3.4057   -3.8102   -3.8219 C   0  0  0  0  0  0  0  0  0  0  0  0
    4.3042   -3.6394   -3.2237 H   0  0  0  0  0  0  0  0  0  0  0  0
    3.0281   -4.8146   -3.6107 H   0  0  0  0  0  0  0  0  0  0  0  0
    3.6636   -3.7474   -4.8819 H   0  0  0  0  0  0  0  0  0  0  0  0
    2.6187   -1.4381   -3.7209 N   0  0  0  0  0  0  0  0  0  0  0  0
    1.8151   -0.3113   -3.2113 C   0  0  2  0  0  0  0  0  0  0  0  0
    1.9002   -0.1792   -1.6708 C   0  0  0  0  0  0  0  0  0  0  0  0
    3.0133   -0.1213   -1.1647 O   0  0  0  0  0  0  0  0  0  0  0  0
    0.3748   -0.3460   -3.7550 C   0  0  0  0  0  0  0  0  0  0  0  0
    3.5828   -1.2339   -3.9683 H   0  0  0  0  0  0  0  0  0  0  0  0
    2.2656    0.6043   -3.6069 H   0  0  0  0  0  0  0  0  0  0  0  0
   -0.2143   -1.1366   -3.2810 H   0  0  0  0  0  0  0  0  0  0  0  0
   -0.1230    0.6107   -3.5696 H   0  0  0  0  0  0  0  0  0  0  0  0
    0.3838   -0.5224   -4.8349 H   0  0  0  0  0  0  0  0  0  0  0  0
    0.7821    0.1343   -0.9156 N   0  0  0  0  0  0  0  0  0  0  0  0
    0.6466    0.2718    0.5518 C   0  0  2  0  0  0  0  0  0  0  0  0
    0.1890    1.7068    0.8972 C   0  0  0  0  0  0  0  0  0  0  0  0
   -0.7378    2.1982    0.2616 O   0  0  0  0  0  0  0  0  0  0  0  0
    1.6796   -0.3598    1.5319 C   0  0  0  0  0  0  0  0  0  0  0  0
    1.7605   -1.9117    1.5968 C   0  0  0  0  0  0  0  0  0  0  0  0
    2.9350   -2.3015    2.5032 C   0  0  0  0  0  0  0  0  0  0  0  0
    1.8796   -2.6879    0.2827 C   0  0  0  0  0  0  0  0  0  0  0  0
   -0.0821    0.2081   -1.4468 H   0  0  0  0  0  0  0  0  0  0  0  0
   -0.2490   -0.3165    0.7751 H   0  0  0  0  0  0  0  0  0  0  0  0
    1.4348   -0.0282    2.5459 H   0  0  0  0  0  0  0  0  0  0  0  0
    2.6702    0.0419    1.2987 H   0  0  0  0  0  0  0  0  0  0  0  0
    0.8364   -2.2559    2.0736 H   0  0  0  0  0  0  0  0  0  0  0  0
    3.8853   -1.9919    2.0563 H   0  0  0  0  0  0  0  0  0  0  0  0
    2.9597   -3.3853    2.6535 H   0  0  0  0  0  0  0  0  0  0  0  0
    2.8390   -1.8237    3.4830 H   0  0  0  0  0  0  0  0  0  0  0  0
    1.8679   -3.7639    0.4812 H   0  0  0  0  0  0  0  0  0  0  0  0
    2.8155   -2.4555   -0.2309 H   0  0  0  0  0  0  0  0  0  0  0  0
    1.0345   -2.4685   -0.3734 H   0  0  0  0  0  0  0  0  0  0  0  0
    0.7819    2.4267    1.9234 N   0  0  0  0  0  0  0  0  0  0  0  0
    0.5362    3.8385    2.2873 C   0  0  2  0  0  0  0  0  0  0  0  0
   -0.8561    4.1374    2.8907 C   0  0  0  0  0  0  0  0  0  0  0  0
   -0.9331    4.7846    3.9267 O   0  0  0  0  0  0  0  0  0  0  0  0
    0.8278    4.7693    1.1020 C   0  0  0  0  0  0  0  0  0  0  0  0
    1.5745    1.9702    2.3667 H   0  0  0  0  0  0  0  0  0  0  0  0
    1.2580    4.0893    3.0716 H   0  0  0  0  0  0  0  0  0  0  0  0
    0.0804    4.6530    0.3117 H   0  0  0  0  0  0  0  0  0  0  0  0
    0.8129    5.8125    1.4334 H   0  0  0  0  0  0  0  0  0  0  0  0
    1.8151    4.5533    0.6826 H   0  0  0  0  0  0  0  0  0  0  0  0
   -2.0167    3.7089    2.2790 N   0  0  0  0  0  0  0  0  0  0  0  0
   -3.3560    3.9892    2.7776 C   0  0  0  0  0  0  0  0  0  0  0  0
   -1.9004    3.1861    1.4069 H   0  0  0  0  0  0  0  0  0  0  0  0
   -4.1056    3.5655    2.1024 H   0  0  0  0  0  0  0  0  0  0  0  0
   -3.4946    3.5487    3.7704 H   0  0  0  0  0  0  0  0  0  0  0  0
   -3.5221    5.0695    2.8446 H   0  0  0  0  0  0  0  0  0  0  0  0
  1  2  2  0  0  0  0
  1  3  1  0  0  0  0
  1  7  1  0  0  0  0
  3  4  1  0  0  0  0
  3  5  1  0  0  0  0
  3  6  1  0  0  0  0
  7  8  1  0  0  0  0
  7 12  1  0  0  0  0
  8  9  1  0  0  0  0
  8 11  1  0  0  0  0
  8 13  1  0  0  0  0
  9 10  2  0  0  0  0
  9 17  1  0  0  0  0
 11 14  1  0  0  0  0
 11 15  1  0  0  0  0
 11 16  1  0  0  0  0
 17 18  1  0  0  0  0
 17 25  1  0  0  0  0
 18 19  1  0  0  0  0
 18 21  1  0  0  0  0
 18 26  1  0  0  0  0
 19 20  2  0  0  0  0
 19 36  1  0  0  0  0
 21 22  1  0  0  0  0
 21 27  1  0  0  0  0
 21 28  1  0  0  0  0
 22 23  1  0  0  0  0
 22 24  1  0  0  0  0
 22 29  1  0  0  0  0
 23 30  1  0  0  0  0
 23 31  1  0  0  0  0
 23 32  1  0  0  0  0
 24 33  1  0  0  0  0
 24 34  1  0  0  0  0
 24 35  1  0  0  0  0
 36 37  1  0  0  0  0
 36 41  1  0  0  0  0
 37 38  1  0  0  0  0
 37 40  1  0  0  0  0
 37 42  1  0  0  0  0
 38 39  2  0  0  0  0
 38 46  1  0  0  0  0
 40 43  1  0  0  0  0
 40 44  1  0  0  0  0
 40 45  1  0  0  0  0
 46 47  1  0  0  0  0
 46 48  1  0  0  0  0
 47 49  1  0  0  0  0
 47 50  1  0  0  0  0
 47 51  1  0  0  0  0
M  END
$$$$

  -OEChem-05262216553D

 51 50  0     1  0  0  0  0  0999 V2000
    2.4431   -2.8642   -3.4353 C   0  0  0  0  0  0  0  0  0  0  0  0
    1.4352   -3.2819   -2.8897 O   0  0  0  0  0  0  0  0  0  0  0  0
    3.5738   -3.8244   -3.7526 C   0  0  0  0  0  0  0  0  0  0  0  0
    4.4657   -3.5494   -3.1841 H   0  0  0  0  0  0  0  0  0  0  0  0
    3.2875   -4.8457   -3.4859 H   0  0  0  0  0  0  0  0  0  0  0  0
    3.8049   -3.7915   -4.8200 H   0  0  0  0  0  0  0  0  0  0  0  0
    2.5900   -1.5254   -3.7448 N   0  0  0  0  0  0  0  0  0  0  0  0
    1.7149   -0.4448   -3.2534 C   0  0  2  0  0  0  0  0  0  0  0  0
    1.8417   -0.2307   -1.7247 C   0  0  0  0  0  0  0  0  0  0  0  0
    2.9647   -0.1204   -1.2498 O   0  0  0  0  0  0  0  0  0  0  0  0
    0.2628   -0.6229   -3.7344 C   0  0  0  0  0  0  0  0  0  0  0  0
    3.5264   -1.2561   -4.0329 H   0  0  0  0  0  0  0  0  0  0  0  0
    2.0733    0.4836   -3.7084 H   0  0  0  0  0  0  0  0  0  0  0  0
   -0.2431   -1.4286   -3.1939 H   0  0  0  0  0  0  0  0  0  0  0  0
   -0.3035    0.3008   -3.5801 H   0  0  0  0  0  0  0  0  0  0  0  0
    0.2453   -0.8597   -4.8027 H   0  0  0  0  0  0  0  0  0  0  0  0
    0.7396    0.1111   -0.9586 N   0  0  0  0  0  0  0  0  0  0  0  0
    0.6392    0.2912    0.5063 C   0  0  2  0  0  0  0  0  0  0  0  0
    0.1988    1.7344    0.8211 C   0  0  0  0  0  0  0  0  0  0  0  0
   -0.8700    2.1370    0.3757 O   0  0  0  0  0  0  0  0  0  0  0  0
    1.6905   -0.3053    1.4876 C   0  0  0  0  0  0  0  0  0  0  0  0
    1.7757   -1.8532    1.6020 C   0  0  0  0  0  0  0  0  0  0  0  0
    2.9662   -2.2138    2.4993 C   0  0  0  0  0  0  0  0  0  0  0  0
    1.8813   -2.6645    0.3090 C   0  0  0  0  0  0  0  0  0  0  0  0
   -0.1427    0.1149   -1.4643 H   0  0  0  0  0  0  0  0  0  0  0  0
   -0.2522   -0.2879    0.7678 H   0  0  0  0  0  0  0  0  0  0  0  0
    1.4638    0.0678    2.4918 H   0  0  0  0  0  0  0  0  0  0  0  0
    2.6771    0.0861    1.2216 H   0  0  0  0  0  0  0  0  0  0  0  0
    0.8599   -2.1850    2.1028 H   0  0  0  0  0  0  0  0  0  0  0  0
    3.9080   -1.9162    2.0268 H   0  0  0  0  0  0  0  0  0  0  0  0
    2.9955   -3.2928    2.6810 H   0  0  0  0  0  0  0  0  0  0  0  0
    2.8865   -1.7077    3.4664 H   0  0  0  0  0  0  0  0  0  0  0  0
    1.8870   -3.7347    0.5371 H   0  0  0  0  0  0  0  0  0  0  0  0
    2.8054   -2.4335   -0.2264 H   0  0  0  0  0  0  0  0  0  0  0  0
    1.0227   -2.4740   -0.3387 H   0  0  0  0  0  0  0  0  0  0  0  0
    1.0025    2.5706    1.5793 N   0  0  0  0  0  0  0  0  0  0  0  0
    0.7908    4.0065    1.8580 C   0  0  2  0  0  0  0  0  0  0  0  0
   -0.4212    4.3304    2.7621 C   0  0  0  0  0  0  0  0  0  0  0  0
   -0.2624    5.0375    3.7485 O   0  0  0  0  0  0  0  0  0  0  0  0
    0.7318    4.8157    0.5547 C   0  0  0  0  0  0  0  0  0  0  0  0
    1.9014    2.1761    1.8446 H   0  0  0  0  0  0  0  0  0  0  0  0
    1.6724    4.3530    2.4073 H   0  0  0  0  0  0  0  0  0  0  0  0
   -0.1808    4.5979   -0.0075 H   0  0  0  0  0  0  0  0  0  0  0  0
    0.7458    5.8871    0.7784 H   0  0  0  0  0  0  0  0  0  0  0  0
    1.5943    4.5827   -0.0769 H   0  0  0  0  0  0  0  0  0  0  0  0
   -1.6834    3.8526    2.4730 N   0  0  0  0  0  0  0  0  0  0  0  0
   -2.8661    4.1273    3.2764 C   0  0  0  0  0  0  0  0  0  0  0  0
   -1.7620    3.2584    1.6433 H   0  0  0  0  0  0  0  0  0  0  0  0
   -3.0516    5.2052    3.3290 H   0  0  0  0  0  0  0  0  0  0  0  0
   -3.7429    3.6468    2.8319 H   0  0  0  0  0  0  0  0  0  0  0  0
   -2.7367    3.7413    4.2928 H   0  0  0  0  0  0  0  0  0  0  0  0
  1  2  2  0  0  0  0
  1  3  1  0  0  0  0
  1  7  1  0  0  0  0
  3  4  1  0  0  0  0
  3  5  1  0  0  0  0
  3  6  1  0  0  0  0
  7  8  1  0  0  0  0
  7 12  1  0  0  0  0
  8  9  1  0  0  0  0
  8 11  1  0  0  0  0
  8 13  1  0  0  0  0
  9 10  2  0  0  0  0
  9 17  1  0  0  0  0
 11 14  1  0  0  0  0
 11 15  1  0  0  0  0
 11 16  1  0  0  0  0
 17 18  1  0  0  0  0
 17 25  1  0  0  0  0
 18 19  1  0  0  0  0
 18 21  1  0  0  0  0
 18 26  1  0  0  0  0
 19 20  2  0  0  0  0
 19 36  1  0  0  0  0
 21 22  1  0  0  0  0
 21 27  1  0  0  0  0
 21 28  1  0  0  0  0
 22 23  1  0  0  0  0
 22 24  1  0  0  0  0
 22 29  1  0  0  0  0
 23 30  1  0  0  0  0
 23 31  1  0  0  0  0
 23 32  1  0  0  0  0
 24 33  1  0  0  0  0
 24 34  1  0  0  0  0
 24 35  1  0  0  0  0
 36 37  1  0  0  0  0
 36 41  1  0  0  0  0
 37 38  1  0  0  0  0
 37 40  1  0  0  0  0
 37 42  1  0  0  0  0
 38 39  2  0  0  0  0
 38 46  1  0  0  0  0
 40 43  1  0  0  0  0
 40 44  1  0  0  0  0
 40 45  1  0  0  0  0
 46 47  1  0  0  0  0
 46 48  1  0  0  0  0
 47 49  1  0  0  0  0
 47 50  1  0  0  0  0
 47 51  1  0  0  0  0
M  END
$$$$

  -OEChem-05262216553D

 51 50  0     1  0  0  0  0  0999 V2000
    2.4340   -2.9429   -3.4162 C   0  0  0  0  0  0  0  0  0  0  0  0
    1.4193   -3.3378   -2.8666 O   0  0  0  0  0  0  0  0  0  0  0  0
    3.5509   -3.9241   -3.7167 C   0  0  0  0  0  0  0  0  0  0  0  0
    4.4502   -3.6463   -3.1615 H   0  0  0  0  0  0  0  0  0  0  0  0
    3.2545   -4.9347   -3.4223 H   0  0  0  0  0  0  0  0  0  0  0  0
    3.7740   -3.9206   -4.7862 H   0  0  0  0  0  0  0  0  0  0  0  0
    2.5983   -1.6118   -3.7495 N   0  0  0  0  0  0  0  0  0  0  0  0
    1.7264   -0.5114   -3.2978 C   0  0  2  0  0  0  0  0  0  0  0  0
    1.8477   -0.2472   -1.7766 C   0  0  0  0  0  0  0  0  0  0  0  0
    2.9678   -0.0937   -1.3065 O   0  0  0  0  0  0  0  0  0  0  0  0
    0.2762   -0.6953   -3.7820 C   0  0  0  0  0  0  0  0  0  0  0  0
    3.5390   -1.3582   -4.0383 H   0  0  0  0  0  0  0  0  0  0  0  0
    2.0922    0.3997   -3.7810 H   0  0  0  0  0  0  0  0  0  0  0  0
   -0.2380   -1.4798   -3.2189 H   0  0  0  0  0  0  0  0  0  0  0  0
   -0.2851    0.2365   -3.6620 H   0  0  0  0  0  0  0  0  0  0  0  0
    0.2644   -0.9666   -4.8422 H   0  0  0  0  0  0  0  0  0  0  0  0
    0.7413    0.1040   -1.0210 N   0  0  0  0  0  0  0  0  0  0  0  0
    0.6415    0.3051    0.4414 C   0  0  2  0  0  0  0  0  0  0  0  0
    0.2002    1.7485    0.7405 C   0  0  0  0  0  0  0  0  0  0  0  0
   -0.9599    2.0765    0.5225 O   0  0  0  0  0  0  0  0  0  0  0  0
    1.6966   -0.2577    1.4356 C   0  0  0  0  0  0  0  0  0  0  0  0
    1.8030   -1.8012    1.5799 C   0  0  0  0  0  0  0  0  0  0  0  0
    2.9955   -2.1278    2.4872 C   0  0  0  0  0  0  0  0  0  0  0  0
    1.9196   -2.6352    0.3028 C   0  0  0  0  0  0  0  0  0  0  0  0
   -0.1440    0.0362   -1.5166 H   0  0  0  0  0  0  0  0  0  0  0  0
   -0.2439   -0.2790    0.7121 H   0  0  0  0  0  0  0  0  0  0  0  0
    1.4626    0.1378    2.4300 H   0  0  0  0  0  0  0  0  0  0  0  0
    2.6785    0.1403    1.1635 H   0  0  0  0  0  0  0  0  0  0  0  0
    0.8909   -2.1354    2.0857 H   0  0  0  0  0  0  0  0  0  0  0  0
    3.9338   -1.8165    2.0169 H   0  0  0  0  0  0  0  0  0  0  0  0
    3.0456   -3.2036    2.6818 H   0  0  0  0  0  0  0  0  0  0  0  0
    2.8995   -1.6121    3.4476 H   0  0  0  0  0  0  0  0  0  0  0  0
    1.9457   -3.7004    0.5517 H   0  0  0  0  0  0  0  0  0  0  0  0
    2.8371   -2.3978   -0.2409 H   0  0  0  0  0  0  0  0  0  0  0  0
    1.0544   -2.4720   -0.3439 H   0  0  0  0  0  0  0  0  0  0  0  0
    1.1204    2.6719    1.2091 N   0  0  0  0  0  0  0  0  0  0  0  0
    0.9115    4.1200    1.4164 C   0  0  2  0  0  0  0  0  0  0  0  0
   -0.0652    4.4879    2.5577 C   0  0  0  0  0  0  0  0  0  0  0  0
    0.2725    5.3153    3.3944 O   0  0  0  0  0  0  0  0  0  0  0  0
    0.5024    4.8081    0.1068 C   0  0  0  0  0  0  0  0  0  0  0  0
    2.0742    2.3256    1.2824 H   0  0  0  0  0  0  0  0  0  0  0  0
    1.8804    4.5395    1.7074 H   0  0  0  0  0  0  0  0  0  0  0  0
   -0.5036    4.5094   -0.2013 H   0  0  0  0  0  0  0  0  0  0  0  0
    0.5088    5.8948    0.2373 H   0  0  0  0  0  0  0  0  0  0  0  0
    1.2030    4.5505   -0.6932 H   0  0  0  0  0  0  0  0  0  0  0  0
   -1.3186    3.9160    2.6449 N   0  0  0  0  0  0  0  0  0  0  0  0
   -2.2939    4.2351    3.6776 C   0  0  0  0  0  0  0  0  0  0  0  0
   -1.5596    3.2425    1.9129 H   0  0  0  0  0  0  0  0  0  0  0  0
   -2.5449    5.3007    3.6511 H   0  0  0  0  0  0  0  0  0  0  0  0
   -3.2109    3.6594    3.5200 H   0  0  0  0  0  0  0  0  0  0  0  0
   -1.8961    3.9894    4.6676 H   0  0  0  0  0  0  0  0  0  0  0  0
  1  2  2  0  0  0  0
  1  3  1  0  0  0  0
  1  7  1  0  0  0  0
  3  4  1  0  0  0  0
  3  5  1  0  0  0  0
  3  6  1  0  0  0  0
  7  8  1  0  0  0  0
  7 12  1  0  0  0  0
  8  9  1  0  0  0  0
  8 11  1  0  0  0  0
  8 13  1  0  0  0  0
  9 10  2  0  0  0  0
  9 17  1  0  0  0  0
 11 14  1  0  0  0  0
 11 15  1  0  0  0  0
 11 16  1  0  0  0  0
 17 18  1  0  0  0  0
 17 25  1  0  0  0  0
 18 19  1  0  0  0  0
 18 21  1  0  0  0  0
 18 26  1  0  0  0  0
 19 20  2  0  0  0  0
 19 36  1  0  0  0  0
 21 22  1  0  0  0  0
 21 27  1  0  0  0  0
 21 28  1  0  0  0  0
 22 23  1  0  0  0  0
 22 24  1  0  0  0  0
 22 29  1  0  0  0  0
 23 30  1  0  0  0  0
 23 31  1  0  0  0  0
 23 32  1  0  0  0  0
 24 33  1  0  0  0  0
 24 34  1  0  0  0  0
 24 35  1  0  0  0  0
 36 37  1  0  0  0  0
 36 41  1  0  0  0  0
 37 38  1  0  0  0  0
 37 40  1  0  0  0  0
 37 42  1  0  0  0  0
 38 39  2  0  0  0  0
 38 46  1  0  0  0  0
 40 43  1  0  0  0  0
 40 44  1  0  0  0  0
 40 45  1  0  0  0  0
 46 47  1  0  0  0  0
 46 48  1  0  0  0  0
 47 49  1  0  0  0  0
 47 50  1  0  0  0  0
 47 51  1  0  0  0  0
M  END
$$$$

  -OEChem-05262216553D

 51 50  0     1  0  0  0  0  0999 V2000
    2.5896   -3.0029   -3.3784 C   0  0  0  0  0  0  0  0  0  0  0  0
    1.6233   -3.4748   -2.8031 O   0  0  0  0  0  0  0  0  0  0  0  0
    3.7892   -3.8850   -3.6674 C   0  0  0  0  0  0  0  0  0  0  0  0
    4.6767   -3.4819   -3.1731 H   0  0  0  0  0  0  0  0  0  0  0  0
    3.6103   -4.8982   -3.2962 H   0  0  0  0  0  0  0  0  0  0  0  0
    3.9679   -3.9316   -4.7444 H   0  0  0  0  0  0  0  0  0  0  0  0
    2.6218   -1.6743   -3.7579 N   0  0  0  0  0  0  0  0  0  0  0  0
    1.6523   -0.6452   -3.3373 C   0  0  2  0  0  0  0  0  0  0  0  0
    1.7770   -0.2897   -1.8352 C   0  0  0  0  0  0  0  0  0  0  0  0
    2.8916   -0.0524   -1.3873 O   0  0  0  0  0  0  0  0  0  0  0  0
    0.2177   -0.9991   -3.7704 C   0  0  0  0  0  0  0  0  0  0  0  0
    3.5308   -1.3428   -4.0682 H   0  0  0  0  0  0  0  0  0  0  0  0
    1.9136    0.2714   -3.8753 H   0  0  0  0  0  0  0  0  0  0  0  0
   -0.2093   -1.7824   -3.1371 H   0  0  0  0  0  0  0  0  0  0  0  0
   -0.4275   -0.1176   -3.7064 H   0  0  0  0  0  0  0  0  0  0  0  0
    0.2134   -1.3516   -4.8065 H   0  0  0  0  0  0  0  0  0  0  0  0
    0.6676    0.0758   -1.0912 N   0  0  0  0  0  0  0  0  0  0  0  0
    0.5777    0.3145    0.3665 C   0  0  2  0  0  0  0  0  0  0  0  0
    0.1329    1.7621    0.6284 C   0  0  0  0  0  0  0  0  0  0  0  0
   -1.0597    2.0313    0.6996 O   0  0  0  0  0  0  0  0  0  0  0  0
    1.6494   -0.1936    1.3711 C   0  0  0  0  0  0  0  0  0  0  0  0
    1.7949   -1.7284    1.5641 C   0  0  0  0  0  0  0  0  0  0  0  0
    2.9997   -1.9936    2.4757 C   0  0  0  0  0  0  0  0  0  0  0  0
    1.9345   -2.5934    0.3104 C   0  0  0  0  0  0  0  0  0  0  0  0
   -0.2188   -0.0722   -1.5667 H   0  0  0  0  0  0  0  0  0  0  0  0
   -0.2976   -0.2733    0.6628 H   0  0  0  0  0  0  0  0  0  0  0  0
    1.4120    0.2306    2.3529 H   0  0  0  0  0  0  0  0  0  0  0  0
    2.6203    0.2181    1.0814 H   0  0  0  0  0  0  0  0  0  0  0  0
    0.8935   -2.0729    2.0821 H   0  0  0  0  0  0  0  0  0  0  0  0
    3.9266   -1.6595    1.9981 H   0  0  0  0  0  0  0  0  0  0  0  0
    3.0881   -3.0625    2.6940 H   0  0  0  0  0  0  0  0  0  0  0  0
    2.8855   -1.4607    3.4248 H   0  0  0  0  0  0  0  0  0  0  0  0
    1.9990   -3.6501    0.5872 H   0  0  0  0  0  0  0  0  0  0  0  0
    2.8410   -2.3379   -0.2438 H   0  0  0  0  0  0  0  0  0  0  0  0
    1.0617   -2.4791   -0.3367 H   0  0  0  0  0  0  0  0  0  0  0  0
    1.0956    2.7488    0.7555 N   0  0  0  0  0  0  0  0  0  0  0  0
    0.8781    4.2035    0.8980 C   0  0  2  0  0  0  0  0  0  0  0  0
    0.2257    4.6422    2.2296 C   0  0  0  0  0  0  0  0  0  0  0  0
    0.7142    5.5706    2.8604 O   0  0  0  0  0  0  0  0  0  0  0  0
    0.0996    4.7637   -0.3004 C   0  0  0  0  0  0  0  0  0  0  0  0
    2.0517    2.4309    0.6077 H   0  0  0  0  0  0  0  0  0  0  0  0
    1.8672    4.6728    0.8825 H   0  0  0  0  0  0  0  0  0  0  0  0
   -0.9373    4.4152   -0.2977 H   0  0  0  0  0  0  0  0  0  0  0  0
    0.0907    5.8577   -0.2627 H   0  0  0  0  0  0  0  0  0  0  0  0
    0.5703    4.4543   -1.2383 H   0  0  0  0  0  0  0  0  0  0  0  0
   -0.9073    4.0211    2.7155 N   0  0  0  0  0  0  0  0  0  0  0  0
   -1.5917    4.4097    3.9405 C   0  0  0  0  0  0  0  0  0  0  0  0
   -1.2986    3.2764    2.1325 H   0  0  0  0  0  0  0  0  0  0  0  0
   -1.9297    5.4491    3.8767 H   0  0  0  0  0  0  0  0  0  0  0  0
   -2.4652    3.7711    4.1032 H   0  0  0  0  0  0  0  0  0  0  0  0
   -0.9230    4.3074    4.8014 H   0  0  0  0  0  0  0  0  0  0  0  0
  1  2  2  0  0  0  0
  1  3  1  0  0  0  0
  1  7  1  0  0  0  0
  3  4  1  0  0  0  0
  3  5  1  0  0  0  0
  3  6  1  0  0  0  0
  7  8  1  0  0  0  0
  7 12  1  0  0  0  0
  8  9  1  0  0  0  0
  8 11  1  0  0  0  0
  8 13  1  0  0  0  0
  9 10  2  0  0  0  0
  9 17  1  0  0  0  0
 11 14  1  0  0  0  0
 11 15  1  0  0  0  0
 11 16  1  0  0  0  0
 17 18  1  0  0  0  0
 17 25  1  0  0  0  0
 18 19  1  0  0  0  0
 18 21  1  0  0  0  0
 18 26  1  0  0  0  0
 19 20  2  0  0  0  0
 19 36  1  0  0  0  0
 21 22  1  0  0  0  0
 21 27  1  0  0  0  0
 21 28  1  0  0  0  0
 22 23  1  0  0  0  0
 22 24  1  0  0  0  0
 22 29  1  0  0  0  0
 23 30  1  0  0  0  0
 23 31  1  0  0  0  0
 23 32  1  0  0  0  0
 24 33  1  0  0  0  0
 24 34  1  0  0  0  0
 24 35  1  0  0  0  0
 36 37  1  0  0  0  0
 36 41  1  0  0  0  0
 37 38  1  0  0  0  0
 37 40  1  0  0  0  0
 37 42  1  0  0  0  0
 38 39  2  0  0  0  0
 38 46  1  0  0  0  0
 40 43  1  0  0  0  0
 40 44  1  0  0  0  0
 40 45  1  0  0  0  0
 46 47  1  0  0  0  0
 46 48  1  0  0  0  0
 47 49  1  0  0  0  0
 47 50  1  0  0  0  0
 47 51  1  0  0  0  0
M  END
$$$$

  -OEChem-05262216553D

 51 50  0     1  0  0  0  0  0999 V2000
    2.5947   -3.0842   -3.3084 C   0  0  0  0  0  0  0  0  0  0  0  0
    1.6238   -3.5476   -2.7341 O   0  0  0  0  0  0  0  0  0  0  0  0
    3.8137   -3.9571   -3.5374 C   0  0  0  0  0  0  0  0  0  0  0  0
    4.6790   -3.5328   -3.0221 H   0  0  0  0  0  0  0  0  0  0  0  0
    3.6342   -4.9647   -3.1516 H   0  0  0  0  0  0  0  0  0  0  0  0
    4.0296   -4.0227   -4.6064 H   0  0  0  0  0  0  0  0  0  0  0  0
    2.6176   -1.7697   -3.7347 N   0  0  0  0  0  0  0  0  0  0  0  0
    1.6317   -0.7356   -3.3695 C   0  0  2  0  0  0  0  0  0  0  0  0
    1.7536   -0.3028   -1.8882 C   0  0  0  0  0  0  0  0  0  0  0  0
    2.8547    0.0370   -1.4753 O   0  0  0  0  0  0  0  0  0  0  0  0
    0.2015   -1.1255   -3.7861 C   0  0  0  0  0  0  0  0  0  0  0  0
    3.5270   -1.4392   -4.0452 H   0  0  0  0  0  0  0  0  0  0  0  0
    1.8815    0.1556   -3.9535 H   0  0  0  0  0  0  0  0  0  0  0  0
   -0.2176   -1.8860   -3.1206 H   0  0  0  0  0  0  0  0  0  0  0  0
   -0.4530   -0.2490   -3.7596 H   0  0  0  0  0  0  0  0  0  0  0  0
    0.2017   -1.5214   -4.8065 H   0  0  0  0  0  0  0  0  0  0  0  0
    0.6376    0.0260   -1.1382 N   0  0  0  0  0  0  0  0  0  0  0  0
    0.5610    0.2926    0.3169 C   0  0  2  0  0  0  0  0  0  0  0  0
    0.0536    1.7225    0.5518 C   0  0  0  0  0  0  0  0  0  0  0  0
   -1.0947    1.9206    0.9270 O   0  0  0  0  0  0  0  0  0  0  0  0
    1.6799   -0.1189    1.3139 C   0  0  0  0  0  0  0  0  0  0  0  0
    1.9319   -1.6346    1.5435 C   0  0  0  0  0  0  0  0  0  0  0  0
    3.1663   -1.7956    2.4395 C   0  0  0  0  0  0  0  0  0  0  0  0
    2.1089   -2.5211    0.3107 C   0  0  0  0  0  0  0  0  0  0  0  0
   -0.2421   -0.2217   -1.5840 H   0  0  0  0  0  0  0  0  0  0  0  0
   -0.2751   -0.3349    0.6441 H   0  0  0  0  0  0  0  0  0  0  0  0
    1.4303    0.3146    2.2884 H   0  0  0  0  0  0  0  0  0  0  0  0
    2.6161    0.3504    0.9974 H   0  0  0  0  0  0  0  0  0  0  0  0
    1.0637   -2.0240    2.0862 H   0  0  0  0  0  0  0  0  0  0  0  0
    4.0630   -1.4275    1.9305 H   0  0  0  0  0  0  0  0  0  0  0  0
    3.3199   -2.8488    2.6950 H   0  0  0  0  0  0  0  0  0  0  0  0
    3.0396   -1.2347    3.3705 H   0  0  0  0  0  0  0  0  0  0  0  0
    2.2551   -3.5626    0.6131 H   0  0  0  0  0  0  0  0  0  0  0  0
    2.9827   -2.2165   -0.2704 H   0  0  0  0  0  0  0  0  0  0  0  0
    1.2161   -2.4862   -0.3174 H   0  0  0  0  0  0  0  0  0  0  0  0
    0.9264    2.7722    0.3251 N   0  0  0  0  0  0  0  0  0  0  0  0
    0.6311    4.2184    0.3828 C   0  0  2  0  0  0  0  0  0  0  0  0
    0.3167    4.7701    1.7926 C   0  0  0  0  0  0  0  0  0  0  0  0
    0.8621    5.7991    2.1700 O   0  0  0  0  0  0  0  0  0  0  0  0
   -0.4820    4.5885   -0.6068 C   0  0  0  0  0  0  0  0  0  0  0  0
    1.8448    2.4926   -0.0170 H   0  0  0  0  0  0  0  0  0  0  0  0
    1.5370    4.7386    0.0543 H   0  0  0  0  0  0  0  0  0  0  0  0
   -1.4462    4.1801   -0.2902 H   0  0  0  0  0  0  0  0  0  0  0  0
   -0.5788    5.6768   -0.6719 H   0  0  0  0  0  0  0  0  0  0  0  0
   -0.2492    4.2012   -1.6032 H   0  0  0  0  0  0  0  0  0  0  0  0
   -0.5820    4.1392    2.6291 N   0  0  0  0  0  0  0  0  0  0  0  0
   -0.9424    4.6230    3.9541 C   0  0  0  0  0  0  0  0  0  0  0  0
   -1.0403    3.3046    2.2535 H   0  0  0  0  0  0  0  0  0  0  0  0
   -1.3938    5.6182    3.8887 H   0  0  0  0  0  0  0  0  0  0  0  0
   -1.6645    3.9451    4.4188 H   0  0  0  0  0  0  0  0  0  0  0  0
   -0.0565    4.6778    4.5954 H   0  0  0  0  0  0  0  0  0  0  0  0
  1  2  2  0  0  0  0
  1  3  1  0  0  0  0
  1  7  1  0  0  0  0
  3  4  1  0  0  0  0
  3  5  1  0  0  0  0
  3  6  1  0  0  0  0
  7  8  1  0  0  0  0
  7 12  1  0  0  0  0
  8  9  1  0  0  0  0
  8 11  1  0  0  0  0
  8 13  1  0  0  0  0
  9 10  2  0  0  0  0
  9 17  1  0  0  0  0
 11 14  1  0  0  0  0
 11 15  1  0  0  0  0
 11 16  1  0  0  0  0
 17 18  1  0  0  0  0
 17 25  1  0  0  0  0
 18 19  1  0  0  0  0
 18 21  1  0  0  0  0
 18 26  1  0  0  0  0
 19 20  2  0  0  0  0
 19 36  1  0  0  0  0
 21 22  1  0  0  0  0
 21 27  1  0  0  0  0
 21 28  1  0  0  0  0
 22 23  1  0  0  0  0
 22 24  1  0  0  0  0
 22 29  1  0  0  0  0
 23 30  1  0  0  0  0
 23 31  1  0  0  0  0
 23 32  1  0  0  0  0
 24 33  1  0  0  0  0
 24 34  1  0  0  0  0
 24 35  1  0  0  0  0
 36 37  1  0  0  0  0
 36 41  1  0  0  0  0
 37 38  1  0  0  0  0
 37 40  1  0  0  0  0
 37 42  1  0  0  0  0
 38 39  2  0  0  0  0
 38 46  1  0  0  0  0
 40 43  1  0  0  0  0
 40 44  1  0  0  0  0
 40 45  1  0  0  0  0
 46 47  1  0  0  0  0
 46 48  1  0  0  0  0
 47 49  1  0  0  0  0
 47 50  1  0  0  0  0
 47 51  1  0  0  0  0
M  END
$$$$

  -OEChem-05262216553D

 51 50  0     1  0  0  0  0  0999 V2000
    2.7633   -3.0969   -3.3002 C   0  0  0  0  0  0  0  0  0  0  0  0
    1.8764   -3.6694   -2.6896 O   0  0  0  0  0  0  0  0  0  0  0  0
    4.0877   -3.8015   -3.5255 C   0  0  0  0  0  0  0  0  0  0  0  0
    4.8919   -3.2487   -3.0329 H   0  0  0  0  0  0  0  0  0  0  0  0
    4.0527   -4.8135   -3.1119 H   0  0  0  0  0  0  0  0  0  0  0  0
    4.2992   -3.8665   -4.5955 H   0  0  0  0  0  0  0  0  0  0  0  0
    2.6004   -1.8067   -3.7693 N   0  0  0  0  0  0  0  0  0  0  0  0
    1.5046   -0.8915   -3.3958 C   0  0  2  0  0  0  0  0  0  0  0  0
    1.6428   -0.3639   -1.9463 C   0  0  0  0  0  0  0  0  0  0  0  0
    2.7370    0.0377   -1.5729 O   0  0  0  0  0  0  0  0  0  0  0  0
    0.1172   -1.4863   -3.7009 C   0  0  0  0  0  0  0  0  0  0  0  0
    3.4561   -1.3715   -4.1032 H   0  0  0  0  0  0  0  0  0  0  0  0
    1.6027   -0.0115   -4.0388 H   0  0  0  0  0  0  0  0  0  0  0  0
   -0.1691   -2.2352   -2.9564 H   0  0  0  0  0  0  0  0  0  0  0  0
   -0.6421   -0.6986   -3.7033 H   0  0  0  0  0  0  0  0  0  0  0  0
    0.1185   -1.9616   -4.6867 H   0  0  0  0  0  0  0  0  0  0  0  0
    0.5300   -0.0108   -1.2030 N   0  0  0  0  0  0  0  0  0  0  0  0
    0.4561    0.2948    0.2462 C   0  0  2  0  0  0  0  0  0  0  0  0
   -0.0444    1.7317    0.4491 C   0  0  0  0  0  0  0  0  0  0  0  0
   -1.0717    1.9492    1.0784 O   0  0  0  0  0  0  0  0  0  0  0  0
    1.5916   -0.0715    1.2408 C   0  0  0  0  0  0  0  0  0  0  0  0
    1.8783   -1.5737    1.5103 C   0  0  0  0  0  0  0  0  0  0  0  0
    3.1256   -1.6788    2.3971 C   0  0  0  0  0  0  0  0  0  0  0  0
    2.0643   -2.4928    0.3033 C   0  0  0  0  0  0  0  0  0  0  0  0
   -0.3473   -0.2965   -1.6299 H   0  0  0  0  0  0  0  0  0  0  0  0
   -0.3742   -0.3258    0.5991 H   0  0  0  0  0  0  0  0  0  0  0  0
    1.3424    0.3827    2.2063 H   0  0  0  0  0  0  0  0  0  0  0  0
    2.5146    0.4084    0.9027 H   0  0  0  0  0  0  0  0  0  0  0  0
    1.0250   -1.9657    2.0739 H   0  0  0  0  0  0  0  0  0  0  0  0
    4.0079   -1.3087    1.8648 H   0  0  0  0  0  0  0  0  0  0  0  0
    3.3055   -2.7195    2.6841 H   0  0  0  0  0  0  0  0  0  0  0  0
    2.9982   -1.0898    3.3107 H   0  0  0  0  0  0  0  0  0  0  0  0
    2.2360   -3.5212    0.6359 H   0  0  0  0  0  0  0  0  0  0  0  0
    2.9278   -2.1865   -0.2924 H   0  0  0  0  0  0  0  0  0  0  0  0
    1.1671   -2.4973   -0.3200 H   0  0  0  0  0  0  0  0  0  0  0  0
    0.7012    2.7639   -0.0923 N   0  0  0  0  0  0  0  0  0  0  0  0
    0.4113    4.2106   -0.0358 C   0  0  2  0  0  0  0  0  0  0  0  0
    0.4709    4.8339    1.3783 C   0  0  0  0  0  0  0  0  0  0  0  0
    1.1407    5.8415    1.5633 O   0  0  0  0  0  0  0  0  0  0  0  0
   -0.9291    4.5263   -0.7125 C   0  0  0  0  0  0  0  0  0  0  0  0
    1.5533    2.4675   -0.5678 H   0  0  0  0  0  0  0  0  0  0  0  0
    1.1905    4.7129   -0.6184 H   0  0  0  0  0  0  0  0  0  0  0  0
   -1.7685    4.1339   -0.1312 H   0  0  0  0  0  0  0  0  0  0  0  0
   -1.0555    5.6095   -0.8039 H   0  0  0  0  0  0  0  0  0  0  0  0
   -0.9623    4.0877   -1.7141 H   0  0  0  0  0  0  0  0  0  0  0  0
   -0.2342    4.2914    2.4342 N   0  0  0  0  0  0  0  0  0  0  0  0
   -0.2316    4.8338    3.7854 C   0  0  0  0  0  0  0  0  0  0  0  0
   -0.7759    3.4473    2.2298 H   0  0  0  0  0  0  0  0  0  0  0  0
   -0.5958    5.8665    3.7846 H   0  0  0  0  0  0  0  0  0  0  0  0
   -0.8837    4.2387    4.4319 H   0  0  0  0  0  0  0  0  0  0  0  0
    0.7808    4.8159    4.2018 H   0  0  0  0  0  0  0  0  0  0  0  0
  1  2  2  0  0  0  0
  1  3  1  0  0  0  0
  1  7  1  0  0  0  0
  3  4  1  0  0  0  0
  3  5  1  0  0  0  0
  3  6  1  0  0  0  0
  7  8  1  0  0  0  0
  7 12  1  0  0  0  0
  8  9  1  0  0  0  0
  8 11  1  0  0  0  0
  8 13  1  0  0  0  0
  9 10  2  0  0  0  0
  9 17  1  0  0  0  0
 11 14  1  0  0  0  0
 11 15  1  0  0  0  0
 11 16  1  0  0  0  0
 17 18  1  0  0  0  0
 17 25  1  0  0  0  0
 18 19  1  0  0  0  0
 18 21  1  0  0  0  0
 18 26  1  0  0  0  0
 19 20  2  0  0  0  0
 19 36  1  0  0  0  0
 21 22  1  0  0  0  0
 21 27  1  0  0  0  0
 21 28  1  0  0  0  0
 22 23  1  0  0  0  0
 22 24  1  0  0  0  0
 22 29  1  0  0  0  0
 23 30  1  0  0  0  0
 23 31  1  0  0  0  0
 23 32  1  0  0  0  0
 24 33  1  0  0  0  0
 24 34  1  0  0  0  0
 24 35  1  0  0  0  0
 36 37  1  0  0  0  0
 36 41  1  0  0  0  0
 37 38  1  0  0  0  0
 37 40  1  0  0  0  0
 37 42  1  0  0  0  0
 38 39  2  0  0  0  0
 38 46  1  0  0  0  0
 40 43  1  0  0  0  0
 40 44  1  0  0  0  0
 40 45  1  0  0  0  0
 46 47  1  0  0  0  0
 46 48  1  0  0  0  0
 47 49  1  0  0  0  0
 47 50  1  0  0  0  0
 47 51  1  0  0  0  0
M  END
$$$$

  -OEChem-05262216553D

 51 50  0     1  0  0  0  0  0999 V2000
    2.7928   -3.1074   -3.2990 C   0  0  0  0  0  0  0  0  0  0  0  0
    1.9035   -3.6904   -2.7020 O   0  0  0  0  0  0  0  0  0  0  0  0
    4.1363   -3.7869   -3.4859 C   0  0  0  0  0  0  0  0  0  0  0  0
    4.9198   -3.2060   -2.9924 H   0  0  0  0  0  0  0  0  0  0  0  0
    4.1161   -4.7900   -3.0503 H   0  0  0  0  0  0  0  0  0  0  0  0
    4.3689   -3.8705   -4.5502 H   0  0  0  0  0  0  0  0  0  0  0  0
    2.6154   -1.8252   -3.7839 N   0  0  0  0  0  0  0  0  0  0  0  0
    1.5020   -0.9234   -3.4318 C   0  0  2  0  0  0  0  0  0  0  0  0
    1.6239   -0.3766   -1.9883 C   0  0  0  0  0  0  0  0  0  0  0  0
    2.7065    0.0593   -1.6212 O   0  0  0  0  0  0  0  0  0  0  0  0
    0.1245   -1.5394   -3.7416 C   0  0  0  0  0  0  0  0  0  0  0  0
    3.4693   -1.3783   -4.1067 H   0  0  0  0  0  0  0  0  0  0  0  0
    1.5922   -0.0496   -4.0843 H   0  0  0  0  0  0  0  0  0  0  0  0
   -0.1587   -2.2848   -2.9923 H   0  0  0  0  0  0  0  0  0  0  0  0
   -0.6447   -0.7614   -3.7576 H   0  0  0  0  0  0  0  0  0  0  0  0
    0.1396   -2.0239   -4.7229 H   0  0  0  0  0  0  0  0  0  0  0  0
    0.5013   -0.0425   -1.2508 N   0  0  0  0  0  0  0  0  0  0  0  0
    0.4144    0.2760    0.1970 C   0  0  2  0  0  0  0  0  0  0  0  0
   -0.1208    1.7025    0.4004 C   0  0  0  0  0  0  0  0  0  0  0  0
   -0.9774    1.9268    1.2454 O   0  0  0  0  0  0  0  0  0  0  0  0
    1.5565   -0.0589    1.1947 C   0  0  0  0  0  0  0  0  0  0  0  0
    1.8727   -1.5531    1.4754 C   0  0  0  0  0  0  0  0  0  0  0  0
    3.1210   -1.6265    2.3635 C   0  0  0  0  0  0  0  0  0  0  0  0
    2.0758   -2.4795    0.2765 C   0  0  0  0  0  0  0  0  0  0  0  0
   -0.3645   -0.3692   -1.6720 H   0  0  0  0  0  0  0  0  0  0  0  0
   -0.4027   -0.3610    0.5519 H   0  0  0  0  0  0  0  0  0  0  0  0
    1.2998    0.3975    2.1572 H   0  0  0  0  0  0  0  0  0  0  0  0
    2.4687    0.4383    0.8515 H   0  0  0  0  0  0  0  0  0  0  0  0
    1.0272   -1.9564    2.0427 H   0  0  0  0  0  0  0  0  0  0  0  0
    3.9977   -1.2484    1.8276 H   0  0  0  0  0  0  0  0  0  0  0  0
    3.3175   -2.6604    2.6643 H   0  0  0  0  0  0  0  0  0  0  0  0
    2.9825   -1.0282    3.2696 H   0  0  0  0  0  0  0  0  0  0  0  0
    2.2684   -3.5009    0.6188 H   0  0  0  0  0  0  0  0  0  0  0  0
    2.9322   -2.1616   -0.3235 H   0  0  0  0  0  0  0  0  0  0  0  0
    1.1779   -2.5078   -0.3452 H   0  0  0  0  0  0  0  0  0  0  0  0
    0.3971    2.7198   -0.3821 N   0  0  0  0  0  0  0  0  0  0  0  0
    0.0453    4.1539   -0.3498 C   0  0  2  0  0  0  0  0  0  0  0  0
    0.4164    4.8916    0.9578 C   0  0  0  0  0  0  0  0  0  0  0  0
    1.0168    5.9566    0.8967 O   0  0  0  0  0  0  0  0  0  0  0  0
   -1.4365    4.3620   -0.6882 C   0  0  0  0  0  0  0  0  0  0  0  0
    1.1705    2.4353   -0.9816 H   0  0  0  0  0  0  0  0  0  0  0  0
    0.6248    4.6391   -1.1420 H   0  0  0  0  0  0  0  0  0  0  0  0
   -2.0821    3.9789    0.1075 H   0  0  0  0  0  0  0  0  0  0  0  0
   -1.6452    5.4294   -0.8122 H   0  0  0  0  0  0  0  0  0  0  0  0
   -1.6892    3.8493   -1.6210 H   0  0  0  0  0  0  0  0  0  0  0  0
    0.0627    4.3872    2.1932 N   0  0  0  0  0  0  0  0  0  0  0  0
    0.3494    5.0462    3.4592 C   0  0  0  0  0  0  0  0  0  0  0  0
   -0.4591    3.5066    2.1889 H   0  0  0  0  0  0  0  0  0  0  0  0
   -0.1400    6.0247    3.5002 H   0  0  0  0  0  0  0  0  0  0  0  0
   -0.0195    4.4387    4.2911 H   0  0  0  0  0  0  0  0  0  0  0  0
    1.4284    5.1851    3.5838 H   0  0  0  0  0  0  0  0  0  0  0  0
  1  2  2  0  0  0  0
  1  3  1  0  0  0  0
  1  7  1  0  0  0  0
  3  4  1  0  0  0  0
  3  5  1  0  0  0  0
  3  6  1  0  0  0  0
  7  8  1  0  0  0  0
  7 12  1  0  0  0  0
  8  9  1  0  0  0  0
  8 11  1  0  0  0  0
  8 13  1  0  0  0  0
  9 10  2  0  0  0  0
  9 17  1  0  0  0  0
 11 14  1  0  0  0  0
 11 15  1  0  0  0  0
 11 16  1  0  0  0  0
 17 18  1  0  0  0  0
 17 25  1  0  0  0  0
 18 19  1  0  0  0  0
 18 21  1  0  0  0  0
 18 26  1  0  0  0  0
 19 20  2  0  0  0  0
 19 36  1  0  0  0  0
 21 22  1  0  0  0  0
 21 27  1  0  0  0  0
 21 28  1  0  0  0  0
 22 23  1  0  0  0  0
 22 24  1  0  0  0  0
 22 29  1  0  0  0  0
 23 30  1  0  0  0  0
 23 31  1  0  0  0  0
 23 32  1  0  0  0  0
 24 33  1  0  0  0  0
 24 34  1  0  0  0  0
 24 35  1  0  0  0  0
 36 37  1  0  0  0  0
 36 41  1  0  0  0  0
 37 38  1  0  0  0  0
 37 40  1  0  0  0  0
 37 42  1  0  0  0  0
 38 39  2  0  0  0  0
 38 46  1  0  0  0  0
 40 43  1  0  0  0  0
 40 44  1  0  0  0  0
 40 45  1  0  0  0  0
 46 47  1  0  0  0  0
 46 48  1  0  0  0  0
 47 49  1  0  0  0  0
 47 50  1  0  0  0  0
 47 51  1  0  0  0  0
M  END
$$$$

  -OEChem-05262216553D

 51 50  0     1  0  0  0  0  0999 V2000
    1.1500   -2.8906   -3.0687 C   0  0  0  0  0  0  0  0  0  0  0  0
    0.1519   -2.2409   -2.7998 O   0  0  0  0  0  0  0  0  0  0  0  0
    1.0731   -4.4049   -3.1142 C   0  0  0  0  0  0  0  0  0  0  0  0
    1.7526   -4.8372   -2.3754 H   0  0  0  0  0  0  0  0  0  0  0  0
    0.0551   -4.7379   -2.8919 H   0  0  0  0  0  0  0  0  0  0  0  0
    1.3503   -4.7641   -4.1084 H   0  0  0  0  0  0  0  0  0  0  0  0
    2.3638   -2.2639   -3.2808 N   0  0  0  0  0  0  0  0  0  0  0  0
    2.6202   -0.8086   -3.3106 C   0  0  2  0  0  0  0  0  0  0  0  0
    2.4119   -0.0758   -1.9642 C   0  0  0  0  0  0  0  0  0  0  0  0
    3.2787    0.6889   -1.5691 O   0  0  0  0  0  0  0  0  0  0  0  0
    1.8175   -0.1330   -4.4314 C   0  0  0  0  0  0  0  0  0  0  0  0
    3.1502   -2.8788   -3.4732 H   0  0  0  0  0  0  0  0  0  0  0  0
    3.6795   -0.6800   -3.5576 H   0  0  0  0  0  0  0  0  0  0  0  0
    0.7446   -0.1483   -4.2185 H   0  0  0  0  0  0  0  0  0  0  0  0
    2.1292    0.9110   -4.5382 H   0  0  0  0  0  0  0  0  0  0  0  0
    1.9909   -0.6435   -5.3834 H   0  0  0  0  0  0  0  0  0  0  0  0
    1.2007   -0.1155   -1.3000 N   0  0  0  0  0  0  0  0  0  0  0  0
    0.9426    0.1348    0.1393 C   0  0  2  0  0  0  0  0  0  0  0  0
   -0.0144    1.3247    0.3365 C   0  0  0  0  0  0  0  0  0  0  0  0
   -0.7228    1.3872    1.3338 O   0  0  0  0  0  0  0  0  0  0  0  0
    2.0934    0.1137    1.1838 C   0  0  0  0  0  0  0  0  0  0  0  0
    2.8064   -1.2401    1.4572 C   0  0  0  0  0  0  0  0  0  0  0  0
    3.9900   -0.9844    2.3988 C   0  0  0  0  0  0  0  0  0  0  0  0
    3.3095   -2.0447    0.2560 C   0  0  0  0  0  0  0  0  0  0  0  0
    0.5317   -0.7419   -1.7605 H   0  0  0  0  0  0  0  0  0  0  0  0
    0.3311   -0.7223    0.4387 H   0  0  0  0  0  0  0  0  0  0  0  0
    1.6810    0.4534    2.1400 H   0  0  0  0  0  0  0  0  0  0  0  0
    2.8398    0.8579    0.8904 H   0  0  0  0  0  0  0  0  0  0  0  0
    2.0862   -1.8773    1.9817 H   0  0  0  0  0  0  0  0  0  0  0  0
    4.7479   -0.3667    1.9060 H   0  0  0  0  0  0  0  0  0  0  0  0
    4.4533   -1.9296    2.6984 H   0  0  0  0  0  0  0  0  0  0  0  0
    3.6557   -0.4677    3.3038 H   0  0  0  0  0  0  0  0  0  0  0  0
    3.7795   -2.9721    0.5979 H   0  0  0  0  0  0  0  0  0  0  0  0
    4.0553   -1.4795   -0.3093 H   0  0  0  0  0  0  0  0  0  0  0  0
    2.4788   -2.3204   -0.3973 H   0  0  0  0  0  0  0  0  0  0  0  0
   -0.0163    2.3470   -0.5962 N   0  0  0  0  0  0  0  0  0  0  0  0
   -0.8393    3.5736   -0.5952 C   0  0  2  0  0  0  0  0  0  0  0  0
   -0.5205    4.5762    0.5380 C   0  0  0  0  0  0  0  0  0  0  0  0
   -0.4219    5.7681    0.2761 O   0  0  0  0  0  0  0  0  0  0  0  0
   -2.3350    3.2302   -0.6098 C   0  0  0  0  0  0  0  0  0  0  0  0
    0.6841    2.2438   -1.3284 H   0  0  0  0  0  0  0  0  0  0  0  0
   -0.6224    4.0989   -1.5310 H   0  0  0  0  0  0  0  0  0  0  0  0
   -2.6503    2.7928    0.3420 H   0  0  0  0  0  0  0  0  0  0  0  0
   -2.9254    4.1359   -0.7802 H   0  0  0  0  0  0  0  0  0  0  0  0
   -2.5540    2.5181   -1.4110 H   0  0  0  0  0  0  0  0  0  0  0  0
   -0.3720    4.1594    1.8456 N   0  0  0  0  0  0  0  0  0  0  0  0
   -0.1271    5.0547    2.9673 C   0  0  0  0  0  0  0  0  0  0  0  0
   -0.5278    3.1629    2.0197 H   0  0  0  0  0  0  0  0  0  0  0  0
   -0.9706    5.7397    3.1019 H   0  0  0  0  0  0  0  0  0  0  0  0
    0.0024    4.4775    3.8879 H   0  0  0  0  0  0  0  0  0  0  0  0
    0.7813    5.6419    2.7977 H   0  0  0  0  0  0  0  0  0  0  0  0
  1  2  2  0  0  0  0
  1  3  1  0  0  0  0
  1  7  1  0  0  0  0
  3  4  1  0  0  0  0
  3  5  1  0  0  0  0
  3  6  1  0  0  0  0
  7  8  1  0  0  0  0
  7 12  1  0  0  0  0
  8  9  1  0  0  0  0
  8 11  1  0  0  0  0
  8 13  1  0  0  0  0
  9 10  2  0  0  0  0
  9 17  1  0  0  0  0
 11 14  1  0  0  0  0
 11 15  1  0  0  0  0
 11 16  1  0  0  0  0
 17 18  1  0  0  0  0
 17 25  1  0  0  0  0
 18 19  1  0  0  0  0
 18 21  1  0  0  0  0
 18 26  1  0  0  0  0
 19 20  2  0  0  0  0
 19 36  1  0  0  0  0
 21 22  1  0  0  0  0
 21 27  1  0  0  0  0
 21 28  1  0  0  0  0
 22 23  1  0  0  0  0
 22 24  1  0  0  0  0
 22 29  1  0  0  0  0
 23 30  1  0  0  0  0
 23 31  1  0  0  0  0
 23 32  1  0  0  0  0
 24 33  1  0  0  0  0
 24 34  1  0  0  0  0
 24 35  1  0  0  0  0
 36 37  1  0  0  0  0
 36 41  1  0  0  0  0
 37 38  1  0  0  0  0
 37 40  1  0  0  0  0
 37 42  1  0  0  0  0
 38 39  2  0  0  0  0
 38 46  1  0  0  0  0
 40 43  1  0  0  0  0
 40 44  1  0  0  0  0
 40 45  1  0  0  0  0
 46 47  1  0  0  0  0
 46 48  1  0  0  0  0
 47 49  1  0  0  0  0
 47 50  1  0  0  0  0
 47 51  1  0  0  0  0
M  END
$$$$

  -OEChem-05262216553D

 51 50  0     1  0  0  0  0  0999 V2000
    1.0436   -2.8630   -3.0676 C   0  0  0  0  0  0  0  0  0  0  0  0
    0.0710   -2.1801   -2.7869 O   0  0  0  0  0  0  0  0  0  0  0  0
    0.9134   -4.3731   -3.1222 C   0  0  0  0  0  0  0  0  0  0  0  0
    1.5596   -4.8313   -2.3694 H   0  0  0  0  0  0  0  0  0  0  0  0
   -0.1207   -4.6708   -2.9257 H   0  0  0  0  0  0  0  0  0  0  0  0
    1.2016   -4.7380   -4.1112 H   0  0  0  0  0  0  0  0  0  0  0  0
    2.2772   -2.2786   -3.2864 N   0  0  0  0  0  0  0  0  0  0  0  0
    2.5854   -0.8328   -3.3154 C   0  0  2  0  0  0  0  0  0  0  0  0
    2.4196   -0.0950   -1.9659 C   0  0  0  0  0  0  0  0  0  0  0  0
    3.3157    0.6419   -1.5853 O   0  0  0  0  0  0  0  0  0  0  0  0
    1.7935   -0.1260   -4.4244 C   0  0  0  0  0  0  0  0  0  0  0  0
    3.0387   -2.9205   -3.4907 H   0  0  0  0  0  0  0  0  0  0  0  0
    3.6456   -0.7413   -3.5748 H   0  0  0  0  0  0  0  0  0  0  0  0
    0.7232   -0.1050   -4.1991 H   0  0  0  0  0  0  0  0  0  0  0  0
    2.1400    0.9069   -4.5312 H   0  0  0  0  0  0  0  0  0  0  0  0
    1.9375   -0.6389   -5.3801 H   0  0  0  0  0  0  0  0  0  0  0  0
    1.2199   -0.1164   -1.2793 N   0  0  0  0  0  0  0  0  0  0  0  0
    0.9831    0.1519    0.1612 C   0  0  2  0  0  0  0  0  0  0  0  0
    0.0356    1.3528    0.3641 C   0  0  0  0  0  0  0  0  0  0  0  0
   -0.5025    1.5369    1.4488 O   0  0  0  0  0  0  0  0  0  0  0  0
    2.1546    0.1157    1.1843 C   0  0  0  0  0  0  0  0  0  0  0  0
    2.8451   -1.2516    1.4531 C   0  0  0  0  0  0  0  0  0  0  0  0
    4.0518   -1.0134    2.3697 C   0  0  0  0  0  0  0  0  0  0  0  0
    3.3135   -2.0732    0.2487 C   0  0  0  0  0  0  0  0  0  0  0  0
    0.5341   -0.7341   -1.7262 H   0  0  0  0  0  0  0  0  0  0  0  0
    0.3642   -0.6936    0.4779 H   0  0  0  0  0  0  0  0  0  0  0  0
    1.7720    0.4684    2.1482 H   0  0  0  0  0  0  0  0  0  0  0  0
    2.9090    0.8428    0.8705 H   0  0  0  0  0  0  0  0  0  0  0  0
    2.1223   -1.8713    1.9942 H   0  0  0  0  0  0  0  0  0  0  0  0
    4.8116   -0.4135    1.8583 H   0  0  0  0  0  0  0  0  0  0  0  0
    4.5029   -1.9655    2.6660 H   0  0  0  0  0  0  0  0  0  0  0  0
    3.7450   -0.4849    3.2776 H   0  0  0  0  0  0  0  0  0  0  0  0
    3.7668   -3.0093    0.5889 H   0  0  0  0  0  0  0  0  0  0  0  0
    4.0651   -1.5275   -0.3280 H   0  0  0  0  0  0  0  0  0  0  0  0
    2.4690   -2.3326   -0.3932 H   0  0  0  0  0  0  0  0  0  0  0  0
   -0.2188    2.2082   -0.6946 N   0  0  0  0  0  0  0  0  0  0  0  0
   -1.1513    3.3536   -0.7347 C   0  0  2  0  0  0  0  0  0  0  0  0
   -0.7720    4.5510    0.1674 C   0  0  0  0  0  0  0  0  0  0  0  0
   -0.8765    5.6891   -0.2721 O   0  0  0  0  0  0  0  0  0  0  0  0
   -2.5883    2.8981   -0.4479 C   0  0  0  0  0  0  0  0  0  0  0  0
    0.3352    2.0174   -1.5265 H   0  0  0  0  0  0  0  0  0  0  0  0
   -1.1356    3.7362   -1.7604 H   0  0  0  0  0  0  0  0  0  0  0  0
   -2.7065    2.5962    0.5970 H   0  0  0  0  0  0  0  0  0  0  0  0
   -3.2869    3.7171   -0.6470 H   0  0  0  0  0  0  0  0  0  0  0  0
   -2.8548    2.0520   -1.0882 H   0  0  0  0  0  0  0  0  0  0  0  0
   -0.3572    4.3678    1.4711 N   0  0  0  0  0  0  0  0  0  0  0  0
   -0.0718    5.4532    2.3980 C   0  0  0  0  0  0  0  0  0  0  0  0
   -0.3618    3.4026    1.8116 H   0  0  0  0  0  0  0  0  0  0  0  0
   -0.9735    6.0463    2.5818 H   0  0  0  0  0  0  0  0  0  0  0  0
    0.2796    5.0496    3.3523 H   0  0  0  0  0  0  0  0  0  0  0  0
    0.7060    6.1081    1.9922 H   0  0  0  0  0  0  0  0  0  0  0  0
  1  2  2  0  0  0  0
  1  3  1  0  0  0  0
  1  7  1  0  0  0  0
  3  4  1  0  0  0  0
  3  5  1  0  0  0  0
  3  6  1  0  0  0  0
  7  8  1  0  0  0  0
  7 12  1  0  0  0  0
  8  9  1  0  0  0  0
  8 11  1  0  0  0  0
  8 13  1  0  0  0  0
  9 10  2  0  0  0  0
  9 17  1  0  0  0  0
 11 14  1  0  0  0  0
 11 15  1  0  0  0  0
 11 16  1  0  0  0  0
 17 18  1  0  0  0  0
 17 25  1  0  0  0  0
 18 19  1  0  0  0  0
 18 21  1  0  0  0  0
 18 26  1  0  0  0  0
 19 20  2  0  0  0  0
 19 36  1  0  0  0  0
 21 22  1  0  0  0  0
 21 27  1  0  0  0  0
 21 28  1  0  0  0  0
 22 23  1  0  0  0  0
 22 24  1  0  0  0  0
 22 29  1  0  0  0  0
 23 30  1  0  0  0  0
 23 31  1  0  0  0  0
 23 32  1  0  0  0  0
 24 33  1  0  0  0  0
 24 34  1  0  0  0  0
 24 35  1  0  0  0  0
 36 37  1  0  0  0  0
 36 41  1  0  0  0  0
 37 38  1  0  0  0  0
 37 40  1  0  0  0  0
 37 42  1  0  0  0  0
 38 39  2  0  0  0  0
 38 46  1  0  0  0  0
 40 43  1  0  0  0  0
 40 44  1  0  0  0  0
 40 45  1  0  0  0  0
 46 47  1  0  0  0  0
 46 48  1  0  0  0  0
 47 49  1  0  0  0  0
 47 50  1  0  0  0  0
 47 51  1  0  0  0  0
M  END
$$$$

  -OEChem-05262216553D

 51 50  0     1  0  0  0  0  0999 V2000
    1.0570   -2.8231   -3.1020 C   0  0  0  0  0  0  0  0  0  0  0  0
    0.0757   -2.1460   -2.8371 O   0  0  0  0  0  0  0  0  0  0  0  0
    0.9328   -4.3331   -3.1704 C   0  0  0  0  0  0  0  0  0  0  0  0
    1.5439   -4.7946   -2.3906 H   0  0  0  0  0  0  0  0  0  0  0  0
   -0.1089   -4.6328   -3.0240 H   0  0  0  0  0  0  0  0  0  0  0  0
    1.2669   -4.6925   -4.1469 H   0  0  0  0  0  0  0  0  0  0  0  0
    2.2938   -2.2326   -3.2830 N   0  0  0  0  0  0  0  0  0  0  0  0
    2.5990   -0.7860   -3.2829 C   0  0  2  0  0  0  0  0  0  0  0  0
    2.4026   -0.0724   -1.9247 C   0  0  0  0  0  0  0  0  0  0  0  0
    3.2964    0.6480   -1.5092 O   0  0  0  0  0  0  0  0  0  0  0  0
    1.8293   -0.0620   -4.3969 C   0  0  0  0  0  0  0  0  0  0  0  0
    3.0635   -2.8698   -3.4711 H   0  0  0  0  0  0  0  0  0  0  0  0
    3.6643   -0.6879   -3.5182 H   0  0  0  0  0  0  0  0  0  0  0  0
    0.7548   -0.0436   -4.1929 H   0  0  0  0  0  0  0  0  0  0  0  0
    2.1777    0.9725   -4.4808 H   0  0  0  0  0  0  0  0  0  0  0  0
    1.9929   -0.5596   -5.3576 H   0  0  0  0  0  0  0  0  0  0  0  0
    1.1876   -0.1133   -1.2641 N   0  0  0  0  0  0  0  0  0  0  0  0
    0.9155    0.1460    0.1726 C   0  0  2  0  0  0  0  0  0  0  0  0
   -0.0550    1.3352    0.3617 C   0  0  0  0  0  0  0  0  0  0  0  0
   -0.4265    1.6655    1.4811 O   0  0  0  0  0  0  0  0  0  0  0  0
    2.0704    0.0968    1.2169 C   0  0  0  0  0  0  0  0  0  0  0  0
    2.7501   -1.2762    1.4853 C   0  0  0  0  0  0  0  0  0  0  0  0
    3.9420   -1.0508    2.4243 C   0  0  0  0  0  0  0  0  0  0  0  0
    3.2315   -2.0938    0.2831 C   0  0  0  0  0  0  0  0  0  0  0  0
    0.5210   -0.7375   -1.7304 H   0  0  0  0  0  0  0  0  0  0  0  0
    0.2957   -0.7058    0.4690 H   0  0  0  0  0  0  0  0  0  0  0  0
    1.6758    0.4385    2.1792 H   0  0  0  0  0  0  0  0  0  0  0  0
    2.8322    0.8253    0.9251 H   0  0  0  0  0  0  0  0  0  0  0  0
    2.0155   -1.8955    2.0111 H   0  0  0  0  0  0  0  0  0  0  0  0
    4.7105   -0.4452    1.9327 H   0  0  0  0  0  0  0  0  0  0  0  0
    4.3875   -2.0069    2.7161 H   0  0  0  0  0  0  0  0  0  0  0  0
    3.6210   -0.5333    3.3339 H   0  0  0  0  0  0  0  0  0  0  0  0
    3.6684   -3.0374    0.6244 H   0  0  0  0  0  0  0  0  0  0  0  0
    3.9988   -1.5523   -0.2764 H   0  0  0  0  0  0  0  0  0  0  0  0
    2.3963   -2.3401   -0.3759 H   0  0  0  0  0  0  0  0  0  0  0  0
   -0.5450    2.0029   -0.7490 N   0  0  0  0  0  0  0  0  0  0  0  0
   -1.5219    3.1117   -0.7853 C   0  0  2  0  0  0  0  0  0  0  0  0
   -1.0306    4.4419   -0.1692 C   0  0  0  0  0  0  0  0  0  0  0  0
   -1.2470    5.4923   -0.7599 O   0  0  0  0  0  0  0  0  0  0  0  0
   -2.8605    2.6903   -0.1645 C   0  0  0  0  0  0  0  0  0  0  0  0
   -0.1149    1.7231   -1.6271 H   0  0  0  0  0  0  0  0  0  0  0  0
   -1.7152    3.3255   -1.8415 H   0  0  0  0  0  0  0  0  0  0  0  0
   -2.7728    2.5632    0.9184 H   0  0  0  0  0  0  0  0  0  0  0  0
   -3.6186    3.4561   -0.3562 H   0  0  0  0  0  0  0  0  0  0  0  0
   -3.2023    1.7474   -0.6011 H   0  0  0  0  0  0  0  0  0  0  0  0
   -0.3741    4.4737    1.0443 N   0  0  0  0  0  0  0  0  0  0  0  0
    0.0758    5.6935    1.6989 C   0  0  0  0  0  0  0  0  0  0  0  0
   -0.2760    3.5758    1.5258 H   0  0  0  0  0  0  0  0  0  0  0  0
   -0.7794    6.3244    1.9622 H   0  0  0  0  0  0  0  0  0  0  0  0
    0.6233    5.4494    2.6142 H   0  0  0  0  0  0  0  0  0  0  0  0
    0.7422    6.2587    1.0390 H   0  0  0  0  0  0  0  0  0  0  0  0
  1  2  2  0  0  0  0
  1  3  1  0  0  0  0
  1  7  1  0  0  0  0
  3  4  1  0  0  0  0
  3  5  1  0  0  0  0
  3  6  1  0  0  0  0
  7  8  1  0  0  0  0
  7 12  1  0  0  0  0
  8  9  1  0  0  0  0
  8 11  1  0  0  0  0
  8 13  1  0  0  0  0
  9 10  2  0  0  0  0
  9 17  1  0  0  0  0
 11 14  1  0  0  0  0
 11 15  1  0  0  0  0
 11 16  1  0  0  0  0
 17 18  1  0  0  0  0
 17 25  1  0  0  0  0
 18 19  1  0  0  0  0
 18 21  1  0  0  0  0
 18 26  1  0  0  0  0
 19 20  2  0  0  0  0
 19 36  1  0  0  0  0
 21 22  1  0  0  0  0
 21 27  1  0  0  0  0
 21 28  1  0  0  0  0
 22 23  1  0  0  0  0
 22 24  1  0  0  0  0
 22 29  1  0  0  0  0
 23 30  1  0  0  0  0
 23 31  1  0  0  0  0
 23 32  1  0  0  0  0
 24 33  1  0  0  0  0
 24 34  1  0  0  0  0
 24 35  1  0  0  0  0
 36 37  1  0  0  0  0
 36 41  1  0  0  0  0
 37 38  1  0  0  0  0
 37 40  1  0  0  0  0
 37 42  1  0  0  0  0
 38 39  2  0  0  0  0
 38 46  1  0  0  0  0
 40 43  1  0  0  0  0
 40 44  1  0  0  0  0
 40 45  1  0  0  0  0
 46 47  1  0  0  0  0
 46 48  1  0  0  0  0
 47 49  1  0  0  0  0
 47 50  1  0  0  0  0
 47 51  1  0  0  0  0
M  END
$$$$

  -OEChem-05262216553D

 51 50  0     1  0  0  0  0  0999 V2000
    1.0300   -2.7402   -3.1406 C   0  0  0  0  0  0  0  0  0  0  0  0
    0.0618   -2.0442   -2.8757 O   0  0  0  0  0  0  0  0  0  0  0  0
    0.8628   -4.2419   -3.2741 C   0  0  0  0  0  0  0  0  0  0  0  0
    1.4465   -4.7541   -2.5052 H   0  0  0  0  0  0  0  0  0  0  0  0
   -0.1895   -4.5167   -3.1575 H   0  0  0  0  0  0  0  0  0  0  0  0
    1.2029   -4.5701   -4.2593 H   0  0  0  0  0  0  0  0  0  0  0  0
    2.2881   -2.1811   -3.2680 N   0  0  0  0  0  0  0  0  0  0  0  0
    2.6341   -0.7433   -3.2349 C   0  0  2  0  0  0  0  0  0  0  0  0
    2.4252   -0.0419   -1.8718 C   0  0  0  0  0  0  0  0  0  0  0  0
    3.3205    0.6633   -1.4337 O   0  0  0  0  0  0  0  0  0  0  0  0
    1.9138    0.0196   -4.3558 C   0  0  0  0  0  0  0  0  0  0  0  0
    3.0415   -2.8347   -3.4656 H   0  0  0  0  0  0  0  0  0  0  0  0
    3.7072   -0.6727   -3.4423 H   0  0  0  0  0  0  0  0  0  0  0  0
    0.8347    0.0594   -4.1817 H   0  0  0  0  0  0  0  0  0  0  0  0
    2.2884    1.0470   -4.4093 H   0  0  0  0  0  0  0  0  0  0  0  0
    2.0934   -0.4630   -5.3213 H   0  0  0  0  0  0  0  0  0  0  0  0
    1.2019   -0.0920   -1.2274 N   0  0  0  0  0  0  0  0  0  0  0  0
    0.9053    0.1567    0.2057 C   0  0  2  0  0  0  0  0  0  0  0  0
   -0.0758    1.3419    0.3776 C   0  0  0  0  0  0  0  0  0  0  0  0
   -0.2959    1.8272    1.4803 O   0  0  0  0  0  0  0  0  0  0  0  0
    2.0432    0.0911    1.2687 C   0  0  0  0  0  0  0  0  0  0  0  0
    2.7082   -1.2901    1.5329 C   0  0  0  0  0  0  0  0  0  0  0  0
    3.8865   -1.0834    2.4934 C   0  0  0  0  0  0  0  0  0  0  0  0
    3.2025   -2.0956    0.3276 C   0  0  0  0  0  0  0  0  0  0  0  0
    0.5433   -0.7098   -1.7115 H   0  0  0  0  0  0  0  0  0  0  0  0
    0.2805   -0.6967    0.4855 H   0  0  0  0  0  0  0  0  0  0  0  0
    1.6356    0.4223    2.2293 H   0  0  0  0  0  0  0  0  0  0  0  0
    2.8136    0.8186    0.9979 H   0  0  0  0  0  0  0  0  0  0  0  0
    1.9615   -1.9108    2.0395 H   0  0  0  0  0  0  0  0  0  0  0  0
    4.6653   -0.4749    2.0223 H   0  0  0  0  0  0  0  0  0  0  0  0
    4.3231   -2.0451    2.7800 H   0  0  0  0  0  0  0  0  0  0  0  0
    3.5534   -0.5760    3.4042 H   0  0  0  0  0  0  0  0  0  0  0  0
    3.6341   -3.0434    0.6634 H   0  0  0  0  0  0  0  0  0  0  0  0
    3.9772   -1.5494   -0.2166 H   0  0  0  0  0  0  0  0  0  0  0  0
    2.3747   -2.3328   -0.3441 H   0  0  0  0  0  0  0  0  0  0  0  0
   -0.7836    1.8026   -0.7214 N   0  0  0  0  0  0  0  0  0  0  0  0
   -1.8436    2.8320   -0.7535 C   0  0  2  0  0  0  0  0  0  0  0  0
   -1.3801    4.2693   -0.4212 C   0  0  0  0  0  0  0  0  0  0  0  0
   -1.7666    5.1988   -1.1180 O   0  0  0  0  0  0  0  0  0  0  0  0
   -3.0312    2.4274    0.1308 C   0  0  0  0  0  0  0  0  0  0  0  0
   -0.4809    1.4122   -1.6099 H   0  0  0  0  0  0  0  0  0  0  0  0
   -2.2134    2.8688   -1.7831 H   0  0  0  0  0  0  0  0  0  0  0  0
   -2.7703    2.4750    1.1920 H   0  0  0  0  0  0  0  0  0  0  0  0
   -3.8739    3.1041   -0.0419 H   0  0  0  0  0  0  0  0  0  0  0  0
   -3.3519    1.4082   -0.1045 H   0  0  0  0  0  0  0  0  0  0  0  0
   -0.5637    4.5315    0.6601 N   0  0  0  0  0  0  0  0  0  0  0  0
   -0.1465    5.8659    1.0660 C   0  0  0  0  0  0  0  0  0  0  0  0
   -0.3166    3.7265    1.2422 H   0  0  0  0  0  0  0  0  0  0  0  0
   -1.0142    6.4622    1.3662 H   0  0  0  0  0  0  0  0  0  0  0  0
    0.5424    5.8027    1.9139 H   0  0  0  0  0  0  0  0  0  0  0  0
    0.3651    6.3754    0.2426 H   0  0  0  0  0  0  0  0  0  0  0  0
  1  2  2  0  0  0  0
  1  3  1  0  0  0  0
  1  7  1  0  0  0  0
  3  4  1  0  0  0  0
  3  5  1  0  0  0  0
  3  6  1  0  0  0  0
  7  8  1  0  0  0  0
  7 12  1  0  0  0  0
  8  9  1  0  0  0  0
  8 11  1  0  0  0  0
  8 13  1  0  0  0  0
  9 10  2  0  0  0  0
  9 17  1  0  0  0  0
 11 14  1  0  0  0  0
 11 15  1  0  0  0  0
 11 16  1  0  0  0  0
 17 18  1  0  0  0  0
 17 25  1  0  0  0  0
 18 19  1  0  0  0  0
 18 21  1  0  0  0  0
 18 26  1  0  0  0  0
 19 20  2  0  0  0  0
 19 36  1  0  0  0  0
 21 22  1  0  0  0  0
 21 27  1  0  0  0  0
 21 28  1  0  0  0  0
 22 23  1  0  0  0  0
 22 24  1  0  0  0  0
 22 29  1  0  0  0  0
 23 30  1  0  0  0  0
 23 31  1  0  0  0  0
 23 32  1  0  0  0  0
 24 33  1  0  0  0  0
 24 34  1  0  0  0  0
 24 35  1  0  0  0  0
 36 37  1  0  0  0  0
 36 41  1  0  0  0  0
 37 38  1  0  0  0  0
 37 40  1  0  0  0  0
 37 42  1  0  0  0  0
 38 39  2  0  0  0  0
 38 46  1  0  0  0  0
 40 43  1  0  0  0  0
 40 44  1  0  0  0  0
 40 45  1  0  0  0  0
 46 47  1  0  0  0  0
 46 48  1  0  0  0  0
 47 49  1  0  0  0  0
 47 50  1  0  0  0  0
 47 51  1  0  0  0  0
M  END
$$$$

  -OEChem-05262216553D

 51 50  0     1  0  0  0  0  0999 V2000
    1.0033   -2.6307   -3.1859 C   0  0  0  0  0  0  0  0  0  0  0  0
    0.0333   -1.9449   -2.8993 O   0  0  0  0  0  0  0  0  0  0  0  0
    0.8323   -4.1222   -3.4025 C   0  0  0  0  0  0  0  0  0  0  0  0
    1.4033   -4.6771   -2.6537 H   0  0  0  0  0  0  0  0  0  0  0  0
   -0.2225   -4.3987   -3.3165 H   0  0  0  0  0  0  0  0  0  0  0  0
    1.1862   -4.3979   -4.3990 H   0  0  0  0  0  0  0  0  0  0  0  0
    2.2669   -2.0745   -3.2633 N   0  0  0  0  0  0  0  0  0  0  0  0
    2.6224   -0.6421   -3.1628 C   0  0  2  0  0  0  0  0  0  0  0  0
    2.3979    0.0012   -1.7742 C   0  0  0  0  0  0  0  0  0  0  0  0
    3.2832    0.6970   -1.3021 O   0  0  0  0  0  0  0  0  0  0  0  0
    1.9223    0.1730   -4.2593 C   0  0  0  0  0  0  0  0  0  0  0  0
    3.0183   -2.7221   -3.4867 H   0  0  0  0  0  0  0  0  0  0  0  0
    3.6987   -0.5696   -3.3525 H   0  0  0  0  0  0  0  0  0  0  0  0
    0.8423    0.2218   -4.0922 H   0  0  0  0  0  0  0  0  0  0  0  0
    2.3114    1.1963   -4.2705 H   0  0  0  0  0  0  0  0  0  0  0  0
    2.1032   -0.2753   -5.2409 H   0  0  0  0  0  0  0  0  0  0  0  0
    1.1695   -0.0929   -1.1454 N   0  0  0  0  0  0  0  0  0  0  0  0
    0.8417    0.1270    0.2839 C   0  0  2  0  0  0  0  0  0  0  0  0
   -0.1780    1.2814    0.4385 C   0  0  0  0  0  0  0  0  0  0  0  0
   -0.2369    1.9517    1.4618 O   0  0  0  0  0  0  0  0  0  0  0  0
    1.9606    0.0771    1.3665 C   0  0  0  0  0  0  0  0  0  0  0  0
    2.6579   -1.2897    1.6239 C   0  0  0  0  0  0  0  0  0  0  0  0
    3.8116   -1.0634    2.6087 C   0  0  0  0  0  0  0  0  0  0  0  0
    3.1997   -2.0641    0.4175 C   0  0  0  0  0  0  0  0  0  0  0  0
    0.5277   -0.7024   -1.6597 H   0  0  0  0  0  0  0  0  0  0  0  0
    0.2372   -0.7466    0.5440 H   0  0  0  0  0  0  0  0  0  0  0  0
    1.5247    0.3819    2.3234 H   0  0  0  0  0  0  0  0  0  0  0  0
    2.7151    0.8301    1.1210 H   0  0  0  0  0  0  0  0  0  0  0  0
    1.9195   -1.9382    2.1077 H   0  0  0  0  0  0  0  0  0  0  0  0
    4.5811   -0.4274    2.1592 H   0  0  0  0  0  0  0  0  0  0  0  0
    4.2695   -2.0168    2.8901 H   0  0  0  0  0  0  0  0  0  0  0  0
    3.4480   -0.5774    3.5196 H   0  0  0  0  0  0  0  0  0  0  0  0
    3.6458   -3.0071    0.7485 H   0  0  0  0  0  0  0  0  0  0  0  0
    3.9749   -1.4912   -0.0977 H   0  0  0  0  0  0  0  0  0  0  0  0
    2.3957   -2.3095   -0.2801 H   0  0  0  0  0  0  0  0  0  0  0  0
   -1.0886    1.5152   -0.5810 N   0  0  0  0  0  0  0  0  0  0  0  0
   -2.1741    2.5183   -0.6132 C   0  0  2  0  0  0  0  0  0  0  0  0
   -1.7043    3.9913   -0.6445 C   0  0  0  0  0  0  0  0  0  0  0  0
   -2.1901    4.7577   -1.4666 O   0  0  0  0  0  0  0  0  0  0  0  0
   -3.1737    2.2905    0.5293 C   0  0  0  0  0  0  0  0  0  0  0  0
   -0.9143    0.9908   -1.4342 H   0  0  0  0  0  0  0  0  0  0  0  0
   -2.7212    2.3584   -1.5483 H   0  0  0  0  0  0  0  0  0  0  0  0
   -2.7290    2.5304    1.4993 H   0  0  0  0  0  0  0  0  0  0  0  0
   -4.0516    2.9295    0.3910 H   0  0  0  0  0  0  0  0  0  0  0  0
   -3.5033    1.2473    0.5443 H   0  0  0  0  0  0  0  0  0  0  0  0
   -0.7586    4.4636    0.2427 N   0  0  0  0  0  0  0  0  0  0  0  0
   -0.2676    5.8338    0.2661 C   0  0  0  0  0  0  0  0  0  0  0  0
   -0.3916    3.7837    0.9145 H   0  0  0  0  0  0  0  0  0  0  0  0
    0.4800    5.9519    1.0561 H   0  0  0  0  0  0  0  0  0  0  0  0
    0.1972    6.0901   -0.6915 H   0  0  0  0  0  0  0  0  0  0  0  0
   -1.0885    6.5320    0.4590 H   0  0  0  0  0  0  0  0  0  0  0  0
  1  2  2  0  0  0  0
  1  3  1  0  0  0  0
  1  7  1  0  0  0  0
  3  4  1  0  0  0  0
  3  5  1  0  0  0  0
  3  6  1  0  0  0  0
  7  8  1  0  0  0  0
  7 12  1  0  0  0  0
  8  9  1  0  0  0  0
  8 11  1  0  0  0  0
  8 13  1  0  0  0  0
  9 10  2  0  0  0  0
  9 17  1  0  0  0  0
 11 14  1  0  0  0  0
 11 15  1  0  0  0  0
 11 16  1  0  0  0  0
 17 18  1  0  0  0  0
 17 25  1  0  0  0  0
 18 19  1  0  0  0  0
 18 21  1  0  0  0  0
 18 26  1  0  0  0  0
 19 20  2  0  0  0  0
 19 36  1  0  0  0  0
 21 22  1  0  0  0  0
 21 27  1  0  0  0  0
 21 28  1  0  0  0  0
 22 23  1  0  0  0  0
 22 24  1  0  0  0  0
 22 29  1  0  0  0  0
 23 30  1  0  0  0  0
 23 31  1  0  0  0  0
 23 32  1  0  0  0  0
 24 33  1  0  0  0  0
 24 34  1  0  0  0  0
 24 35  1  0  0  0  0
 36 37  1  0  0  0  0
 36 41  1  0  0  0  0
 37 38  1  0  0  0  0
 37 40  1  0  0  0  0
 37 42  1  0  0  0  0
 38 39  2  0  0  0  0
 38 46  1  0  0  0  0
 40 43  1  0  0  0  0
 40 44  1  0  0  0  0
 40 45  1  0  0  0  0
 46 47  1  0  0  0  0
 46 48  1  0  0  0  0
 47 49  1  0  0  0  0
 47 50  1  0  0  0  0
 47 51  1  0  0  0  0
M  END
$$$$

  -OEChem-05262216553D

 51 50  0     1  0  0  0  0  0999 V2000
    1.1514   -2.4821   -3.2584 C   0  0  0  0  0  0  0  0  0  0  0  0
    0.1450   -1.8569   -2.9575 O   0  0  0  0  0  0  0  0  0  0  0  0
    1.0515   -3.9660   -3.5564 C   0  0  0  0  0  0  0  0  0  0  0  0
    1.6498   -4.5330   -2.8387 H   0  0  0  0  0  0  0  0  0  0  0  0
    0.0114   -4.2975   -3.4860 H   0  0  0  0  0  0  0  0  0  0  0  0
    1.4163   -4.1697   -4.5662 H   0  0  0  0  0  0  0  0  0  0  0  0
    2.3913   -1.8696   -3.2779 N   0  0  0  0  0  0  0  0  0  0  0  0
    2.6857   -0.4337   -3.0795 C   0  0  2  0  0  0  0  0  0  0  0  0
    2.4029    0.1070   -1.6585 C   0  0  0  0  0  0  0  0  0  0  0  0
    3.2680    0.7584   -1.0941 O   0  0  0  0  0  0  0  0  0  0  0  0
    1.9739    0.4197   -4.1386 C   0  0  0  0  0  0  0  0  0  0  0  0
    3.1752   -2.4727   -3.5133 H   0  0  0  0  0  0  0  0  0  0  0  0
    3.7620   -0.3048   -3.2376 H   0  0  0  0  0  0  0  0  0  0  0  0
    0.8889    0.4051   -3.9998 H   0  0  0  0  0  0  0  0  0  0  0  0
    2.3114    1.4590   -4.0707 H   0  0  0  0  0  0  0  0  0  0  0  0
    2.2019    0.0477   -5.1418 H   0  0  0  0  0  0  0  0  0  0  0  0
    1.1464   -0.0349   -1.0996 N   0  0  0  0  0  0  0  0  0  0  0  0
    0.7399    0.0900    0.3188 C   0  0  2  0  0  0  0  0  0  0  0  0
   -0.2973    1.2248    0.4815 C   0  0  0  0  0  0  0  0  0  0  0  0
   -0.2505    2.0083    1.4216 O   0  0  0  0  0  0  0  0  0  0  0  0
    1.7939   -0.0169    1.4588 C   0  0  0  0  0  0  0  0  0  0  0  0
    2.4924   -1.3908    1.6700 C   0  0  0  0  0  0  0  0  0  0  0  0
    3.5849   -1.2193    2.7324 C   0  0  0  0  0  0  0  0  0  0  0  0
    3.1095   -2.0844    0.4512 C   0  0  0  0  0  0  0  0  0  0  0  0
    0.5366   -0.6060   -1.6901 H   0  0  0  0  0  0  0  0  0  0  0  0
    0.1342   -0.8045    0.4907 H   0  0  0  0  0  0  0  0  0  0  0  0
    1.2969    0.2278    2.4036 H   0  0  0  0  0  0  0  0  0  0  0  0
    2.5529    0.7550    1.3015 H   0  0  0  0  0  0  0  0  0  0  0  0
    1.7348   -2.0737    2.0685 H   0  0  0  0  0  0  0  0  0  0  0  0
    4.3763   -0.5572    2.3664 H   0  0  0  0  0  0  0  0  0  0  0  0
    4.0298   -2.1868    2.9852 H   0  0  0  0  0  0  0  0  0  0  0  0
    3.1659   -0.7874    3.6466 H   0  0  0  0  0  0  0  0  0  0  0  0
    3.5437   -3.0439    0.7485 H   0  0  0  0  0  0  0  0  0  0  0  0
    3.9083   -1.4764    0.0188 H   0  0  0  0  0  0  0  0  0  0  0  0
    2.3491   -2.2891   -0.3057 H   0  0  0  0  0  0  0  0  0  0  0  0
   -1.3415    1.3080   -0.4276 N   0  0  0  0  0  0  0  0  0  0  0  0
   -2.4476    2.2880   -0.4401 C   0  0  2  0  0  0  0  0  0  0  0  0
   -2.0215    3.7500   -0.7108 C   0  0  0  0  0  0  0  0  0  0  0  0
   -2.6030    4.3933   -1.5753 O   0  0  0  0  0  0  0  0  0  0  0  0
   -3.2906    2.1918    0.8390 C   0  0  0  0  0  0  0  0  0  0  0  0
   -1.2632    0.6884   -1.2293 H   0  0  0  0  0  0  0  0  0  0  0  0
   -3.1034    2.0092   -1.2713 H   0  0  0  0  0  0  0  0  0  0  0  0
   -2.7370    2.5557    1.7092 H   0  0  0  0  0  0  0  0  0  0  0  0
   -4.1960    2.7979    0.7356 H   0  0  0  0  0  0  0  0  0  0  0  0
   -3.5871    1.1547    1.0219 H   0  0  0  0  0  0  0  0  0  0  0  0
   -1.0017    4.3468    0.0028 N   0  0  0  0  0  0  0  0  0  0  0  0
   -0.5363    5.7091   -0.2139 C   0  0  0  0  0  0  0  0  0  0  0  0
   -0.5389    3.7614    0.7041 H   0  0  0  0  0  0  0  0  0  0  0  0
    0.2810    5.9413    0.4755 H   0  0  0  0  0  0  0  0  0  0  0  0
   -0.1696    5.8299   -1.2384 H   0  0  0  0  0  0  0  0  0  0  0  0
   -1.3482    6.4232   -0.0416 H   0  0  0  0  0  0  0  0  0  0  0  0
  1  2  2  0  0  0  0
  1  3  1  0  0  0  0
  1  7  1  0  0  0  0
  3  4  1  0  0  0  0
  3  5  1  0  0  0  0
  3  6  1  0  0  0  0
  7  8  1  0  0  0  0
  7 12  1  0  0  0  0
  8  9  1  0  0  0  0
  8 11  1  0  0  0  0
  8 13  1  0  0  0  0
  9 10  2  0  0  0  0
  9 17  1  0  0  0  0
 11 14  1  0  0  0  0
 11 15  1  0  0  0  0
 11 16  1  0  0  0  0
 17 18  1  0  0  0  0
 17 25  1  0  0  0  0
 18 19  1  0  0  0  0
 18 21  1  0  0  0  0
 18 26  1  0  0  0  0
 19 20  2  0  0  0  0
 19 36  1  0  0  0  0
 21 22  1  0  0  0  0
 21 27  1  0  0  0  0
 21 28  1  0  0  0  0
 22 23  1  0  0  0  0
 22 24  1  0  0  0  0
 22 29  1  0  0  0  0
 23 30  1  0  0  0  0
 23 31  1  0  0  0  0
 23 32  1  0  0  0  0
 24 33  1  0  0  0  0
 24 34  1  0  0  0  0
 24 35  1  0  0  0  0
 36 37  1  0  0  0  0
 36 41  1  0  0  0  0
 37 38  1  0  0  0  0
 37 40  1  0  0  0  0
 37 42  1  0  0  0  0
 38 39  2  0  0  0  0
 38 46  1  0  0  0  0
 40 43  1  0  0  0  0
 40 44  1  0  0  0  0
 40 45  1  0  0  0  0
 46 47  1  0  0  0  0
 46 48  1  0  0  0  0
 47 49  1  0  0  0  0
 47 50  1  0  0  0  0
 47 51  1  0  0  0  0
M  END
$$$$

  -OEChem-05262216553D

 51 50  0     1  0  0  0  0  0999 V2000
    1.0602   -2.4000   -3.2748 C   0  0  0  0  0  0  0  0  0  0  0  0
    0.0702   -1.7727   -2.9272 O   0  0  0  0  0  0  0  0  0  0  0  0
    0.9274   -3.8679   -3.6329 C   0  0  0  0  0  0  0  0  0  0  0  0
    1.4773   -4.4799   -2.9136 H   0  0  0  0  0  0  0  0  0  0  0  0
   -0.1246   -4.1672   -3.6177 H   0  0  0  0  0  0  0  0  0  0  0  0
    1.3274   -4.0465   -4.6341 H   0  0  0  0  0  0  0  0  0  0  0  0
    2.3100   -1.8075   -3.2993 N   0  0  0  0  0  0  0  0  0  0  0  0
    2.6326   -0.3808   -3.0743 C   0  0  2  0  0  0  0  0  0  0  0  0
    2.3880    0.1368   -1.6376 C   0  0  0  0  0  0  0  0  0  0  0  0
    3.2662    0.7841   -1.0890 O   0  0  0  0  0  0  0  0  0  0  0  0
    1.9146    0.5073   -4.1001 C   0  0  0  0  0  0  0  0  0  0  0  0
    3.0766   -2.4136   -3.5794 H   0  0  0  0  0  0  0  0  0  0  0  0
    3.7075   -0.2665   -3.2508 H   0  0  0  0  0  0  0  0  0  0  0  0
    0.8317    0.4991   -3.9454 H   0  0  0  0  0  0  0  0  0  0  0  0
    2.2636    1.5409   -4.0083 H   0  0  0  0  0  0  0  0  0  0  0  0
    2.1243    0.1615   -5.1167 H   0  0  0  0  0  0  0  0  0  0  0  0
    1.1493   -0.0243   -1.0463 N   0  0  0  0  0  0  0  0  0  0  0  0
    0.7643    0.1024    0.3760 C   0  0  2  0  0  0  0  0  0  0  0  0
   -0.2923    1.2149    0.5462 C   0  0  0  0  0  0  0  0  0  0  0  0
   -0.1174    2.1520    1.3148 O   0  0  0  0  0  0  0  0  0  0  0  0
    1.8355    0.0393    1.5009 C   0  0  0  0  0  0  0  0  0  0  0  0
    2.5784   -1.3101    1.7178 C   0  0  0  0  0  0  0  0  0  0  0  0
    3.6798   -1.0931    2.7632 C   0  0  0  0  0  0  0  0  0  0  0  0
    3.1976   -2.0028    0.4992 C   0  0  0  0  0  0  0  0  0  0  0  0
    0.5109   -0.5580   -1.6412 H   0  0  0  0  0  0  0  0  0  0  0  0
    0.1884   -0.8073    0.5686 H   0  0  0  0  0  0  0  0  0  0  0  0
    1.3438    0.2859    2.4480 H   0  0  0  0  0  0  0  0  0  0  0  0
    2.5695    0.8305    1.3208 H   0  0  0  0  0  0  0  0  0  0  0  0
    1.8467   -2.0097    2.1356 H   0  0  0  0  0  0  0  0  0  0  0  0
    4.4413   -0.4045    2.3824 H   0  0  0  0  0  0  0  0  0  0  0  0
    4.1639   -2.0421    3.0142 H   0  0  0  0  0  0  0  0  0  0  0  0
    3.2589   -0.6718    3.6816 H   0  0  0  0  0  0  0  0  0  0  0  0
    3.6518   -2.9513    0.8015 H   0  0  0  0  0  0  0  0  0  0  0  0
    3.9814   -1.3844    0.0546 H   0  0  0  0  0  0  0  0  0  0  0  0
    2.4355   -2.2287   -0.2499 H   0  0  0  0  0  0  0  0  0  0  0  0
   -1.4992    1.0935   -0.1267 N   0  0  0  0  0  0  0  0  0  0  0  0
   -2.6631    2.0018   -0.0530 C   0  0  2  0  0  0  0  0  0  0  0  0
   -2.4270    3.4225   -0.6180 C   0  0  0  0  0  0  0  0  0  0  0  0
   -3.2441    3.8993   -1.3953 O   0  0  0  0  0  0  0  0  0  0  0  0
   -3.2238    2.0683    1.3744 C   0  0  0  0  0  0  0  0  0  0  0  0
   -1.5438    0.3393   -0.8069 H   0  0  0  0  0  0  0  0  0  0  0  0
   -3.4450    1.5592   -0.6787 H   0  0  0  0  0  0  0  0  0  0  0  0
   -2.5385    2.5922    2.0472 H   0  0  0  0  0  0  0  0  0  0  0  0
   -4.1777    2.6050    1.3761 H   0  0  0  0  0  0  0  0  0  0  0  0
   -3.3932    1.0601    1.7640 H   0  0  0  0  0  0  0  0  0  0  0  0
   -1.3226    4.1695   -0.2608 N   0  0  0  0  0  0  0  0  0  0  0  0
   -1.0503    5.5142   -0.7472 C   0  0  0  0  0  0  0  0  0  0  0  0
   -0.6781    3.7338    0.4054 H   0  0  0  0  0  0  0  0  0  0  0  0
   -0.9639    5.5168   -1.8388 H   0  0  0  0  0  0  0  0  0  0  0  0
   -0.1108    5.8837   -0.3250 H   0  0  0  0  0  0  0  0  0  0  0  0
   -1.8545    6.1972   -0.4546 H   0  0  0  0  0  0  0  0  0  0  0  0
  1  2  2  0  0  0  0
  1  3  1  0  0  0  0
  1  7  1  0  0  0  0
  3  4  1  0  0  0  0
  3  5  1  0  0  0  0
  3  6  1  0  0  0  0
  7  8  1  0  0  0  0
  7 12  1  0  0  0  0
  8  9  1  0  0  0  0
  8 11  1  0  0  0  0
  8 13  1  0  0  0  0
  9 10  2  0  0  0  0
  9 17  1  0  0  0  0
 11 14  1  0  0  0  0
 11 15  1  0  0  0  0
 11 16  1  0  0  0  0
 17 18  1  0  0  0  0
 17 25  1  0  0  0  0
 18 19  1  0  0  0  0
 18 21  1  0  0  0  0
 18 26  1  0  0  0  0
 19 20  2  0  0  0  0
 19 36  1  0  0  0  0
 21 22  1  0  0  0  0
 21 27  1  0  0  0  0
 21 28  1  0  0  0  0
 22 23  1  0  0  0  0
 22 24  1  0  0  0  0
 22 29  1  0  0  0  0
 23 30  1  0  0  0  0
 23 31  1  0  0  0  0
 23 32  1  0  0  0  0
 24 33  1  0  0  0  0
 24 34  1  0  0  0  0
 24 35  1  0  0  0  0
 36 37  1  0  0  0  0
 36 41  1  0  0  0  0
 37 38  1  0  0  0  0
 37 40  1  0  0  0  0
 37 42  1  0  0  0  0
 38 39  2  0  0  0  0
 38 46  1  0  0  0  0
 40 43  1  0  0  0  0
 40 44  1  0  0  0  0
 40 45  1  0  0  0  0
 46 47  1  0  0  0  0
 46 48  1  0  0  0  0
 47 49  1  0  0  0  0
 47 50  1  0  0  0  0
 47 51  1  0  0  0  0
M  END
$$$$

  -OEChem-05262216553D

 51 50  0     1  0  0  0  0  0999 V2000
    1.1642   -2.3888   -3.2218 C   0  0  0  0  0  0  0  0  0  0  0  0
    0.1369   -1.8244   -2.8747 O   0  0  0  0  0  0  0  0  0  0  0  0
    1.1305   -3.8678   -3.5586 C   0  0  0  0  0  0  0  0  0  0  0  0
    1.7554   -4.4256   -2.8565 H   0  0  0  0  0  0  0  0  0  0  0  0
    0.1064   -4.2473   -3.4971 H   0  0  0  0  0  0  0  0  0  0  0  0
    1.5025   -4.0287   -4.5735 H   0  0  0  0  0  0  0  0  0  0  0  0
    2.3704   -1.7133   -3.2653 N   0  0  0  0  0  0  0  0  0  0  0  0
    2.5985   -0.2720   -3.0257 C   0  0  2  0  0  0  0  0  0  0  0  0
    2.3244    0.2015   -1.5793 C   0  0  0  0  0  0  0  0  0  0  0  0
    3.2066    0.7979   -0.9816 O   0  0  0  0  0  0  0  0  0  0  0  0
    1.8209    0.5793   -4.0395 C   0  0  0  0  0  0  0  0  0  0  0  0
    3.1775   -2.2705   -3.5327 H   0  0  0  0  0  0  0  0  0  0  0  0
    3.6626   -0.0838   -3.2036 H   0  0  0  0  0  0  0  0  0  0  0  0
    0.7413    0.5050   -3.8786 H   0  0  0  0  0  0  0  0  0  0  0  0
    2.1082    1.6312   -3.9422 H   0  0  0  0  0  0  0  0  0  0  0  0
    2.0434    0.2539   -5.0602 H   0  0  0  0  0  0  0  0  0  0  0  0
    1.0670    0.0468   -1.0252 N   0  0  0  0  0  0  0  0  0  0  0  0
    0.6620    0.1034    0.3966 C   0  0  2  0  0  0  0  0  0  0  0  0
   -0.3596    1.2368    0.6231 C   0  0  0  0  0  0  0  0  0  0  0  0
   -0.0511    2.2532    1.2316 O   0  0  0  0  0  0  0  0  0  0  0  0
    1.7043   -0.0509    1.5383 C   0  0  0  0  0  0  0  0  0  0  0  0
    2.4074   -1.4294    1.6966 C   0  0  0  0  0  0  0  0  0  0  0  0
    3.4892   -1.3005    2.7759 C   0  0  0  0  0  0  0  0  0  0  0  0
    3.0363   -2.0698    0.4550 C   0  0  0  0  0  0  0  0  0  0  0  0
    0.4396   -0.4677   -1.6494 H   0  0  0  0  0  0  0  0  0  0  0  0
    0.0612   -0.8011    0.5265 H   0  0  0  0  0  0  0  0  0  0  0  0
    1.1961    0.1614    2.4849 H   0  0  0  0  0  0  0  0  0  0  0  0
    2.4632    0.7282    1.4166 H   0  0  0  0  0  0  0  0  0  0  0  0
    1.6488   -2.1315    2.0585 H   0  0  0  0  0  0  0  0  0  0  0  0
    4.2777   -0.6142    2.4501 H   0  0  0  0  0  0  0  0  0  0  0  0
    3.9410   -2.2751    2.9854 H   0  0  0  0  0  0  0  0  0  0  0  0
    3.0582   -0.9179    3.7063 H   0  0  0  0  0  0  0  0  0  0  0  0
    3.4655   -3.0423    0.7147 H   0  0  0  0  0  0  0  0  0  0  0  0
    3.8408   -1.4457    0.0579 H   0  0  0  0  0  0  0  0  0  0  0  0
    2.2837   -2.2397   -0.3182 H   0  0  0  0  0  0  0  0  0  0  0  0
   -1.6673    1.0607    0.1953 N   0  0  0  0  0  0  0  0  0  0  0  0
   -2.7882    2.0144    0.3370 C   0  0  2  0  0  0  0  0  0  0  0  0
   -2.6285    3.3257   -0.4673 C   0  0  0  0  0  0  0  0  0  0  0  0
   -3.5303    3.6855   -1.2132 O   0  0  0  0  0  0  0  0  0  0  0  0
   -3.0866    2.3124    1.8131 C   0  0  0  0  0  0  0  0  0  0  0  0
   -1.8317    0.2375   -0.3775 H   0  0  0  0  0  0  0  0  0  0  0  0
   -3.6758    1.5188   -0.0695 H   0  0  0  0  0  0  0  0  0  0  0  0
   -2.2924    2.9119    2.2672 H   0  0  0  0  0  0  0  0  0  0  0  0
   -4.0237    2.8713    1.8991 H   0  0  0  0  0  0  0  0  0  0  0  0
   -3.1854    1.3801    2.3768 H   0  0  0  0  0  0  0  0  0  0  0  0
   -1.4876    4.0957   -0.3665 N   0  0  0  0  0  0  0  0  0  0  0  0
   -1.2548    5.3193   -1.1197 C   0  0  0  0  0  0  0  0  0  0  0  0
   -0.7542    3.7369    0.2524 H   0  0  0  0  0  0  0  0  0  0  0  0
   -2.0331    6.0575   -0.9009 H   0  0  0  0  0  0  0  0  0  0  0  0
   -0.2853    5.7488   -0.8496 H   0  0  0  0  0  0  0  0  0  0  0  0
   -1.2556    5.1128   -2.1948 H   0  0  0  0  0  0  0  0  0  0  0  0
  1  2  2  0  0  0  0
  1  3  1  0  0  0  0
  1  7  1  0  0  0  0
  3  4  1  0  0  0  0
  3  5  1  0  0  0  0
  3  6  1  0  0  0  0
  7  8  1  0  0  0  0
  7 12  1  0  0  0  0
  8  9  1  0  0  0  0
  8 11  1  0  0  0  0
  8 13  1  0  0  0  0
  9 10  2  0  0  0  0
  9 17  1  0  0  0  0
 11 14  1  0  0  0  0
 11 15  1  0  0  0  0
 11 16  1  0  0  0  0
 17 18  1  0  0  0  0
 17 25  1  0  0  0  0
 18 19  1  0  0  0  0
 18 21  1  0  0  0  0
 18 26  1  0  0  0  0
 19 20  2  0  0  0  0
 19 36  1  0  0  0  0
 21 22  1  0  0  0  0
 21 27  1  0  0  0  0
 21 28  1  0  0  0  0
 22 23  1  0  0  0  0
 22 24  1  0  0  0  0
 22 29  1  0  0  0  0
 23 30  1  0  0  0  0
 23 31  1  0  0  0  0
 23 32  1  0  0  0  0
 24 33  1  0  0  0  0
 24 34  1  0  0  0  0
 24 35  1  0  0  0  0
 36 37  1  0  0  0  0
 36 41  1  0  0  0  0
 37 38  1  0  0  0  0
 37 40  1  0  0  0  0
 37 42  1  0  0  0  0
 38 39  2  0  0  0  0
 38 46  1  0  0  0  0
 40 43  1  0  0  0  0
 40 44  1  0  0  0  0
 40 45  1  0  0  0  0
 46 47  1  0  0  0  0
 46 48  1  0  0  0  0
 47 49  1  0  0  0  0
 47 50  1  0  0  0  0
 47 51  1  0  0  0  0
M  END
$$$$

  -OEChem-05262216553D

 51 50  0     1  0  0  0  0  0999 V2000
    1.1826   -2.3974   -3.2115 C   0  0  0  0  0  0  0  0  0  0  0  0
    0.1514   -1.8396   -2.8663 O   0  0  0  0  0  0  0  0  0  0  0  0
    1.1636   -3.8821   -3.5214 C   0  0  0  0  0  0  0  0  0  0  0  0
    1.7898   -4.4210   -2.8061 H   0  0  0  0  0  0  0  0  0  0  0  0
    0.1426   -4.2690   -3.4565 H   0  0  0  0  0  0  0  0  0  0  0  0
    1.5411   -4.0584   -4.5317 H   0  0  0  0  0  0  0  0  0  0  0  0
    2.3809   -1.7100   -3.2748 N   0  0  0  0  0  0  0  0  0  0  0  0
    2.5961   -0.2656   -3.0427 C   0  0  2  0  0  0  0  0  0  0  0  0
    2.3360    0.2039   -1.5924 C   0  0  0  0  0  0  0  0  0  0  0  0
    3.2313    0.7789   -0.9926 O   0  0  0  0  0  0  0  0  0  0  0  0
    1.7922    0.5740   -4.0462 C   0  0  0  0  0  0  0  0  0  0  0  0
    3.1939   -2.2638   -3.5307 H   0  0  0  0  0  0  0  0  0  0  0  0
    3.6552   -0.0646   -3.2367 H   0  0  0  0  0  0  0  0  0  0  0  0
    0.7162    0.4855   -3.8702 H   0  0  0  0  0  0  0  0  0  0  0  0
    2.0660    1.6299   -3.9545 H   0  0  0  0  0  0  0  0  0  0  0  0
    2.0049    0.2499   -5.0692 H   0  0  0  0  0  0  0  0  0  0  0  0
    1.0778    0.0604   -1.0372 N   0  0  0  0  0  0  0  0  0  0  0  0
    0.6685    0.1264    0.3819 C   0  0  2  0  0  0  0  0  0  0  0  0
   -0.3480    1.2642    0.6111 C   0  0  0  0  0  0  0  0  0  0  0  0
    0.0215    2.3654    0.9968 O   0  0  0  0  0  0  0  0  0  0  0  0
    1.7037   -0.0179    1.5304 C   0  0  0  0  0  0  0  0  0  0  0  0
    2.4094   -1.3931    1.7066 C   0  0  0  0  0  0  0  0  0  0  0  0
    3.4837   -1.2501    2.7920 C   0  0  0  0  0  0  0  0  0  0  0  0
    3.0456   -2.0475    0.4760 C   0  0  0  0  0  0  0  0  0  0  0  0
    0.4420   -0.4416   -1.6634 H   0  0  0  0  0  0  0  0  0  0  0  0
    0.0712   -0.7803    0.5111 H   0  0  0  0  0  0  0  0  0  0  0  0
    1.1900    0.2047    2.4718 H   0  0  0  0  0  0  0  0  0  0  0  0
    2.4630    0.7602    1.4038 H   0  0  0  0  0  0  0  0  0  0  0  0
    1.6495   -2.0920    2.0715 H   0  0  0  0  0  0  0  0  0  0  0  0
    4.2737   -0.5665    2.4637 H   0  0  0  0  0  0  0  0  0  0  0  0
    3.9351   -2.2214    3.0162 H   0  0  0  0  0  0  0  0  0  0  0  0
    3.0460   -0.8570    3.7149 H   0  0  0  0  0  0  0  0  0  0  0  0
    3.4648   -3.0212    0.7470 H   0  0  0  0  0  0  0  0  0  0  0  0
    3.8591   -1.4333    0.0819 H   0  0  0  0  0  0  0  0  0  0  0  0
    2.2996   -2.2171   -0.3032 H   0  0  0  0  0  0  0  0  0  0  0  0
   -1.7043    1.0018    0.4837 N   0  0  0  0  0  0  0  0  0  0  0  0
   -2.8249    1.9244    0.7675 C   0  0  2  0  0  0  0  0  0  0  0  0
   -2.9209    3.1576   -0.1618 C   0  0  0  0  0  0  0  0  0  0  0  0
   -3.9962    3.4345   -0.6778 O   0  0  0  0  0  0  0  0  0  0  0  0
   -2.8250    2.3542    2.2411 C   0  0  0  0  0  0  0  0  0  0  0  0
   -1.9420    0.0913    0.1004 H   0  0  0  0  0  0  0  0  0  0  0  0
   -3.7469    1.3568    0.6040 H   0  0  0  0  0  0  0  0  0  0  0  0
   -1.9838    3.0176    2.4620 H   0  0  0  0  0  0  0  0  0  0  0  0
   -3.7507    2.8899    2.4738 H   0  0  0  0  0  0  0  0  0  0  0  0
   -2.7585    1.4781    2.8929 H   0  0  0  0  0  0  0  0  0  0  0  0
   -1.8295    3.9668   -0.4042 N   0  0  0  0  0  0  0  0  0  0  0  0
   -1.8680    5.1767   -1.2128 C   0  0  0  0  0  0  0  0  0  0  0  0
   -0.9606    3.7065    0.0722 H   0  0  0  0  0  0  0  0  0  0  0  0
   -0.8667    5.6123   -1.2849 H   0  0  0  0  0  0  0  0  0  0  0  0
   -2.2205    4.9523   -2.2249 H   0  0  0  0  0  0  0  0  0  0  0  0
   -2.5373    5.9163   -0.7613 H   0  0  0  0  0  0  0  0  0  0  0  0
  1  2  2  0  0  0  0
  1  3  1  0  0  0  0
  1  7  1  0  0  0  0
  3  4  1  0  0  0  0
  3  5  1  0  0  0  0
  3  6  1  0  0  0  0
  7  8  1  0  0  0  0
  7 12  1  0  0  0  0
  8  9  1  0  0  0  0
  8 11  1  0  0  0  0
  8 13  1  0  0  0  0
  9 10  2  0  0  0  0
  9 17  1  0  0  0  0
 11 14  1  0  0  0  0
 11 15  1  0  0  0  0
 11 16  1  0  0  0  0
 17 18  1  0  0  0  0
 17 25  1  0  0  0  0
 18 19  1  0  0  0  0
 18 21  1  0  0  0  0
 18 26  1  0  0  0  0
 19 20  2  0  0  0  0
 19 36  1  0  0  0  0
 21 22  1  0  0  0  0
 21 27  1  0  0  0  0
 21 28  1  0  0  0  0
 22 23  1  0  0  0  0
 22 24  1  0  0  0  0
 22 29  1  0  0  0  0
 23 30  1  0  0  0  0
 23 31  1  0  0  0  0
 23 32  1  0  0  0  0
 24 33  1  0  0  0  0
 24 34  1  0  0  0  0
 24 35  1  0  0  0  0
 36 37  1  0  0  0  0
 36 41  1  0  0  0  0
 37 38  1  0  0  0  0
 37 40  1  0  0  0  0
 37 42  1  0  0  0  0
 38 39  2  0  0  0  0
 38 46  1  0  0  0  0
 40 43  1  0  0  0  0
 40 44  1  0  0  0  0
 40 45  1  0  0  0  0
 46 47  1  0  0  0  0
 46 48  1  0  0  0  0
 47 49  1  0  0  0  0
 47 50  1  0  0  0  0
 47 51  1  0  0  0  0
M  END
$$$$

  -OEChem-05262216553D

 51 50  0     1  0  0  0  0  0999 V2000
    1.0831   -2.1978   -3.2871 C   0  0  0  0  0  0  0  0  0  0  0  0
    0.0782   -1.6389   -2.8742 O   0  0  0  0  0  0  0  0  0  0  0  0
    1.0022   -3.6424   -3.7431 C   0  0  0  0  0  0  0  0  0  0  0  0
    1.5824   -4.2792   -3.0707 H   0  0  0  0  0  0  0  0  0  0  0  0
   -0.0376   -3.9818   -3.7407 H   0  0  0  0  0  0  0  0  0  0  0  0
    1.3981   -3.7379   -4.7572 H   0  0  0  0  0  0  0  0  0  0  0  0
    2.3046   -1.5498   -3.3043 N   0  0  0  0  0  0  0  0  0  0  0  0
    2.5696   -0.1365   -2.9599 C   0  0  2  0  0  0  0  0  0  0  0  0
    2.3412    0.2274   -1.4750 C   0  0  0  0  0  0  0  0  0  0  0  0
    3.2623    0.7334   -0.8523 O   0  0  0  0  0  0  0  0  0  0  0  0
    1.7863    0.8088   -3.8825 C   0  0  0  0  0  0  0  0  0  0  0  0
    3.0936   -2.1034   -3.6270 H   0  0  0  0  0  0  0  0  0  0  0  0
    3.6329    0.0436   -3.1507 H   0  0  0  0  0  0  0  0  0  0  0  0
    0.7094    0.7416   -3.7023 H   0  0  0  0  0  0  0  0  0  0  0  0
    2.0959    1.8441   -3.7067 H   0  0  0  0  0  0  0  0  0  0  0  0
    1.9796    0.5637   -4.9310 H   0  0  0  0  0  0  0  0  0  0  0  0
    1.0867    0.0820   -0.9112 N   0  0  0  0  0  0  0  0  0  0  0  0
    0.6933    0.1072    0.5137 C   0  0  2  0  0  0  0  0  0  0  0  0
   -0.3056    1.2469    0.8007 C   0  0  0  0  0  0  0  0  0  0  0  0
    0.0798    2.4060    0.8719 O   0  0  0  0  0  0  0  0  0  0  0  0
    1.7308   -0.0899    1.6499 C   0  0  0  0  0  0  0  0  0  0  0  0
    2.4141   -1.4821    1.7755 C   0  0  0  0  0  0  0  0  0  0  0  0
    3.4965   -1.3930    2.8581 C   0  0  0  0  0  0  0  0  0  0  0  0
    3.0316   -2.1075    0.5202 C   0  0  0  0  0  0  0  0  0  0  0  0
    0.4190   -0.3471   -1.5582 H   0  0  0  0  0  0  0  0  0  0  0  0
    0.0869   -0.7972    0.6101 H   0  0  0  0  0  0  0  0  0  0  0  0
    1.2266    0.1110    2.6012 H   0  0  0  0  0  0  0  0  0  0  0  0
    2.5017    0.6795    1.5430 H   0  0  0  0  0  0  0  0  0  0  0  0
    1.6448   -2.1801    2.1222 H   0  0  0  0  0  0  0  0  0  0  0  0
    4.2957   -0.7123    2.5467 H   0  0  0  0  0  0  0  0  0  0  0  0
    3.9333   -2.3785    3.0467 H   0  0  0  0  0  0  0  0  0  0  0  0
    3.0713   -1.0230    3.7962 H   0  0  0  0  0  0  0  0  0  0  0  0
    3.4244   -3.1015    0.7545 H   0  0  0  0  0  0  0  0  0  0  0  0
    3.8617   -1.5017    0.1486 H   0  0  0  0  0  0  0  0  0  0  0  0
    2.2820   -2.2280   -0.2651 H   0  0  0  0  0  0  0  0  0  0  0  0
   -1.6479    0.9554    0.9966 N   0  0  0  0  0  0  0  0  0  0  0  0
   -2.7342    1.9141    1.2922 C   0  0  2  0  0  0  0  0  0  0  0  0
   -3.0628    2.8996    0.1461 C   0  0  0  0  0  0  0  0  0  0  0  0
   -4.2248    3.0298   -0.2169 O   0  0  0  0  0  0  0  0  0  0  0  0
   -2.4706    2.6704    2.6022 C   0  0  0  0  0  0  0  0  0  0  0  0
   -1.9155   -0.0137    0.8525 H   0  0  0  0  0  0  0  0  0  0  0  0
   -3.6423    1.3227    1.4477 H   0  0  0  0  0  0  0  0  0  0  0  0
   -1.6364    3.3704    2.4976 H   0  0  0  0  0  0  0  0  0  0  0  0
   -3.3588    3.2425    2.8885 H   0  0  0  0  0  0  0  0  0  0  0  0
   -2.2368    1.9676    3.4073 H   0  0  0  0  0  0  0  0  0  0  0  0
   -2.0755    3.6381   -0.4744 N   0  0  0  0  0  0  0  0  0  0  0  0
   -2.3171    4.5969   -1.5425 C   0  0  0  0  0  0  0  0  0  0  0  0
   -1.1217    3.4986   -0.1271 H   0  0  0  0  0  0  0  0  0  0  0  0
   -2.9709    5.4023   -1.1924 H   0  0  0  0  0  0  0  0  0  0  0  0
   -1.3715    5.0370   -1.8732 H   0  0  0  0  0  0  0  0  0  0  0  0
   -2.7888    4.1050   -2.3994 H   0  0  0  0  0  0  0  0  0  0  0  0
  1  2  2  0  0  0  0
  1  3  1  0  0  0  0
  1  7  1  0  0  0  0
  3  4  1  0  0  0  0
  3  5  1  0  0  0  0
  3  6  1  0  0  0  0
  7  8  1  0  0  0  0
  7 12  1  0  0  0  0
  8  9  1  0  0  0  0
  8 11  1  0  0  0  0
  8 13  1  0  0  0  0
  9 10  2  0  0  0  0
  9 17  1  0  0  0  0
 11 14  1  0  0  0  0
 11 15  1  0  0  0  0
 11 16  1  0  0  0  0
 17 18  1  0  0  0  0
 17 25  1  0  0  0  0
 18 19  1  0  0  0  0
 18 21  1  0  0  0  0
 18 26  1  0  0  0  0
 19 20  2  0  0  0  0
 19 36  1  0  0  0  0
 21 22  1  0  0  0  0
 21 27  1  0  0  0  0
 21 28  1  0  0  0  0
 22 23  1  0  0  0  0
 22 24  1  0  0  0  0
 22 29  1  0  0  0  0
 23 30  1  0  0  0  0
 23 31  1  0  0  0  0
 23 32  1  0  0  0  0
 24 33  1  0  0  0  0
 24 34  1  0  0  0  0
 24 35  1  0  0  0  0
 36 37  1  0  0  0  0
 36 41  1  0  0  0  0
 37 38  1  0  0  0  0
 37 40  1  0  0  0  0
 37 42  1  0  0  0  0
 38 39  2  0  0  0  0
 38 46  1  0  0  0  0
 40 43  1  0  0  0  0
 40 44  1  0  0  0  0
 40 45  1  0  0  0  0
 46 47  1  0  0  0  0
 46 48  1  0  0  0  0
 47 49  1  0  0  0  0
 47 50  1  0  0  0  0
 47 51  1  0  0  0  0
M  END
$$$$

  -OEChem-05262216553D

 51 50  0     1  0  0  0  0  0999 V2000
    1.1034   -2.1004   -3.2961 C   0  0  0  0  0  0  0  0  0  0  0  0
    0.1026   -1.5297   -2.8902 O   0  0  0  0  0  0  0  0  0  0  0  0
    1.0094   -3.5453   -3.7487 C   0  0  0  0  0  0  0  0  0  0  0  0
    1.5670   -4.1880   -3.0629 H   0  0  0  0  0  0  0  0  0  0  0  0
   -0.0353   -3.8689   -3.7642 H   0  0  0  0  0  0  0  0  0  0  0  0
    1.4234   -3.6506   -4.7545 H   0  0  0  0  0  0  0  0  0  0  0  0
    2.3328   -1.4677   -3.3017 N   0  0  0  0  0  0  0  0  0  0  0  0
    2.6174   -0.0682   -2.9185 C   0  0  2  0  0  0  0  0  0  0  0  0
    2.3866    0.2542   -1.4240 C   0  0  0  0  0  0  0  0  0  0  0  0
    3.3203    0.6984   -0.7727 O   0  0  0  0  0  0  0  0  0  0  0  0
    1.8535    0.9146   -3.8180 C   0  0  0  0  0  0  0  0  0  0  0  0
    3.1175   -2.0303   -3.6191 H   0  0  0  0  0  0  0  0  0  0  0  0
    3.6841    0.1012   -3.0997 H   0  0  0  0  0  0  0  0  0  0  0  0
    0.7750    0.8604   -3.6444 H   0  0  0  0  0  0  0  0  0  0  0  0
    2.1792    1.9392   -3.6115 H   0  0  0  0  0  0  0  0  0  0  0  0
    2.0472    0.6957   -4.8723 H   0  0  0  0  0  0  0  0  0  0  0  0
    1.1221    0.1295   -0.8782 N   0  0  0  0  0  0  0  0  0  0  0  0
    0.7106    0.1250    0.5415 C   0  0  2  0  0  0  0  0  0  0  0  0
   -0.2601    1.2810    0.8627 C   0  0  0  0  0  0  0  0  0  0  0  0
    0.0762    2.4437    0.6825 O   0  0  0  0  0  0  0  0  0  0  0  0
    1.7256   -0.1410    1.6835 C   0  0  0  0  0  0  0  0  0  0  0  0
    2.3610   -1.5582    1.7755 C   0  0  0  0  0  0  0  0  0  0  0  0
    3.4314   -1.5370    2.8740 C   0  0  0  0  0  0  0  0  0  0  0  0
    2.9741   -2.1678    0.5103 C   0  0  0  0  0  0  0  0  0  0  0  0
    0.4466   -0.2526   -1.5462 H   0  0  0  0  0  0  0  0  0  0  0  0
    0.0749   -0.7627    0.5947 H   0  0  0  0  0  0  0  0  0  0  0  0
    1.2157    0.0457    2.6347 H   0  0  0  0  0  0  0  0  0  0  0  0
    2.5225    0.6056    1.6100 H   0  0  0  0  0  0  0  0  0  0  0  0
    1.5644   -2.2400    2.0915 H   0  0  0  0  0  0  0  0  0  0  0  0
    4.2560   -0.8735    2.5930 H   0  0  0  0  0  0  0  0  0  0  0  0
    3.8341   -2.5413    3.0380 H   0  0  0  0  0  0  0  0  0  0  0  0
    3.0063   -1.1820    3.8179 H   0  0  0  0  0  0  0  0  0  0  0  0
    3.3285   -3.1815    0.7209 H   0  0  0  0  0  0  0  0  0  0  0  0
    3.8299   -1.5813    0.1675 H   0  0  0  0  0  0  0  0  0  0  0  0
    2.2319   -2.2393   -0.2879 H   0  0  0  0  0  0  0  0  0  0  0  0
   -1.5319    1.0012    1.3427 N   0  0  0  0  0  0  0  0  0  0  0  0
   -2.5802    1.9758    1.7142 C   0  0  2  0  0  0  0  0  0  0  0  0
   -3.1575    2.7946    0.5358 C   0  0  0  0  0  0  0  0  0  0  0  0
   -4.3699    2.8341    0.3713 O   0  0  0  0  0  0  0  0  0  0  0  0
   -2.1028    2.9018    2.8418 C   0  0  0  0  0  0  0  0  0  0  0  0
   -1.7734    0.0171    1.4098 H   0  0  0  0  0  0  0  0  0  0  0  0
   -3.4192    1.3981    2.1153 H   0  0  0  0  0  0  0  0  0  0  0  0
   -1.3346    3.5959    2.4883 H   0  0  0  0  0  0  0  0  0  0  0  0
   -2.9429    3.4908    3.2228 H   0  0  0  0  0  0  0  0  0  0  0  0
   -1.6890    2.3149    3.6674 H   0  0  0  0  0  0  0  0  0  0  0  0
   -2.3359    3.4803   -0.3356 N   0  0  0  0  0  0  0  0  0  0  0  0
   -2.8101    4.2503   -1.4758 C   0  0  0  0  0  0  0  0  0  0  0  0
   -1.3289    3.3983   -0.1649 H   0  0  0  0  0  0  0  0  0  0  0  0
   -1.9661    4.7225   -1.9879 H   0  0  0  0  0  0  0  0  0  0  0  0
   -3.3287    3.5996   -2.1873 H   0  0  0  0  0  0  0  0  0  0  0  0
   -3.4986    5.0357   -1.1476 H   0  0  0  0  0  0  0  0  0  0  0  0
  1  2  2  0  0  0  0
  1  3  1  0  0  0  0
  1  7  1  0  0  0  0
  3  4  1  0  0  0  0
  3  5  1  0  0  0  0
  3  6  1  0  0  0  0
  7  8  1  0  0  0  0
  7 12  1  0  0  0  0
  8  9  1  0  0  0  0
  8 11  1  0  0  0  0
  8 13  1  0  0  0  0
  9 10  2  0  0  0  0
  9 17  1  0  0  0  0
 11 14  1  0  0  0  0
 11 15  1  0  0  0  0
 11 16  1  0  0  0  0
 17 18  1  0  0  0  0
 17 25  1  0  0  0  0
 18 19  1  0  0  0  0
 18 21  1  0  0  0  0
 18 26  1  0  0  0  0
 19 20  2  0  0  0  0
 19 36  1  0  0  0  0
 21 22  1  0  0  0  0
 21 27  1  0  0  0  0
 21 28  1  0  0  0  0
 22 23  1  0  0  0  0
 22 24  1  0  0  0  0
 22 29  1  0  0  0  0
 23 30  1  0  0  0  0
 23 31  1  0  0  0  0
 23 32  1  0  0  0  0
 24 33  1  0  0  0  0
 24 34  1  0  0  0  0
 24 35  1  0  0  0  0
 36 37  1  0  0  0  0
 36 41  1  0  0  0  0
 37 38  1  0  0  0  0
 37 40  1  0  0  0  0
 37 42  1  0  0  0  0
 38 39  2  0  0  0  0
 38 46  1  0  0  0  0
 40 43  1  0  0  0  0
 40 44  1  0  0  0  0
 40 45  1  0  0  0  0
 46 47  1  0  0  0  0
 46 48  1  0  0  0  0
 47 49  1  0  0  0  0
 47 50  1  0  0  0  0
 47 51  1  0  0  0  0
M  END
$$$$

  -OEChem-05262216553D

 51 50  0     1  0  0  0  0  0999 V2000
    1.0709   -2.1227   -3.2768 C   0  0  0  0  0  0  0  0  0  0  0  0
    0.0837   -1.5387   -2.8569 O   0  0  0  0  0  0  0  0  0  0  0  0
    0.9563   -3.5717   -3.7120 C   0  0  0  0  0  0  0  0  0  0  0  0
    1.6023   -4.2004   -3.0942 H   0  0  0  0  0  0  0  0  0  0  0  0
   -0.0761   -3.9174   -3.6061 H   0  0  0  0  0  0  0  0  0  0  0  0
    1.2547   -3.6728   -4.7584 H   0  0  0  0  0  0  0  0  0  0  0  0
    2.3041   -1.4990   -3.3192 N   0  0  0  0  0  0  0  0  0  0  0  0
    2.6048   -0.0979   -2.9568 C   0  0  2  0  0  0  0  0  0  0  0  0
    2.4038    0.2415   -1.4617 C   0  0  0  0  0  0  0  0  0  0  0  0
    3.3635    0.6528   -0.8259 O   0  0  0  0  0  0  0  0  0  0  0  0
    1.8323    0.8802   -3.8537 C   0  0  0  0  0  0  0  0  0  0  0  0
    3.0778   -2.0696   -3.6487 H   0  0  0  0  0  0  0  0  0  0  0  0
    3.6693    0.0615   -3.1589 H   0  0  0  0  0  0  0  0  0  0  0  0
    0.7563    0.8330   -3.6634 H   0  0  0  0  0  0  0  0  0  0  0  0
    2.1662    1.9053   -3.6629 H   0  0  0  0  0  0  0  0  0  0  0  0
    2.0092    0.6491   -4.9082 H   0  0  0  0  0  0  0  0  0  0  0  0
    1.1458    0.1610   -0.8917 N   0  0  0  0  0  0  0  0  0  0  0  0
    0.7687    0.1803    0.5386 C   0  0  2  0  0  0  0  0  0  0  0  0
   -0.1578    1.3631    0.8969 C   0  0  0  0  0  0  0  0  0  0  0  0
    0.0394    2.4795    0.4354 O   0  0  0  0  0  0  0  0  0  0  0  0
    1.8008   -0.1315    1.6545 C   0  0  0  0  0  0  0  0  0  0  0  0
    2.3677   -1.5785    1.7301 C   0  0  0  0  0  0  0  0  0  0  0  0
    3.4678   -1.6105    2.7984 C   0  0  0  0  0  0  0  0  0  0  0  0
    2.9113   -2.2165    0.4467 C   0  0  0  0  0  0  0  0  0  0  0  0
    0.4439   -0.2052   -1.5413 H   0  0  0  0  0  0  0  0  0  0  0  0
    0.0988   -0.6812    0.6037 H   0  0  0  0  0  0  0  0  0  0  0  0
    1.3280    0.0789    2.6195 H   0  0  0  0  0  0  0  0  0  0  0  0
    2.6306    0.5757    1.5598 H   0  0  0  0  0  0  0  0  0  0  0  0
    1.5480   -2.2202    2.0698 H   0  0  0  0  0  0  0  0  0  0  0  0
    4.3152   -0.9861    2.4966 H   0  0  0  0  0  0  0  0  0  0  0  0
    3.8272   -2.6331    2.9500 H   0  0  0  0  0  0  0  0  0  0  0  0
    3.0852   -1.2380    3.7538 H   0  0  0  0  0  0  0  0  0  0  0  0
    3.2254   -3.2453    0.6471 H   0  0  0  0  0  0  0  0  0  0  0  0
    3.7812   -1.6699    0.0745 H   0  0  0  0  0  0  0  0  0  0  0  0
    2.1410   -2.2540   -0.3269 H   0  0  0  0  0  0  0  0  0  0  0  0
   -1.2709    1.1409    1.6955 N   0  0  0  0  0  0  0  0  0  0  0  0
   -2.2404    2.1479    2.1783 C   0  0  2  0  0  0  0  0  0  0  0  0
   -3.1422    2.7703    1.0864 C   0  0  0  0  0  0  0  0  0  0  0  0
   -4.3535    2.8068    1.2609 O   0  0  0  0  0  0  0  0  0  0  0  0
   -1.5402    3.2425    2.9962 C   0  0  0  0  0  0  0  0  0  0  0  0
   -1.4088    0.1837    2.0053 H   0  0  0  0  0  0  0  0  0  0  0  0
   -2.9185    1.6281    2.8630 H   0  0  0  0  0  0  0  0  0  0  0  0
   -0.9210    3.8804    2.3587 H   0  0  0  0  0  0  0  0  0  0  0  0
   -2.2848    3.8760    3.4883 H   0  0  0  0  0  0  0  0  0  0  0  0
   -0.9037    2.7950    3.7653 H   0  0  0  0  0  0  0  0  0  0  0  0
   -2.6119    3.2976   -0.0734 N   0  0  0  0  0  0  0  0  0  0  0  0
   -3.3988    3.9387   -1.1170 C   0  0  0  0  0  0  0  0  0  0  0  0
   -1.5921    3.2555   -0.1625 H   0  0  0  0  0  0  0  0  0  0  0  0
   -2.7497    4.2467   -1.9422 H   0  0  0  0  0  0  0  0  0  0  0  0
   -4.1520    3.2472   -1.5084 H   0  0  0  0  0  0  0  0  0  0  0  0
   -3.9040    4.8267   -0.7234 H   0  0  0  0  0  0  0  0  0  0  0  0
  1  2  2  0  0  0  0
  1  3  1  0  0  0  0
  1  7  1  0  0  0  0
  3  4  1  0  0  0  0
  3  5  1  0  0  0  0
  3  6  1  0  0  0  0
  7  8  1  0  0  0  0
  7 12  1  0  0  0  0
  8  9  1  0  0  0  0
  8 11  1  0  0  0  0
  8 13  1  0  0  0  0
  9 10  2  0  0  0  0
  9 17  1  0  0  0  0
 11 14  1  0  0  0  0
 11 15  1  0  0  0  0
 11 16  1  0  0  0  0
 17 18  1  0  0  0  0
 17 25  1  0  0  0  0
 18 19  1  0  0  0  0
 18 21  1  0  0  0  0
 18 26  1  0  0  0  0
 19 20  2  0  0  0  0
 19 36  1  0  0  0  0
 21 22  1  0  0  0  0
 21 27  1  0  0  0  0
 21 28  1  0  0  0  0
 22 23  1  0  0  0  0
 22 24  1  0  0  0  0
 22 29  1  0  0  0  0
 23 30  1  0  0  0  0
 23 31  1  0  0  0  0
 23 32  1  0  0  0  0
 24 33  1  0  0  0  0
 24 34  1  0  0  0  0
 24 35  1  0  0  0  0
 36 37  1  0  0  0  0
 36 41  1  0  0  0  0
 37 38  1  0  0  0  0
 37 40  1  0  0  0  0
 37 42  1  0  0  0  0
 38 39  2  0  0  0  0
 38 46  1  0  0  0  0
 40 43  1  0  0  0  0
 40 44  1  0  0  0  0
 40 45  1  0  0  0  0
 46 47  1  0  0  0  0
 46 48  1  0  0  0  0
 47 49  1  0  0  0  0
 47 50  1  0  0  0  0
 47 51  1  0  0  0  0
M  END
$$$$

  -OEChem-05262216553D

 51 50  0     1  0  0  0  0  0999 V2000
    0.9939   -2.0523   -3.2486 C   0  0  0  0  0  0  0  0  0  0  0  0
    0.0427   -1.4379   -2.7906 O   0  0  0  0  0  0  0  0  0  0  0  0
    0.8084   -3.4857   -3.7097 C   0  0  0  0  0  0  0  0  0  0  0  0
    1.4990   -4.1432   -3.1758 H   0  0  0  0  0  0  0  0  0  0  0  0
   -0.2149   -3.8174   -3.5112 H   0  0  0  0  0  0  0  0  0  0  0  0
    1.0007   -3.5600   -4.7830 H   0  0  0  0  0  0  0  0  0  0  0  0
    2.2493   -1.4767   -3.3206 N   0  0  0  0  0  0  0  0  0  0  0  0
    2.6191   -0.0993   -2.9327 C   0  0  2  0  0  0  0  0  0  0  0  0
    2.4709    0.2044   -1.4243 C   0  0  0  0  0  0  0  0  0  0  0  0
    3.4663    0.5290   -0.7928 O   0  0  0  0  0  0  0  0  0  0  0  0
    1.8621    0.9314   -3.7833 C   0  0  0  0  0  0  0  0  0  0  0  0
    2.9890   -2.0713   -3.6841 H   0  0  0  0  0  0  0  0  0  0  0  0
    3.6834    0.0242   -3.1596 H   0  0  0  0  0  0  0  0  0  0  0  0
    0.7890    0.9161   -3.5718 H   0  0  0  0  0  0  0  0  0  0  0  0
    2.2352    1.9383   -3.5704 H   0  0  0  0  0  0  0  0  0  0  0  0
    2.0089    0.7259   -4.8478 H   0  0  0  0  0  0  0  0  0  0  0  0
    1.2184    0.2007   -0.8395 N   0  0  0  0  0  0  0  0  0  0  0  0
    0.8523    0.2301    0.5925 C   0  0  2  0  0  0  0  0  0  0  0  0
    0.0065    1.4686    0.9687 C   0  0  0  0  0  0  0  0  0  0  0  0
    0.0490    2.4921    0.2971 O   0  0  0  0  0  0  0  0  0  0  0  0
    1.8687   -0.1805    1.6930 C   0  0  0  0  0  0  0  0  0  0  0  0
    2.3163   -1.6705    1.7371 C   0  0  0  0  0  0  0  0  0  0  0  0
    3.4215   -1.8156    2.7903 C   0  0  0  0  0  0  0  0  0  0  0  0
    2.7975   -2.3241    0.4367 C   0  0  0  0  0  0  0  0  0  0  0  0
    0.4831   -0.0954   -1.4875 H   0  0  0  0  0  0  0  0  0  0  0  0
    0.1170   -0.5775    0.6501 H   0  0  0  0  0  0  0  0  0  0  0  0
    1.4300    0.0516    2.6685 H   0  0  0  0  0  0  0  0  0  0  0  0
    2.7527    0.4573    1.5974 H   0  0  0  0  0  0  0  0  0  0  0  0
    1.4500   -2.2507    2.0721 H   0  0  0  0  0  0  0  0  0  0  0  0
    4.3168   -1.2637    2.4858 H   0  0  0  0  0  0  0  0  0  0  0  0
    3.6902   -2.8686    2.9214 H   0  0  0  0  0  0  0  0  0  0  0  0
    3.0853   -1.4269    3.7566 H   0  0  0  0  0  0  0  0  0  0  0  0
    3.0359   -3.3772    0.6147 H   0  0  0  0  0  0  0  0  0  0  0  0
    3.7022   -1.8371    0.0648 H   0  0  0  0  0  0  0  0  0  0  0  0
    2.0191   -2.2901   -0.3288 H   0  0  0  0  0  0  0  0  0  0  0  0
   -0.9111    1.3748    2.0057 N   0  0  0  0  0  0  0  0  0  0  0  0
   -1.8348    2.4270    2.4807 C   0  0  2  0  0  0  0  0  0  0  0  0
   -2.9639    2.7924    1.4888 C   0  0  0  0  0  0  0  0  0  0  0  0
   -4.1294    2.7313    1.8588 O   0  0  0  0  0  0  0  0  0  0  0  0
   -1.0700    3.6805    2.9296 C   0  0  0  0  0  0  0  0  0  0  0  0
   -0.9472    0.4794    2.4836 H   0  0  0  0  0  0  0  0  0  0  0  0
   -2.3347    2.0296    3.3701 H   0  0  0  0  0  0  0  0  0  0  0  0
   -0.6208    4.1998    2.0783 H   0  0  0  0  0  0  0  0  0  0  0  0
   -1.7520    4.3754    3.4292 H   0  0  0  0  0  0  0  0  0  0  0  0
   -0.2752    3.4110    3.6314 H   0  0  0  0  0  0  0  0  0  0  0  0
   -2.6862    3.1722    0.1912 N   0  0  0  0  0  0  0  0  0  0  0  0
   -3.7006    3.4717   -0.8090 C   0  0  0  0  0  0  0  0  0  0  0  0
   -1.6987    3.1541   -0.0810 H   0  0  0  0  0  0  0  0  0  0  0  0
   -4.3404    4.2936   -0.4714 H   0  0  0  0  0  0  0  0  0  0  0  0
   -3.2257    3.7670   -1.7495 H   0  0  0  0  0  0  0  0  0  0  0  0
   -4.3243    2.5917   -0.9963 H   0  0  0  0  0  0  0  0  0  0  0  0
  1  2  2  0  0  0  0
  1  3  1  0  0  0  0
  1  7  1  0  0  0  0
  3  4  1  0  0  0  0
  3  5  1  0  0  0  0
  3  6  1  0  0  0  0
  7  8  1  0  0  0  0
  7 12  1  0  0  0  0
  8  9  1  0  0  0  0
  8 11  1  0  0  0  0
  8 13  1  0  0  0  0
  9 10  2  0  0  0  0
  9 17  1  0  0  0  0
 11 14  1  0  0  0  0
 11 15  1  0  0  0  0
 11 16  1  0  0  0  0
 17 18  1  0  0  0  0
 17 25  1  0  0  0  0
 18 19  1  0  0  0  0
 18 21  1  0  0  0  0
 18 26  1  0  0  0  0
 19 20  2  0  0  0  0
 19 36  1  0  0  0  0
 21 22  1  0  0  0  0
 21 27  1  0  0  0  0
 21 28  1  0  0  0  0
 22 23  1  0  0  0  0
 22 24  1  0  0  0  0
 22 29  1  0  0  0  0
 23 30  1  0  0  0  0
 23 31  1  0  0  0  0
 23 32  1  0  0  0  0
 24 33  1  0  0  0  0
 24 34  1  0  0  0  0
 24 35  1  0  0  0  0
 36 37  1  0  0  0  0
 36 41  1  0  0  0  0
 37 38  1  0  0  0  0
 37 40  1  0  0  0  0
 37 42  1  0  0  0  0
 38 39  2  0  0  0  0
 38 46  1  0  0  0  0
 40 43  1  0  0  0  0
 40 44  1  0  0  0  0
 40 45  1  0  0  0  0
 46 47  1  0  0  0  0
 46 48  1  0  0  0  0
 47 49  1  0  0  0  0
 47 50  1  0  0  0  0
 47 51  1  0  0  0  0
M  END
$$$$

  -OEChem-05262216553D

 51 50  0     1  0  0  0  0  0999 V2000
    0.9425   -2.0449   -3.2514 C   0  0  0  0  0  0  0  0  0  0  0  0
    0.0133   -1.3843   -2.8136 O   0  0  0  0  0  0  0  0  0  0  0  0
    0.7045   -3.4808   -3.6798 C   0  0  0  0  0  0  0  0  0  0  0  0
    1.3181   -4.1569   -3.0792 H   0  0  0  0  0  0  0  0  0  0  0  0
   -0.3476   -3.7468   -3.5431 H   0  0  0  0  0  0  0  0  0  0  0  0
    0.9630   -3.6045   -4.7343 H   0  0  0  0  0  0  0  0  0  0  0  0
    2.2207   -1.5221   -3.3196 N   0  0  0  0  0  0  0  0  0  0  0  0
    2.6415   -0.1542   -2.9509 C   0  0  2  0  0  0  0  0  0  0  0  0
    2.5058    0.1754   -1.4466 C   0  0  0  0  0  0  0  0  0  0  0  0
    3.5101    0.4948   -0.8262 O   0  0  0  0  0  0  0  0  0  0  0  0
    1.9255    0.8941   -3.8153 C   0  0  0  0  0  0  0  0  0  0  0  0
    2.9404   -2.1539   -3.6589 H   0  0  0  0  0  0  0  0  0  0  0  0
    3.7096   -0.0754   -3.1795 H   0  0  0  0  0  0  0  0  0  0  0  0
    0.8547    0.9325   -3.5949 H   0  0  0  0  0  0  0  0  0  0  0  0
    2.3466    1.8865   -3.6248 H   0  0  0  0  0  0  0  0  0  0  0  0
    2.0530    0.6617   -4.8767 H   0  0  0  0  0  0  0  0  0  0  0  0
    1.2588    0.1983   -0.8502 N   0  0  0  0  0  0  0  0  0  0  0  0
    0.9022    0.2400    0.5852 C   0  0  2  0  0  0  0  0  0  0  0  0
    0.0821    1.4996    0.9589 C   0  0  0  0  0  0  0  0  0  0  0  0
   -0.0752    2.4136    0.1578 O   0  0  0  0  0  0  0  0  0  0  0  0
    1.9319   -0.1896    1.6694 C   0  0  0  0  0  0  0  0  0  0  0  0
    2.3549   -1.6868    1.7074 C   0  0  0  0  0  0  0  0  0  0  0  0
    3.4759   -1.8471    2.7421 C   0  0  0  0  0  0  0  0  0  0  0  0
    2.8020   -2.3535    0.4018 C   0  0  0  0  0  0  0  0  0  0  0  0
    0.5076   -0.0666   -1.4938 H   0  0  0  0  0  0  0  0  0  0  0  0
    0.1494   -0.5500    0.6597 H   0  0  0  0  0  0  0  0  0  0  0  0
    1.5188    0.0449    2.6545 H   0  0  0  0  0  0  0  0  0  0  0  0
    2.8246    0.4328    1.5601 H   0  0  0  0  0  0  0  0  0  0  0  0
    1.4851   -2.2512    2.0596 H   0  0  0  0  0  0  0  0  0  0  0  0
    4.3736   -1.3077    2.4223 H   0  0  0  0  0  0  0  0  0  0  0  0
    3.7334   -2.9034    2.8688 H   0  0  0  0  0  0  0  0  0  0  0  0
    3.1615   -1.4532    3.7138 H   0  0  0  0  0  0  0  0  0  0  0  0
    3.0211   -3.4109    0.5795 H   0  0  0  0  0  0  0  0  0  0  0  0
    3.7106   -1.8868    0.0136 H   0  0  0  0  0  0  0  0  0  0  0  0
    2.0117   -2.3051   -0.3505 H   0  0  0  0  0  0  0  0  0  0  0  0
   -0.5924    1.5433    2.1712 N   0  0  0  0  0  0  0  0  0  0  0  0
   -1.4335    2.6423    2.6912 C   0  0  2  0  0  0  0  0  0  0  0  0
   -2.7623    2.8574    1.9305 C   0  0  0  0  0  0  0  0  0  0  0  0
   -3.8196    2.8151    2.5464 O   0  0  0  0  0  0  0  0  0  0  0  0
   -0.6385    3.9520    2.7934 C   0  0  0  0  0  0  0  0  0  0  0  0
   -0.4783    0.7292    2.7673 H   0  0  0  0  0  0  0  0  0  0  0  0
   -1.7159    2.3663    3.7123 H   0  0  0  0  0  0  0  0  0  0  0  0
   -0.3990    4.3518    1.8038 H   0  0  0  0  0  0  0  0  0  0  0  0
   -1.2244    4.7042    3.3307 H   0  0  0  0  0  0  0  0  0  0  0  0
    0.2963    3.7879    3.3374 H   0  0  0  0  0  0  0  0  0  0  0  0
   -2.7812    3.0836    0.5694 N   0  0  0  0  0  0  0  0  0  0  0  0
   -3.9959    3.2288   -0.2193 C   0  0  0  0  0  0  0  0  0  0  0  0
   -1.8744    3.0356    0.0952 H   0  0  0  0  0  0  0  0  0  0  0  0
   -3.7440    3.4534   -1.2602 H   0  0  0  0  0  0  0  0  0  0  0  0
   -4.5808    2.3037   -0.1945 H   0  0  0  0  0  0  0  0  0  0  0  0
   -4.6108    4.0463    0.1710 H   0  0  0  0  0  0  0  0  0  0  0  0
  1  2  2  0  0  0  0
  1  3  1  0  0  0  0
  1  7  1  0  0  0  0
  3  4  1  0  0  0  0
  3  5  1  0  0  0  0
  3  6  1  0  0  0  0
  7  8  1  0  0  0  0
  7 12  1  0  0  0  0
  8  9  1  0  0  0  0
  8 11  1  0  0  0  0
  8 13  1  0  0  0  0
  9 10  2  0  0  0  0
  9 17  1  0  0  0  0
 11 14  1  0  0  0  0
 11 15  1  0  0  0  0
 11 16  1  0  0  0  0
 17 18  1  0  0  0  0
 17 25  1  0  0  0  0
 18 19  1  0  0  0  0
 18 21  1  0  0  0  0
 18 26  1  0  0  0  0
 19 20  2  0  0  0  0
 19 36  1  0  0  0  0
 21 22  1  0  0  0  0
 21 27  1  0  0  0  0
 21 28  1  0  0  0  0
 22 23  1  0  0  0  0
 22 24  1  0  0  0  0
 22 29  1  0  0  0  0
 23 30  1  0  0  0  0
 23 31  1  0  0  0  0
 23 32  1  0  0  0  0
 24 33  1  0  0  0  0
 24 34  1  0  0  0  0
 24 35  1  0  0  0  0
 36 37  1  0  0  0  0
 36 41  1  0  0  0  0
 37 38  1  0  0  0  0
 37 40  1  0  0  0  0
 37 42  1  0  0  0  0
 38 39  2  0  0  0  0
 38 46  1  0  0  0  0
 40 43  1  0  0  0  0
 40 44  1  0  0  0  0
 40 45  1  0  0  0  0
 46 47  1  0  0  0  0
 46 48  1  0  0  0  0
 47 49  1  0  0  0  0
 47 50  1  0  0  0  0
 47 51  1  0  0  0  0
M  END
$$$$

  -OEChem-05262216553D

 51 50  0     1  0  0  0  0  0999 V2000
    2.3398   -2.5594   -3.5019 C   0  0  0  0  0  0  0  0  0  0  0  0
    1.4680   -3.0640   -2.8134 O   0  0  0  0  0  0  0  0  0  0  0  0
    3.5175   -3.4027   -3.9522 C   0  0  0  0  0  0  0  0  0  0  0  0
    4.4463   -2.9899   -3.5509 H   0  0  0  0  0  0  0  0  0  0  0  0
    3.4054   -4.4297   -3.5934 H   0  0  0  0  0  0  0  0  0  0  0  0
    3.5726   -3.4152   -5.0434 H   0  0  0  0  0  0  0  0  0  0  0  0
    2.2864   -1.2273   -3.8664 N   0  0  0  0  0  0  0  0  0  0  0  0
    1.3500   -0.2365   -3.3040 C   0  0  2  0  0  0  0  0  0  0  0  0
    1.6117    0.0375   -1.8023 C   0  0  0  0  0  0  0  0  0  0  0  0
    2.7549    0.3134   -1.4636 O   0  0  0  0  0  0  0  0  0  0  0  0
   -0.1120   -0.5995   -3.6236 C   0  0  0  0  0  0  0  0  0  0  0  0
    3.1404   -0.8631   -4.2788 H   0  0  0  0  0  0  0  0  0  0  0  0
    1.5470    0.7129   -3.8116 H   0  0  0  0  0  0  0  0  0  0  0  0
   -0.4568   -1.4421   -3.0169 H   0  0  0  0  0  0  0  0  0  0  0  0
   -0.7670    0.2551   -3.4278 H   0  0  0  0  0  0  0  0  0  0  0  0
   -0.2109   -0.8705   -4.6793 H   0  0  0  0  0  0  0  0  0  0  0  0
    0.5632    0.2712   -0.9293 N   0  0  0  0  0  0  0  0  0  0  0  0
    0.5544    0.4466    0.5430 C   0  0  2  0  0  0  0  0  0  0  0  0
   -0.3245    1.6512    0.9650 C   0  0  0  0  0  0  0  0  0  0  0  0
   -1.0162    2.2199    0.1261 O   0  0  0  0  0  0  0  0  0  0  0  0
    1.8123    0.1748    1.4250 C   0  0  0  0  0  0  0  0  0  0  0  0
    2.3380   -1.2880    1.5467 C   0  0  0  0  0  0  0  0  0  0  0  0
    3.6551   -1.2705    2.3324 C   0  0  0  0  0  0  0  0  0  0  0  0
    2.5199   -2.1466    0.2936 C   0  0  0  0  0  0  0  0  0  0  0  0
   -0.3539    0.2505   -1.3676 H   0  0  0  0  0  0  0  0  0  0  0  0
   -0.0831   -0.3858    0.8558 H   0  0  0  0  0  0  0  0  0  0  0  0
    1.6136    0.5126    2.4449 H   0  0  0  0  0  0  0  0  0  0  0  0
    2.6212    0.8060    1.0429 H   0  0  0  0  0  0  0  0  0  0  0  0
    1.5991   -1.8196    2.1556 H   0  0  0  0  0  0  0  0  0  0  0  0
    4.4338   -0.7524    1.7631 H   0  0  0  0  0  0  0  0  0  0  0  0
    3.9946   -2.2913    2.5349 H   0  0  0  0  0  0  0  0  0  0  0  0
    3.5249   -0.7581    3.2908 H   0  0  0  0  0  0  0  0  0  0  0  0
    2.7637   -3.1743    0.5796 H   0  0  0  0  0  0  0  0  0  0  0  0
    1.5966   -2.1812   -0.2880 H   0  0  0  0  0  0  0  0  0  0  0  0
    3.3396   -1.7774   -0.3263 H   0  0  0  0  0  0  0  0  0  0  0  0
   -0.4706    1.9937    2.3016 N   0  0  0  0  0  0  0  0  0  0  0  0
   -1.2557    3.1141    2.8626 C   0  0  2  0  0  0  0  0  0  0  0  0
   -2.7906    2.9567    2.7580 C   0  0  0  0  0  0  0  0  0  0  0  0
   -3.4763    3.0764    3.7647 O   0  0  0  0  0  0  0  0  0  0  0  0
   -0.8018    4.4576    2.2739 C   0  0  0  0  0  0  0  0  0  0  0  0
    0.0762    1.4441    2.9578 H   0  0  0  0  0  0  0  0  0  0  0  0
   -1.0320    3.1489    3.9340 H   0  0  0  0  0  0  0  0  0  0  0  0
   -1.0880    4.5483    1.2220 H   0  0  0  0  0  0  0  0  0  0  0  0
   -1.2655    5.2822    2.8243 H   0  0  0  0  0  0  0  0  0  0  0  0
    0.2850    4.5595    2.3489 H   0  0  0  0  0  0  0  0  0  0  0  0
   -3.4046    2.6931    1.5504 N   0  0  0  0  0  0  0  0  0  0  0  0
   -4.8439    2.5637    1.3735 C   0  0  0  0  0  0  0  0  0  0  0  0
   -2.7840    2.5948    0.7423 H   0  0  0  0  0  0  0  0  0  0  0  0
   -5.0768    2.3527    0.3255 H   0  0  0  0  0  0  0  0  0  0  0  0
   -5.2335    1.7450    1.9870 H   0  0  0  0  0  0  0  0  0  0  0  0
   -5.3497    3.4914    1.6602 H   0  0  0  0  0  0  0  0  0  0  0  0
  1  2  2  0  0  0  0
  1  3  1  0  0  0  0
  1  7  1  0  0  0  0
  3  4  1  0  0  0  0
  3  5  1  0  0  0  0
  3  6  1  0  0  0  0
  7  8  1  0  0  0  0
  7 12  1  0  0  0  0
  8  9  1  0  0  0  0
  8 11  1  0  0  0  0
  8 13  1  0  0  0  0
  9 10  2  0  0  0  0
  9 17  1  0  0  0  0
 11 14  1  0  0  0  0
 11 15  1  0  0  0  0
 11 16  1  0  0  0  0
 17 18  1  0  0  0  0
 17 25  1  0  0  0  0
 18 19  1  0  0  0  0
 18 21  1  0  0  0  0
 18 26  1  0  0  0  0
 19 20  2  0  0  0  0
 19 36  1  0  0  0  0
 21 22  1  0  0  0  0
 21 27  1  0  0  0  0
 21 28  1  0  0  0  0
 22 23  1  0  0  0  0
 22 24  1  0  0  0  0
 22 29  1  0  0  0  0
 23 30  1  0  0  0  0
 23 31  1  0  0  0  0
 23 32  1  0  0  0  0
 24 33  1  0  0  0  0
 24 34  1  0  0  0  0
 24 35  1  0  0  0  0
 36 37  1  0  0  0  0
 36 41  1  0  0  0  0
 37 38  1  0  0  0  0
 37 40  1  0  0  0  0
 37 42  1  0  0  0  0
 38 39  2  0  0  0  0
 38 46  1  0  0  0  0
 40 43  1  0  0  0  0
 40 44  1  0  0  0  0
 40 45  1  0  0  0  0
 46 47  1  0  0  0  0
 46 48  1  0  0  0  0
 47 49  1  0  0  0  0
 47 50  1  0  0  0  0
 47 51  1  0  0  0  0
M  END
$$$$

  -OEChem-05262216553D

 51 50  0     1  0  0  0  0  0999 V2000
    2.3644   -2.5810   -3.5119 C   0  0  0  0  0  0  0  0  0  0  0  0
    1.5017   -3.1014   -2.8236 O   0  0  0  0  0  0  0  0  0  0  0  0
    3.5546   -3.4037   -3.9676 C   0  0  0  0  0  0  0  0  0  0  0  0
    4.4791   -2.9649   -3.5843 H   0  0  0  0  0  0  0  0  0  0  0  0
    3.4709   -4.4283   -3.5941 H   0  0  0  0  0  0  0  0  0  0  0  0
    3.5950   -3.4290   -5.0593 H   0  0  0  0  0  0  0  0  0  0  0  0
    2.2915   -1.2485   -3.8713 N   0  0  0  0  0  0  0  0  0  0  0  0
    1.3507   -0.2716   -3.2932 C   0  0  2  0  0  0  0  0  0  0  0  0
    1.6279   -0.0020   -1.7941 C   0  0  0  0  0  0  0  0  0  0  0  0
    2.7783    0.2481   -1.4589 O   0  0  0  0  0  0  0  0  0  0  0  0
   -0.1117   -0.6497   -3.5937 C   0  0  0  0  0  0  0  0  0  0  0  0
    3.1405   -0.8721   -4.2830 H   0  0  0  0  0  0  0  0  0  0  0  0
    1.5306    0.6818   -3.7991 H   0  0  0  0  0  0  0  0  0  0  0  0
   -0.4418   -1.4919   -2.9781 H   0  0  0  0  0  0  0  0  0  0  0  0
   -0.7726    0.1998   -3.3952 H   0  0  0  0  0  0  0  0  0  0  0  0
   -0.2203   -0.9276   -4.6464 H   0  0  0  0  0  0  0  0  0  0  0  0
    0.5891    0.2710   -0.9217 N   0  0  0  0  0  0  0  0  0  0  0  0
    0.5895    0.4549    0.5480 C   0  0  2  0  0  0  0  0  0  0  0  0
   -0.2536    1.6947    0.9400 C   0  0  0  0  0  0  0  0  0  0  0  0
   -1.1073    2.1017    0.1577 O   0  0  0  0  0  0  0  0  0  0  0  0
    1.8372    0.1397    1.4293 C   0  0  0  0  0  0  0  0  0  0  0  0
    2.3027   -1.3431    1.5548 C   0  0  0  0  0  0  0  0  0  0  0  0
    3.6209   -1.3770    2.3376 C   0  0  0  0  0  0  0  0  0  0  0  0
    2.4501   -2.2107    0.3027 C   0  0  0  0  0  0  0  0  0  0  0  0
   -0.3323    0.2594   -1.3524 H   0  0  0  0  0  0  0  0  0  0  0  0
   -0.0774   -0.3503    0.8707 H   0  0  0  0  0  0  0  0  0  0  0  0
    1.6470    0.4813    2.4494 H   0  0  0  0  0  0  0  0  0  0  0  0
    2.6704    0.7389    1.0482 H   0  0  0  0  0  0  0  0  0  0  0  0
    1.5437   -1.8427    2.1658 H   0  0  0  0  0  0  0  0  0  0  0  0
    4.4186   -0.8926    1.7653 H   0  0  0  0  0  0  0  0  0  0  0  0
    3.9189   -2.4104    2.5415 H   0  0  0  0  0  0  0  0  0  0  0  0
    3.5144   -0.8575    3.2951 H   0  0  0  0  0  0  0  0  0  0  0  0
    2.6582   -3.2457    0.5908 H   0  0  0  0  0  0  0  0  0  0  0  0
    1.5246   -2.2146   -0.2766 H   0  0  0  0  0  0  0  0  0  0  0  0
    3.2803   -1.8722   -0.3208 H   0  0  0  0  0  0  0  0  0  0  0  0
   -0.1694    2.2658    2.2015 N   0  0  0  0  0  0  0  0  0  0  0  0
   -0.8899    3.4583    2.6976 C   0  0  2  0  0  0  0  0  0  0  0  0
   -2.4083    3.2650    2.9159 C   0  0  0  0  0  0  0  0  0  0  0  0
   -2.9089    3.6026    3.9805 O   0  0  0  0  0  0  0  0  0  0  0  0
   -0.6188    4.6816    1.8097 C   0  0  0  0  0  0  0  0  0  0  0  0
    0.5337    1.8672    2.8165 H   0  0  0  0  0  0  0  0  0  0  0  0
   -0.4743    3.6877    3.6844 H   0  0  0  0  0  0  0  0  0  0  0  0
   -1.0981    4.5783    0.8318 H   0  0  0  0  0  0  0  0  0  0  0  0
   -1.0133    5.5844    2.2871 H   0  0  0  0  0  0  0  0  0  0  0  0
    0.4569    4.8117    1.6579 H   0  0  0  0  0  0  0  0  0  0  0  0
   -3.2152    2.7321    1.9311 N   0  0  0  0  0  0  0  0  0  0  0  0
   -4.6567    2.5693    2.0546 C   0  0  0  0  0  0  0  0  0  0  0  0
   -2.7517    2.4896    1.0513 H   0  0  0  0  0  0  0  0  0  0  0  0
   -5.0637    2.1119    1.1479 H   0  0  0  0  0  0  0  0  0  0  0  0
   -4.8977    1.9240    2.9057 H   0  0  0  0  0  0  0  0  0  0  0  0
   -5.1393    3.5413    2.1997 H   0  0  0  0  0  0  0  0  0  0  0  0
  1  2  2  0  0  0  0
  1  3  1  0  0  0  0
  1  7  1  0  0  0  0
  3  4  1  0  0  0  0
  3  5  1  0  0  0  0
  3  6  1  0  0  0  0
  7  8  1  0  0  0  0
  7 12  1  0  0  0  0
  8  9  1  0  0  0  0
  8 11  1  0  0  0  0
  8 13  1  0  0  0  0
  9 10  2  0  0  0  0
  9 17  1  0  0  0  0
 11 14  1  0  0  0  0
 11 15  1  0  0  0  0
 11 16  1  0  0  0  0
 17 18  1  0  0  0  0
 17 25  1  0  0  0  0
 18 19  1  0  0  0  0
 18 21  1  0  0  0  0
 18 26  1  0  0  0  0
 19 20  2  0  0  0  0
 19 36  1  0  0  0  0
 21 22  1  0  0  0  0
 21 27  1  0  0  0  0
 21 28  1  0  0  0  0
 22 23  1  0  0  0  0
 22 24  1  0  0  0  0
 22 29  1  0  0  0  0
 23 30  1  0  0  0  0
 23 31  1  0  0  0  0
 23 32  1  0  0  0  0
 24 33  1  0  0  0  0
 24 34  1  0  0  0  0
 24 35  1  0  0  0  0
 36 37  1  0  0  0  0
 36 41  1  0  0  0  0
 37 38  1  0  0  0  0
 37 40  1  0  0  0  0
 37 42  1  0  0  0  0
 38 39  2  0  0  0  0
 38 46  1  0  0  0  0
 40 43  1  0  0  0  0
 40 44  1  0  0  0  0
 40 45  1  0  0  0  0
 46 47  1  0  0  0  0
 46 48  1  0  0  0  0
 47 49  1  0  0  0  0
 47 50  1  0  0  0  0
 47 51  1  0  0  0  0
M  END
$$$$

  -OEChem-05262216553D

 51 50  0     1  0  0  0  0  0999 V2000
    2.5100   -2.6150   -3.5140 C   0  0  0  0  0  0  0  0  0  0  0  0
    1.7127   -3.2223   -2.8183 O   0  0  0  0  0  0  0  0  0  0  0  0
    3.7829   -3.3066   -3.9648 C   0  0  0  0  0  0  0  0  0  0  0  0
    4.6504   -2.8189   -3.5133 H   0  0  0  0  0  0  0  0  0  0  0  0
    3.7704   -4.3566   -3.6592 H   0  0  0  0  0  0  0  0  0  0  0  0
    3.8705   -3.2584   -5.0528 H   0  0  0  0  0  0  0  0  0  0  0  0
    2.2915   -1.3009   -3.8837 N   0  0  0  0  0  0  0  0  0  0  0  0
    1.2639   -0.4190   -3.2978 C   0  0  2  0  0  0  0  0  0  0  0  0
    1.5601   -0.0687   -1.8186 C   0  0  0  0  0  0  0  0  0  0  0  0
    2.7111    0.2097   -1.5072 O   0  0  0  0  0  0  0  0  0  0  0  0
   -0.1565   -0.9685   -3.5244 C   0  0  0  0  0  0  0  0  0  0  0  0
    3.0981   -0.8408   -4.2959 H   0  0  0  0  0  0  0  0  0  0  0  0
    1.3138    0.5296   -3.8410 H   0  0  0  0  0  0  0  0  0  0  0  0
   -0.3729   -1.8037   -2.8516 H   0  0  0  0  0  0  0  0  0  0  0  0
   -0.9003   -0.1858   -3.3476 H   0  0  0  0  0  0  0  0  0  0  0  0
   -0.2670   -1.3168   -4.5559 H   0  0  0  0  0  0  0  0  0  0  0  0
    0.5339    0.2482   -0.9457 N   0  0  0  0  0  0  0  0  0  0  0  0
    0.5576    0.4499    0.5218 C   0  0  2  0  0  0  0  0  0  0  0  0
   -0.2414    1.7205    0.9001 C   0  0  0  0  0  0  0  0  0  0  0  0
   -1.2347    2.0088    0.2401 O   0  0  0  0  0  0  0  0  0  0  0  0
    1.8069    0.1195    1.3947 C   0  0  0  0  0  0  0  0  0  0  0  0
    2.2435   -1.3697    1.5357 C   0  0  0  0  0  0  0  0  0  0  0  0
    3.5686   -1.4171    2.3067 C   0  0  0  0  0  0  0  0  0  0  0  0
    2.3653   -2.2495    0.2893 C   0  0  0  0  0  0  0  0  0  0  0  0
   -0.3958    0.2021   -1.3561 H   0  0  0  0  0  0  0  0  0  0  0  0
   -0.1268   -0.3312    0.8675 H   0  0  0  0  0  0  0  0  0  0  0  0
    1.6250    0.4716    2.4136 H   0  0  0  0  0  0  0  0  0  0  0  0
    2.6491    0.6992    1.0036 H   0  0  0  0  0  0  0  0  0  0  0  0
    1.4811   -1.8494    2.1589 H   0  0  0  0  0  0  0  0  0  0  0  0
    4.3706   -0.9571    1.7202 H   0  0  0  0  0  0  0  0  0  0  0  0
    3.8487   -2.4525    2.5248 H   0  0  0  0  0  0  0  0  0  0  0  0
    3.4809   -0.8806    3.2564 H   0  0  0  0  0  0  0  0  0  0  0  0
    2.5741   -3.2833    0.5816 H   0  0  0  0  0  0  0  0  0  0  0  0
    1.4295   -2.2545   -0.2741 H   0  0  0  0  0  0  0  0  0  0  0  0
    3.1856   -1.9196   -0.3520 H   0  0  0  0  0  0  0  0  0  0  0  0
    0.0847    2.4829    2.0118 N   0  0  0  0  0  0  0  0  0  0  0  0
   -0.5437    3.7469    2.4520 C   0  0  2  0  0  0  0  0  0  0  0  0
   -1.9902    3.6172    2.9833 C   0  0  0  0  0  0  0  0  0  0  0  0
   -2.2838    4.1304    4.0550 O   0  0  0  0  0  0  0  0  0  0  0  0
   -0.4595    4.8167    1.3541 C   0  0  0  0  0  0  0  0  0  0  0  0
    0.9259    2.1952    2.5030 H   0  0  0  0  0  0  0  0  0  0  0  0
    0.0492    4.1136    3.2963 H   0  0  0  0  0  0  0  0  0  0  0  0
   -1.1148    4.5749    0.5124 H   0  0  0  0  0  0  0  0  0  0  0  0
   -0.7651    5.7888    1.7543 H   0  0  0  0  0  0  0  0  0  0  0  0
    0.5665    4.9024    0.9837 H   0  0  0  0  0  0  0  0  0  0  0  0
   -2.9641    2.9514    2.2672 N   0  0  0  0  0  0  0  0  0  0  0  0
   -4.3539    2.8390    2.6863 C   0  0  0  0  0  0  0  0  0  0  0  0
   -2.6738    2.5622    1.3662 H   0  0  0  0  0  0  0  0  0  0  0  0
   -4.9195    2.2476    1.9601 H   0  0  0  0  0  0  0  0  0  0  0  0
   -4.4212    2.3463    3.6617 H   0  0  0  0  0  0  0  0  0  0  0  0
   -4.8128    3.8304    2.7599 H   0  0  0  0  0  0  0  0  0  0  0  0
  1  2  2  0  0  0  0
  1  3  1  0  0  0  0
  1  7  1  0  0  0  0
  3  4  1  0  0  0  0
  3  5  1  0  0  0  0
  3  6  1  0  0  0  0
  7  8  1  0  0  0  0
  7 12  1  0  0  0  0
  8  9  1  0  0  0  0
  8 11  1  0  0  0  0
  8 13  1  0  0  0  0
  9 10  2  0  0  0  0
  9 17  1  0  0  0  0
 11 14  1  0  0  0  0
 11 15  1  0  0  0  0
 11 16  1  0  0  0  0
 17 18  1  0  0  0  0
 17 25  1  0  0  0  0
 18 19  1  0  0  0  0
 18 21  1  0  0  0  0
 18 26  1  0  0  0  0
 19 20  2  0  0  0  0
 19 36  1  0  0  0  0
 21 22  1  0  0  0  0
 21 27  1  0  0  0  0
 21 28  1  0  0  0  0
 22 23  1  0  0  0  0
 22 24  1  0  0  0  0
 22 29  1  0  0  0  0
 23 30  1  0  0  0  0
 23 31  1  0  0  0  0
 23 32  1  0  0  0  0
 24 33  1  0  0  0  0
 24 34  1  0  0  0  0
 24 35  1  0  0  0  0
 36 37  1  0  0  0  0
 36 41  1  0  0  0  0
 37 38  1  0  0  0  0
 37 40  1  0  0  0  0
 37 42  1  0  0  0  0
 38 39  2  0  0  0  0
 38 46  1  0  0  0  0
 40 43  1  0  0  0  0
 40 44  1  0  0  0  0
 40 45  1  0  0  0  0
 46 47  1  0  0  0  0
 46 48  1  0  0  0  0
 47 49  1  0  0  0  0
 47 50  1  0  0  0  0
 47 51  1  0  0  0  0
M  END
$$$$

  -OEChem-05262216553D

 51 50  0     1  0  0  0  0  0999 V2000
    2.5215   -2.9367   -3.2515 C   0  0  0  0  0  0  0  0  0  0  0  0
    1.8154   -3.4971   -2.4297 O   0  0  0  0  0  0  0  0  0  0  0  0
    3.8109   -3.5984   -3.6993 C   0  0  0  0  0  0  0  0  0  0  0  0
    4.6656   -2.9864   -3.4004 H   0  0  0  0  0  0  0  0  0  0  0  0
    3.9076   -4.5861   -3.2395 H   0  0  0  0  0  0  0  0  0  0  0  0
    3.8145   -3.7151   -4.7858 H   0  0  0  0  0  0  0  0  0  0  0  0
    2.1850   -1.7002   -3.7699 N   0  0  0  0  0  0  0  0  0  0  0  0
    1.1302   -0.8169   -3.2370 C   0  0  2  0  0  0  0  0  0  0  0  0
    1.4860   -0.2404   -1.8445 C   0  0  0  0  0  0  0  0  0  0  0  0
    2.6279    0.1576   -1.6521 O   0  0  0  0  0  0  0  0  0  0  0  0
   -0.2548   -1.4878   -3.2850 C   0  0  0  0  0  0  0  0  0  0  0  0
    2.9255   -1.2504   -4.3005 H   0  0  0  0  0  0  0  0  0  0  0  0
    1.0738    0.0469   -3.9061 H   0  0  0  0  0  0  0  0  0  0  0  0
   -0.3630   -2.2351   -2.4933 H   0  0  0  0  0  0  0  0  0  0  0  0
   -1.0455   -0.7417   -3.1602 H   0  0  0  0  0  0  0  0  0  0  0  0
   -0.4011   -1.9816   -4.2506 H   0  0  0  0  0  0  0  0  0  0  0  0
    0.4916    0.1344   -0.9585 N   0  0  0  0  0  0  0  0  0  0  0  0
    0.5901    0.5174    0.4679 C   0  0  2  0  0  0  0  0  0  0  0  0
   -0.2501    1.7844    0.7378 C   0  0  0  0  0  0  0  0  0  0  0  0
   -1.3931    1.8357    0.2966 O   0  0  0  0  0  0  0  0  0  0  0  0
    1.9000    0.3718    1.2982 C   0  0  0  0  0  0  0  0  0  0  0  0
    2.4383   -1.0589    1.5959 C   0  0  0  0  0  0  0  0  0  0  0  0
    3.8016   -0.9327    2.2869 C   0  0  0  0  0  0  0  0  0  0  0  0
    2.5550   -2.0768    0.4602 C   0  0  0  0  0  0  0  0  0  0  0  0
   -0.4519   -0.0647   -1.2820 H   0  0  0  0  0  0  0  0  0  0  0  0
   -0.0268   -0.2480    0.9496 H   0  0  0  0  0  0  0  0  0  0  0  0
    1.7416    0.8433    2.2728 H   0  0  0  0  0  0  0  0  0  0  0  0
    2.6831    0.9433    0.7900 H   0  0  0  0  0  0  0  0  0  0  0  0
    1.7407   -1.4997    2.3161 H   0  0  0  0  0  0  0  0  0  0  0  0
    4.5415   -0.5091    1.6001 H   0  0  0  0  0  0  0  0  0  0  0  0
    4.1569   -1.9143    2.6158 H   0  0  0  0  0  0  0  0  0  0  0  0
    3.7296   -0.2840    3.1653 H   0  0  0  0  0  0  0  0  0  0  0  0
    2.8528   -3.0501    0.8621 H   0  0  0  0  0  0  0  0  0  0  0  0
    1.5931   -2.2125   -0.0387 H   0  0  0  0  0  0  0  0  0  0  0  0
    3.3131   -1.7758   -0.2661 H   0  0  0  0  0  0  0  0  0  0  0  0
    0.2496    2.8331    1.4947 N   0  0  0  0  0  0  0  0  0  0  0  0
   -0.4074    4.1251    1.7853 C   0  0  2  0  0  0  0  0  0  0  0  0
   -1.6459    4.0375    2.7073 C   0  0  0  0  0  0  0  0  0  0  0  0
   -1.7186    4.7690    3.6860 O   0  0  0  0  0  0  0  0  0  0  0  0
   -0.7402    4.8790    0.4902 C   0  0  0  0  0  0  0  0  0  0  0  0
    1.2163    2.7305    1.7913 H   0  0  0  0  0  0  0  0  0  0  0  0
    0.3232    4.7349    2.3272 H   0  0  0  0  0  0  0  0  0  0  0  0
   -1.5440    4.3842   -0.0622 H   0  0  0  0  0  0  0  0  0  0  0  0
   -1.0653    5.8978    0.7229 H   0  0  0  0  0  0  0  0  0  0  0  0
    0.1421    4.9366   -0.1542 H   0  0  0  0  0  0  0  0  0  0  0  0
   -2.6755    3.1551    2.4492 N   0  0  0  0  0  0  0  0  0  0  0  0
   -3.8721    3.0319    3.2698 C   0  0  0  0  0  0  0  0  0  0  0  0
   -2.5709    2.5706    1.6155 H   0  0  0  0  0  0  0  0  0  0  0  0
   -3.6065    2.7552    4.2954 H   0  0  0  0  0  0  0  0  0  0  0  0
   -4.4216    3.9787    3.2908 H   0  0  0  0  0  0  0  0  0  0  0  0
   -4.5305    2.2589    2.8621 H   0  0  0  0  0  0  0  0  0  0  0  0
  1  2  2  0  0  0  0
  1  3  1  0  0  0  0
  1  7  1  0  0  0  0
  3  4  1  0  0  0  0
  3  5  1  0  0  0  0
  3  6  1  0  0  0  0
  7  8  1  0  0  0  0
  7 12  1  0  0  0  0
  8  9  1  0  0  0  0
  8 11  1  0  0  0  0
  8 13  1  0  0  0  0
  9 10  2  0  0  0  0
  9 17  1  0  0  0  0
 11 14  1  0  0  0  0
 11 15  1  0  0  0  0
 11 16  1  0  0  0  0
 17 18  1  0  0  0  0
 17 25  1  0  0  0  0
 18 19  1  0  0  0  0
 18 21  1  0  0  0  0
 18 26  1  0  0  0  0
 19 20  2  0  0  0  0
 19 36  1  0  0  0  0
 21 22  1  0  0  0  0
 21 27  1  0  0  0  0
 21 28  1  0  0  0  0
 22 23  1  0  0  0  0
 22 24  1  0  0  0  0
 22 29  1  0  0  0  0
 23 30  1  0  0  0  0
 23 31  1  0  0  0  0
 23 32  1  0  0  0  0
 24 33  1  0  0  0  0
 24 34  1  0  0  0  0
 24 35  1  0  0  0  0
 36 37  1  0  0  0  0
 36 41  1  0  0  0  0
 37 38  1  0  0  0  0
 37 40  1  0  0  0  0
 37 42  1  0  0  0  0
 38 39  2  0  0  0  0
 38 46  1  0  0  0  0
 40 43  1  0  0  0  0
 40 44  1  0  0  0  0
 40 45  1  0  0  0  0
 46 47  1  0  0  0  0
 46 48  1  0  0  0  0
 47 49  1  0  0  0  0
 47 50  1  0  0  0  0
 47 51  1  0  0  0  0
M  END
$$$$

  -OEChem-05262216553D

 51 50  0     1  0  0  0  0  0999 V2000
    2.5411   -3.0159   -3.1704 C   0  0  0  0  0  0  0  0  0  0  0  0
    1.8328   -3.5459   -2.3306 O   0  0  0  0  0  0  0  0  0  0  0  0
    3.8383   -3.6864   -3.5812 C   0  0  0  0  0  0  0  0  0  0  0  0
    4.6878   -3.0734   -3.2698 H   0  0  0  0  0  0  0  0  0  0  0  0
    3.9210   -4.6692   -3.1086 H   0  0  0  0  0  0  0  0  0  0  0  0
    3.8669   -3.8146   -4.6659 H   0  0  0  0  0  0  0  0  0  0  0  0
    2.2013   -1.8031   -3.7396 N   0  0  0  0  0  0  0  0  0  0  0  0
    1.1353   -0.9058   -3.2538 C   0  0  2  0  0  0  0  0  0  0  0  0
    1.4856   -0.2512   -1.8946 C   0  0  0  0  0  0  0  0  0  0  0  0
    2.6063    0.2194   -1.7481 O   0  0  0  0  0  0  0  0  0  0  0  0
   -0.2440   -1.5902   -3.2684 C   0  0  0  0  0  0  0  0  0  0  0  0
    2.9425   -1.3705   -4.2838 H   0  0  0  0  0  0  0  0  0  0  0  0
    1.0711   -0.0798   -3.9682 H   0  0  0  0  0  0  0  0  0  0  0  0
   -0.3502   -2.2935   -2.4370 H   0  0  0  0  0  0  0  0  0  0  0  0
   -1.0393   -0.8433   -3.1881 H   0  0  0  0  0  0  0  0  0  0  0  0
   -0.3841   -2.1383   -4.2053 H   0  0  0  0  0  0  0  0  0  0  0  0
    0.4947    0.1008   -0.9950 N   0  0  0  0  0  0  0  0  0  0  0  0
    0.6145    0.5235    0.4186 C   0  0  2  0  0  0  0  0  0  0  0  0
   -0.2700    1.7567    0.6868 C   0  0  0  0  0  0  0  0  0  0  0  0
   -1.4767    1.6741    0.4881 O   0  0  0  0  0  0  0  0  0  0  0  0
    1.9498    0.4765    1.2175 C   0  0  0  0  0  0  0  0  0  0  0  0
    2.5825   -0.9093    1.5390 C   0  0  0  0  0  0  0  0  0  0  0  0
    3.9517   -0.6805    2.1907 C   0  0  0  0  0  0  0  0  0  0  0  0
    2.7305   -1.9500    0.4287 C   0  0  0  0  0  0  0  0  0  0  0  0
   -0.4397   -0.1876   -1.2750 H   0  0  0  0  0  0  0  0  0  0  0  0
    0.0531   -0.2608    0.9373 H   0  0  0  0  0  0  0  0  0  0  0  0
    1.7842    0.9701    2.1806 H   0  0  0  0  0  0  0  0  0  0  0  0
    2.6849    1.0781    0.6733 H   0  0  0  0  0  0  0  0  0  0  0  0
    1.9318   -1.3709    2.2897 H   0  0  0  0  0  0  0  0  0  0  0  0
    4.6455   -0.2266    1.4755 H   0  0  0  0  0  0  0  0  0  0  0  0
    4.3770   -1.6294    2.5321 H   0  0  0  0  0  0  0  0  0  0  0  0
    3.8603   -0.0173    3.0563 H   0  0  0  0  0  0  0  0  0  0  0  0
    3.0969   -2.8922    0.8479 H   0  0  0  0  0  0  0  0  0  0  0  0
    1.7643   -2.1558   -0.0367 H   0  0  0  0  0  0  0  0  0  0  0  0
    3.4489   -1.6258   -0.3274 H   0  0  0  0  0  0  0  0  0  0  0  0
    0.2896    2.9458    1.1264 N   0  0  0  0  0  0  0  0  0  0  0  0
   -0.4018    4.2296    1.3656 C   0  0  2  0  0  0  0  0  0  0  0  0
   -1.4054    4.2174    2.5420 C   0  0  0  0  0  0  0  0  0  0  0  0
   -1.2750    5.0254    3.4521 O   0  0  0  0  0  0  0  0  0  0  0  0
   -1.0653    4.7453    0.0811 C   0  0  0  0  0  0  0  0  0  0  0  0
    1.3029    2.9415    1.2113 H   0  0  0  0  0  0  0  0  0  0  0  0
    0.3690    4.9580    1.6383 H   0  0  0  0  0  0  0  0  0  0  0  0
   -1.9116    4.1165   -0.2100 H   0  0  0  0  0  0  0  0  0  0  0  0
   -1.4354    5.7640    0.2340 H   0  0  0  0  0  0  0  0  0  0  0  0
   -0.3428    4.7591   -0.7405 H   0  0  0  0  0  0  0  0  0  0  0  0
   -2.4447    3.3099    2.5891 N   0  0  0  0  0  0  0  0  0  0  0  0
   -3.3900    3.2073    3.6919 C   0  0  0  0  0  0  0  0  0  0  0  0
   -2.4683    2.6143    1.8387 H   0  0  0  0  0  0  0  0  0  0  0  0
   -2.8800    2.8788    4.6033 H   0  0  0  0  0  0  0  0  0  0  0  0
   -3.8648    4.1755    3.8821 H   0  0  0  0  0  0  0  0  0  0  0  0
   -4.1732    2.4823    3.4503 H   0  0  0  0  0  0  0  0  0  0  0  0
  1  2  2  0  0  0  0
  1  3  1  0  0  0  0
  1  7  1  0  0  0  0
  3  4  1  0  0  0  0
  3  5  1  0  0  0  0
  3  6  1  0  0  0  0
  7  8  1  0  0  0  0
  7 12  1  0  0  0  0
  8  9  1  0  0  0  0
  8 11  1  0  0  0  0
  8 13  1  0  0  0  0
  9 10  2  0  0  0  0
  9 17  1  0  0  0  0
 11 14  1  0  0  0  0
 11 15  1  0  0  0  0
 11 16  1  0  0  0  0
 17 18  1  0  0  0  0
 17 25  1  0  0  0  0
 18 19  1  0  0  0  0
 18 21  1  0  0  0  0
 18 26  1  0  0  0  0
 19 20  2  0  0  0  0
 19 36  1  0  0  0  0
 21 22  1  0  0  0  0
 21 27  1  0  0  0  0
 21 28  1  0  0  0  0
 22 23  1  0  0  0  0
 22 24  1  0  0  0  0
 22 29  1  0  0  0  0
 23 30  1  0  0  0  0
 23 31  1  0  0  0  0
 23 32  1  0  0  0  0
 24 33  1  0  0  0  0
 24 34  1  0  0  0  0
 24 35  1  0  0  0  0
 36 37  1  0  0  0  0
 36 41  1  0  0  0  0
 37 38  1  0  0  0  0
 37 40  1  0  0  0  0
 37 42  1  0  0  0  0
 38 39  2  0  0  0  0
 38 46  1  0  0  0  0
 40 43  1  0  0  0  0
 40 44  1  0  0  0  0
 40 45  1  0  0  0  0
 46 47  1  0  0  0  0
 46 48  1  0  0  0  0
 47 49  1  0  0  0  0
 47 50  1  0  0  0  0
 47 51  1  0  0  0  0
M  END
$$$$

  -OEChem-05262216553D

 51 50  0     1  0  0  0  0  0999 V2000
    2.6890   -2.8105   -3.4004 C   0  0  0  0  0  0  0  0  0  0  0  0
    1.9864   -3.4447   -2.6312 O   0  0  0  0  0  0  0  0  0  0  0  0
    4.0229   -3.3857   -3.8388 C   0  0  0  0  0  0  0  0  0  0  0  0
    4.8378   -2.7604   -3.4658 H   0  0  0  0  0  0  0  0  0  0  0  0
    4.1465   -4.3976   -3.4426 H   0  0  0  0  0  0  0  0  0  0  0  0
    4.0725   -3.4265   -4.9296 H   0  0  0  0  0  0  0  0  0  0  0  0
    2.3077   -1.5665   -3.8675 N   0  0  0  0  0  0  0  0  0  0  0  0
    1.2019   -0.7562   -3.3206 C   0  0  2  0  0  0  0  0  0  0  0  0
    1.5073   -0.2121   -1.9031 C   0  0  0  0  0  0  0  0  0  0  0  0
    2.6387    0.1863   -1.6562 O   0  0  0  0  0  0  0  0  0  0  0  0
   -0.1490   -1.4893   -3.4097 C   0  0  0  0  0  0  0  0  0  0  0  0
    3.0423   -1.0579   -4.3513 H   0  0  0  0  0  0  0  0  0  0  0  0
    1.1126    0.1258   -3.9617 H   0  0  0  0  0  0  0  0  0  0  0  0
   -0.2386   -2.2529   -2.6311 H   0  0  0  0  0  0  0  0  0  0  0  0
   -0.9751   -0.7819   -3.2914 H   0  0  0  0  0  0  0  0  0  0  0  0
   -0.2530   -1.9742   -4.3852 H   0  0  0  0  0  0  0  0  0  0  0  0
    0.4824    0.1621   -1.0529 N   0  0  0  0  0  0  0  0  0  0  0  0
    0.5360    0.4598    0.3957 C   0  0  2  0  0  0  0  0  0  0  0  0
   -0.2489    1.7461    0.7035 C   0  0  0  0  0  0  0  0  0  0  0  0
   -1.4724    1.7306    0.6435 O   0  0  0  0  0  0  0  0  0  0  0  0
    1.7990    0.2433    1.2773 C   0  0  0  0  0  0  0  0  0  0  0  0
    2.2993   -1.2103    1.5246 C   0  0  0  0  0  0  0  0  0  0  0  0
    3.6290   -1.1454    2.2863 C   0  0  0  0  0  0  0  0  0  0  0  0
    2.4577   -2.1646    0.3402 C   0  0  0  0  0  0  0  0  0  0  0  0
   -0.4440   -0.0691   -1.4033 H   0  0  0  0  0  0  0  0  0  0  0  0
   -0.1233   -0.3097    0.8111 H   0  0  0  0  0  0  0  0  0  0  0  0
    1.5988    0.6803    2.2615 H   0  0  0  0  0  0  0  0  0  0  0  0
    2.6174    0.8201    0.8352 H   0  0  0  0  0  0  0  0  0  0  0  0
    1.5607   -1.6778    2.1848 H   0  0  0  0  0  0  0  0  0  0  0  0
    4.4090   -0.6998    1.6606 H   0  0  0  0  0  0  0  0  0  0  0  0
    3.9512   -2.1493    2.5801 H   0  0  0  0  0  0  0  0  0  0  0  0
    3.5234   -0.5428    3.1937 H   0  0  0  0  0  0  0  0  0  0  0  0
    2.7304   -3.1617    0.6993 H   0  0  0  0  0  0  0  0  0  0  0  0
    1.5172   -2.2634   -0.2063 H   0  0  0  0  0  0  0  0  0  0  0  0
    3.2487   -1.8302   -0.3348 H   0  0  0  0  0  0  0  0  0  0  0  0
    0.4327    2.9200    0.9783 N   0  0  0  0  0  0  0  0  0  0  0  0
   -0.1417    4.2680    1.1686 C   0  0  2  0  0  0  0  0  0  0  0  0
   -1.0120    4.4382    2.4356 C   0  0  0  0  0  0  0  0  0  0  0  0
   -0.8039    5.3839    3.1843 O   0  0  0  0  0  0  0  0  0  0  0  0
   -0.9061    4.7225   -0.0823 C   0  0  0  0  0  0  0  0  0  0  0  0
    1.4464    2.8493    0.9288 H   0  0  0  0  0  0  0  0  0  0  0  0
    0.7016    4.9554    1.2925 H   0  0  0  0  0  0  0  0  0  0  0  0
   -1.8208    4.1392   -0.2226 H   0  0  0  0  0  0  0  0  0  0  0  0
   -1.1857    5.7764    0.0135 H   0  0  0  0  0  0  0  0  0  0  0  0
   -0.2802    4.6103   -0.9725 H   0  0  0  0  0  0  0  0  0  0  0  0
   -2.0318    3.5568    2.7328 N   0  0  0  0  0  0  0  0  0  0  0  0
   -2.9098    3.6810    3.8876 C   0  0  0  0  0  0  0  0  0  0  0  0
   -2.1769    2.7932    2.0669 H   0  0  0  0  0  0  0  0  0  0  0  0
   -3.4447    4.6359    3.8603 H   0  0  0  0  0  0  0  0  0  0  0  0
   -3.6461    2.8716    3.8898 H   0  0  0  0  0  0  0  0  0  0  0  0
   -2.3314    3.6264    4.8156 H   0  0  0  0  0  0  0  0  0  0  0  0
  1  2  2  0  0  0  0
  1  3  1  0  0  0  0
  1  7  1  0  0  0  0
  3  4  1  0  0  0  0
  3  5  1  0  0  0  0
  3  6  1  0  0  0  0
  7  8  1  0  0  0  0
  7 12  1  0  0  0  0
  8  9  1  0  0  0  0
  8 11  1  0  0  0  0
  8 13  1  0  0  0  0
  9 10  2  0  0  0  0
  9 17  1  0  0  0  0
 11 14  1  0  0  0  0
 11 15  1  0  0  0  0
 11 16  1  0  0  0  0
 17 18  1  0  0  0  0
 17 25  1  0  0  0  0
 18 19  1  0  0  0  0
 18 21  1  0  0  0  0
 18 26  1  0  0  0  0
 19 20  2  0  0  0  0
 19 36  1  0  0  0  0
 21 22  1  0  0  0  0
 21 27  1  0  0  0  0
 21 28  1  0  0  0  0
 22 23  1  0  0  0  0
 22 24  1  0  0  0  0
 22 29  1  0  0  0  0
 23 30  1  0  0  0  0
 23 31  1  0  0  0  0
 23 32  1  0  0  0  0
 24 33  1  0  0  0  0
 24 34  1  0  0  0  0
 24 35  1  0  0  0  0
 36 37  1  0  0  0  0
 36 41  1  0  0  0  0
 37 38  1  0  0  0  0
 37 40  1  0  0  0  0
 37 42  1  0  0  0  0
 38 39  2  0  0  0  0
 38 46  1  0  0  0  0
 40 43  1  0  0  0  0
 40 44  1  0  0  0  0
 40 45  1  0  0  0  0
 46 47  1  0  0  0  0
 46 48  1  0  0  0  0
 47 49  1  0  0  0  0
 47 50  1  0  0  0  0
 47 51  1  0  0  0  0
M  END
$$$$

  -OEChem-05262216553D

 51 50  0     1  0  0  0  0  0999 V2000
    2.6331   -2.9058   -3.3591 C   0  0  0  0  0  0  0  0  0  0  0  0
    1.8529   -3.4770   -2.6154 O   0  0  0  0  0  0  0  0  0  0  0  0
    3.9425   -3.5786   -3.7254 C   0  0  0  0  0  0  0  0  0  0  0  0
    4.7790   -3.0217   -3.2959 H   0  0  0  0  0  0  0  0  0  0  0  0
    3.9630   -4.6006   -3.3365 H   0  0  0  0  0  0  0  0  0  0  0  0
    4.0554   -3.6140   -4.8118 H   0  0  0  0  0  0  0  0  0  0  0  0
    2.3619   -1.6455   -3.8580 N   0  0  0  0  0  0  0  0  0  0  0  0
    1.2806   -0.7593   -3.3865 C   0  0  2  0  0  0  0  0  0  0  0  0
    1.5444   -0.2082   -1.9635 C   0  0  0  0  0  0  0  0  0  0  0  0
    2.6648    0.2069   -1.6969 O   0  0  0  0  0  0  0  0  0  0  0  0
   -0.1065   -1.4090   -3.5442 C   0  0  0  0  0  0  0  0  0  0  0  0
    3.1509   -1.1931   -4.3115 H   0  0  0  0  0  0  0  0  0  0  0  0
    1.2822    0.1150   -4.0445 H   0  0  0  0  0  0  0  0  0  0  0  0
   -0.2873   -2.1572   -2.7665 H   0  0  0  0  0  0  0  0  0  0  0  0
   -0.8924   -0.6506   -3.4787 H   0  0  0  0  0  0  0  0  0  0  0  0
   -0.1855   -1.8981   -4.5202 H   0  0  0  0  0  0  0  0  0  0  0  0
    0.4993    0.1642   -1.1375 N   0  0  0  0  0  0  0  0  0  0  0  0
    0.5239    0.4604    0.3129 C   0  0  2  0  0  0  0  0  0  0  0  0
   -0.2659    1.7448    0.6088 C   0  0  0  0  0  0  0  0  0  0  0  0
   -1.4713    1.6859    0.8161 O   0  0  0  0  0  0  0  0  0  0  0  0
    1.7697    0.2664    1.2228 C   0  0  0  0  0  0  0  0  0  0  0  0
    2.2950   -1.1746    1.4868 C   0  0  0  0  0  0  0  0  0  0  0  0
    3.6050   -1.0779    2.2783 C   0  0  0  0  0  0  0  0  0  0  0  0
    2.4976   -2.1304    0.3115 C   0  0  0  0  0  0  0  0  0  0  0  0
   -0.4136   -0.0988   -1.5002 H   0  0  0  0  0  0  0  0  0  0  0  0
   -0.1350   -0.3171    0.7140 H   0  0  0  0  0  0  0  0  0  0  0  0
    1.5384    0.7036    2.2002 H   0  0  0  0  0  0  0  0  0  0  0  0
    2.5868    0.8580    0.7983 H   0  0  0  0  0  0  0  0  0  0  0  0
    1.5518   -1.6538    2.1331 H   0  0  0  0  0  0  0  0  0  0  0  0
    4.3894   -0.6186    1.6681 H   0  0  0  0  0  0  0  0  0  0  0  0
    3.9421   -2.0732    2.5847 H   0  0  0  0  0  0  0  0  0  0  0  0
    3.4656   -0.4724    3.1795 H   0  0  0  0  0  0  0  0  0  0  0  0
    2.7860   -3.1195    0.6804 H   0  0  0  0  0  0  0  0  0  0  0  0
    1.5682   -2.2508   -0.2490 H   0  0  0  0  0  0  0  0  0  0  0  0
    3.2928   -1.7823   -0.3513 H   0  0  0  0  0  0  0  0  0  0  0  0
    0.3947    2.9609    0.5873 N   0  0  0  0  0  0  0  0  0  0  0  0
   -0.1974    4.3072    0.7311 C   0  0  2  0  0  0  0  0  0  0  0  0
   -0.7836    4.6228    2.1269 C   0  0  0  0  0  0  0  0  0  0  0  0
   -0.5143    5.6894    2.6637 O   0  0  0  0  0  0  0  0  0  0  0  0
   -1.2381    4.5692   -0.3662 C   0  0  0  0  0  0  0  0  0  0  0  0
    1.3803    2.9073    0.3385 H   0  0  0  0  0  0  0  0  0  0  0  0
    0.6138    5.0269    0.5793 H   0  0  0  0  0  0  0  0  0  0  0  0
   -2.1304    3.9531   -0.2228 H   0  0  0  0  0  0  0  0  0  0  0  0
   -1.5443    5.6199   -0.3479 H   0  0  0  0  0  0  0  0  0  0  0  0
   -0.8160    4.3490   -1.3511 H   0  0  0  0  0  0  0  0  0  0  0  0
   -1.6250    3.7380    2.7711 N   0  0  0  0  0  0  0  0  0  0  0  0
   -2.2676    4.0063    4.0498 C   0  0  0  0  0  0  0  0  0  0  0  0
   -1.8669    2.8890    2.2534 H   0  0  0  0  0  0  0  0  0  0  0  0
   -2.8388    3.1316    4.3752 H   0  0  0  0  0  0  0  0  0  0  0  0
   -1.5184    4.2333    4.8155 H   0  0  0  0  0  0  0  0  0  0  0  0
   -2.9523    4.8562    3.9622 H   0  0  0  0  0  0  0  0  0  0  0  0
  1  2  2  0  0  0  0
  1  3  1  0  0  0  0
  1  7  1  0  0  0  0
  3  4  1  0  0  0  0
  3  5  1  0  0  0  0
  3  6  1  0  0  0  0
  7  8  1  0  0  0  0
  7 12  1  0  0  0  0
  8  9  1  0  0  0  0
  8 11  1  0  0  0  0
  8 13  1  0  0  0  0
  9 10  2  0  0  0  0
  9 17  1  0  0  0  0
 11 14  1  0  0  0  0
 11 15  1  0  0  0  0
 11 16  1  0  0  0  0
 17 18  1  0  0  0  0
 17 25  1  0  0  0  0
 18 19  1  0  0  0  0
 18 21  1  0  0  0  0
 18 26  1  0  0  0  0
 19 20  2  0  0  0  0
 19 36  1  0  0  0  0
 21 22  1  0  0  0  0
 21 27  1  0  0  0  0
 21 28  1  0  0  0  0
 22 23  1  0  0  0  0
 22 24  1  0  0  0  0
 22 29  1  0  0  0  0
 23 30  1  0  0  0  0
 23 31  1  0  0  0  0
 23 32  1  0  0  0  0
 24 33  1  0  0  0  0
 24 34  1  0  0  0  0
 24 35  1  0  0  0  0
 36 37  1  0  0  0  0
 36 41  1  0  0  0  0
 37 38  1  0  0  0  0
 37 40  1  0  0  0  0
 37 42  1  0  0  0  0
 38 39  2  0  0  0  0
 38 46  1  0  0  0  0
 40 43  1  0  0  0  0
 40 44  1  0  0  0  0
 40 45  1  0  0  0  0
 46 47  1  0  0  0  0
 46 48  1  0  0  0  0
 47 49  1  0  0  0  0
 47 50  1  0  0  0  0
 47 51  1  0  0  0  0
M  END
$$$$

  -OEChem-05262216553D

 51 50  0     1  0  0  0  0  0999 V2000
    2.7526   -2.9865   -3.2843 C   0  0  0  0  0  0  0  0  0  0  0  0
    1.9896   -3.5778   -2.5391 O   0  0  0  0  0  0  0  0  0  0  0  0
    4.1041   -3.5974   -3.6039 C   0  0  0  0  0  0  0  0  0  0  0  0
    4.9022   -2.9612   -3.2131 H   0  0  0  0  0  0  0  0  0  0  0  0
    4.1883   -4.5877   -3.1473 H   0  0  0  0  0  0  0  0  0  0  0  0
    4.2233   -3.6985   -4.6853 H   0  0  0  0  0  0  0  0  0  0  0  0
    2.4224   -1.7605   -3.8315 N   0  0  0  0  0  0  0  0  0  0  0  0
    1.2834   -0.9165   -3.4203 C   0  0  2  0  0  0  0  0  0  0  0  0
    1.5014   -0.2591   -2.0352 C   0  0  0  0  0  0  0  0  0  0  0  0
    2.5956    0.2291   -1.7848 O   0  0  0  0  0  0  0  0  0  0  0  0
   -0.0613   -1.6569   -3.5374 C   0  0  0  0  0  0  0  0  0  0  0  0
    3.1955   -1.2828   -4.2865 H   0  0  0  0  0  0  0  0  0  0  0  0
    1.2360   -0.0888   -4.1344 H   0  0  0  0  0  0  0  0  0  0  0  0
   -0.2045   -2.3555   -2.7076 H   0  0  0  0  0  0  0  0  0  0  0  0
   -0.8908   -0.9438   -3.5307 H   0  0  0  0  0  0  0  0  0  0  0  0
   -0.1025   -2.2197   -4.4750 H   0  0  0  0  0  0  0  0  0  0  0  0
    0.4315    0.1243   -1.2468 N   0  0  0  0  0  0  0  0  0  0  0  0
    0.4284    0.4678    0.1951 C   0  0  2  0  0  0  0  0  0  0  0  0
   -0.3806    1.7490    0.4461 C   0  0  0  0  0  0  0  0  0  0  0  0
   -1.4886    1.6887    0.9633 O   0  0  0  0  0  0  0  0  0  0  0  0
    1.6661    0.3394    1.1263 C   0  0  0  0  0  0  0  0  0  0  0  0
    2.2300   -1.0755    1.4450 C   0  0  0  0  0  0  0  0  0  0  0  0
    3.5253   -0.9136    2.2499 C   0  0  0  0  0  0  0  0  0  0  0  0
    2.4788   -2.0604    0.3036 C   0  0  0  0  0  0  0  0  0  0  0  0
   -0.4614   -0.2087   -1.6013 H   0  0  0  0  0  0  0  0  0  0  0  0
   -0.2196   -0.3102    0.6131 H   0  0  0  0  0  0  0  0  0  0  0  0
    1.4089    0.8029    2.0853 H   0  0  0  0  0  0  0  0  0  0  0  0
    2.4705    0.9418    0.6930 H   0  0  0  0  0  0  0  0  0  0  0  0
    1.4923   -1.5562    2.0964 H   0  0  0  0  0  0  0  0  0  0  0  0
    4.3015   -0.4424    1.6381 H   0  0  0  0  0  0  0  0  0  0  0  0
    3.8925   -1.8883    2.5861 H   0  0  0  0  0  0  0  0  0  0  0  0
    3.3530   -0.2915    3.1337 H   0  0  0  0  0  0  0  0  0  0  0  0
    2.7989   -3.0262    0.7067 H   0  0  0  0  0  0  0  0  0  0  0  0
    1.5598   -2.2323   -0.2608 H   0  0  0  0  0  0  0  0  0  0  0  0
    3.2678   -1.7040   -0.3625 H   0  0  0  0  0  0  0  0  0  0  0  0
    0.1789    2.9650    0.0956 N   0  0  0  0  0  0  0  0  0  0  0  0
   -0.4175    4.3081    0.2491 C   0  0  2  0  0  0  0  0  0  0  0  0
   -0.6126    4.7710    1.7117 C   0  0  0  0  0  0  0  0  0  0  0  0
   -0.2306    5.8850    2.0449 O   0  0  0  0  0  0  0  0  0  0  0  0
   -1.7321    4.4223   -0.5343 C   0  0  0  0  0  0  0  0  0  0  0  0
    1.1022    2.9044   -0.3302 H   0  0  0  0  0  0  0  0  0  0  0  0
    0.2847    5.0184   -0.2001 H   0  0  0  0  0  0  0  0  0  0  0  0
   -2.5188    3.8121   -0.0812 H   0  0  0  0  0  0  0  0  0  0  0  0
   -2.0718    5.4628   -0.5433 H   0  0  0  0  0  0  0  0  0  0  0  0
   -1.5888    4.0962   -1.5685 H   0  0  0  0  0  0  0  0  0  0  0  0
   -1.2255    3.9608    2.6469 N   0  0  0  0  0  0  0  0  0  0  0  0
   -1.4762    4.3496    4.0274 C   0  0  0  0  0  0  0  0  0  0  0  0
   -1.5592    3.0540    2.3095 H   0  0  0  0  0  0  0  0  0  0  0  0
   -1.9706    3.5341    4.5641 H   0  0  0  0  0  0  0  0  0  0  0  0
   -0.5352    4.5794    4.5376 H   0  0  0  0  0  0  0  0  0  0  0  0
   -2.1229    5.2323    4.0649 H   0  0  0  0  0  0  0  0  0  0  0  0
  1  2  2  0  0  0  0
  1  3  1  0  0  0  0
  1  7  1  0  0  0  0
  3  4  1  0  0  0  0
  3  5  1  0  0  0  0
  3  6  1  0  0  0  0
  7  8  1  0  0  0  0
  7 12  1  0  0  0  0
  8  9  1  0  0  0  0
  8 11  1  0  0  0  0
  8 13  1  0  0  0  0
  9 10  2  0  0  0  0
  9 17  1  0  0  0  0
 11 14  1  0  0  0  0
 11 15  1  0  0  0  0
 11 16  1  0  0  0  0
 17 18  1  0  0  0  0
 17 25  1  0  0  0  0
 18 19  1  0  0  0  0
 18 21  1  0  0  0  0
 18 26  1  0  0  0  0
 19 20  2  0  0  0  0
 19 36  1  0  0  0  0
 21 22  1  0  0  0  0
 21 27  1  0  0  0  0
 21 28  1  0  0  0  0
 22 23  1  0  0  0  0
 22 24  1  0  0  0  0
 22 29  1  0  0  0  0
 23 30  1  0  0  0  0
 23 31  1  0  0  0  0
 23 32  1  0  0  0  0
 24 33  1  0  0  0  0
 24 34  1  0  0  0  0
 24 35  1  0  0  0  0
 36 37  1  0  0  0  0
 36 41  1  0  0  0  0
 37 38  1  0  0  0  0
 37 40  1  0  0  0  0
 37 42  1  0  0  0  0
 38 39  2  0  0  0  0
 38 46  1  0  0  0  0
 40 43  1  0  0  0  0
 40 44  1  0  0  0  0
 40 45  1  0  0  0  0
 46 47  1  0  0  0  0
 46 48  1  0  0  0  0
 47 49  1  0  0  0  0
 47 50  1  0  0  0  0
 47 51  1  0  0  0  0
M  END
$$$$

  -OEChem-05262216553D

 51 50  0     1  0  0  0  0  0999 V2000
    2.7947   -3.0178   -3.2484 C   0  0  0  0  0  0  0  0  0  0  0  0
    2.0615   -3.6182   -2.4808 O   0  0  0  0  0  0  0  0  0  0  0  0
    4.1660   -3.5839   -3.5654 C   0  0  0  0  0  0  0  0  0  0  0  0
    4.9412   -2.8816   -3.2489 H   0  0  0  0  0  0  0  0  0  0  0  0
    4.3142   -4.5311   -3.0391 H   0  0  0  0  0  0  0  0  0  0  0  0
    4.2583   -3.7601   -4.6398 H   0  0  0  0  0  0  0  0  0  0  0  0
    2.4125   -1.8206   -3.8245 N   0  0  0  0  0  0  0  0  0  0  0  0
    1.2465   -1.0100   -3.4227 C   0  0  2  0  0  0  0  0  0  0  0  0
    1.4576   -0.3032   -2.0617 C   0  0  0  0  0  0  0  0  0  0  0  0
    2.5279    0.2514   -1.8511 O   0  0  0  0  0  0  0  0  0  0  0  0
   -0.0705   -1.8039   -3.4980 C   0  0  0  0  0  0  0  0  0  0  0  0
    3.1634   -1.3251   -4.2975 H   0  0  0  0  0  0  0  0  0  0  0  0
    1.1574   -0.2066   -4.1600 H   0  0  0  0  0  0  0  0  0  0  0  0
   -0.1774   -2.4794   -2.6438 H   0  0  0  0  0  0  0  0  0  0  0  0
   -0.9262   -1.1225   -3.5037 H   0  0  0  0  0  0  0  0  0  0  0  0
   -0.1014   -2.3986   -4.4164 H   0  0  0  0  0  0  0  0  0  0  0  0
    0.3839    0.0503   -1.2649 N   0  0  0  0  0  0  0  0  0  0  0  0
    0.3888    0.4307    0.1688 C   0  0  2  0  0  0  0  0  0  0  0  0
   -0.4748    1.6791    0.4023 C   0  0  0  0  0  0  0  0  0  0  0  0
   -1.4043    1.6499    1.1979 O   0  0  0  0  0  0  0  0  0  0  0  0
    1.6469    0.3886    1.0793 C   0  0  0  0  0  0  0  0  0  0  0  0
    2.2875   -0.9871    1.4232 C   0  0  0  0  0  0  0  0  0  0  0  0
    3.5864   -0.7384    2.1993 C   0  0  0  0  0  0  0  0  0  0  0  0
    2.5683   -1.9870    0.3026 C   0  0  0  0  0  0  0  0  0  0  0  0
   -0.4925   -0.3496   -1.5903 H   0  0  0  0  0  0  0  0  0  0  0  0
   -0.2148   -0.3652    0.6179 H   0  0  0  0  0  0  0  0  0  0  0  0
    1.3832    0.8632    2.0309 H   0  0  0  0  0  0  0  0  0  0  0  0
    2.4113    1.0203    0.6158 H   0  0  0  0  0  0  0  0  0  0  0  0
    1.5865   -1.4876    2.0997 H   0  0  0  0  0  0  0  0  0  0  0  0
    4.3265   -0.2453    1.5609 H   0  0  0  0  0  0  0  0  0  0  0  0
    4.0085   -1.6840    2.5537 H   0  0  0  0  0  0  0  0  0  0  0  0
    3.3978   -0.1022    3.0697 H   0  0  0  0  0  0  0  0  0  0  0  0
    2.9506   -2.9221    0.7233 H   0  0  0  0  0  0  0  0  0  0  0  0
    1.6488   -2.2253   -0.2362 H   0  0  0  0  0  0  0  0  0  0  0  0
    3.3220   -1.6053   -0.3899 H   0  0  0  0  0  0  0  0  0  0  0  0
   -0.1357    2.8472   -0.2572 N   0  0  0  0  0  0  0  0  0  0  0  0
   -0.8035    4.1616   -0.1617 C   0  0  2  0  0  0  0  0  0  0  0  0
   -0.6599    4.8634    1.2083 C   0  0  0  0  0  0  0  0  0  0  0  0
   -0.3477    6.0463    1.2474 O   0  0  0  0  0  0  0  0  0  0  0  0
   -2.2796    4.0641   -0.5712 C   0  0  0  0  0  0  0  0  0  0  0  0
    0.6914    2.7780   -0.8480 H   0  0  0  0  0  0  0  0  0  0  0  0
   -0.3141    4.8181   -0.8886 H   0  0  0  0  0  0  0  0  0  0  0  0
   -2.8627    3.5155    0.1743 H   0  0  0  0  0  0  0  0  0  0  0  0
   -2.7079    5.0669   -0.6671 H   0  0  0  0  0  0  0  0  0  0  0  0
   -2.3748    3.5538   -1.5340 H   0  0  0  0  0  0  0  0  0  0  0  0
   -0.8850    4.1854    2.3898 N   0  0  0  0  0  0  0  0  0  0  0  0
   -0.7989    4.7951    3.7090 C   0  0  0  0  0  0  0  0  0  0  0  0
   -1.1997    3.2155    2.3013 H   0  0  0  0  0  0  0  0  0  0  0  0
   -0.9943    4.0470    4.4834 H   0  0  0  0  0  0  0  0  0  0  0  0
    0.2010    5.2101    3.8740 H   0  0  0  0  0  0  0  0  0  0  0  0
   -1.5360    5.5986    3.8077 H   0  0  0  0  0  0  0  0  0  0  0  0
  1  2  2  0  0  0  0
  1  3  1  0  0  0  0
  1  7  1  0  0  0  0
  3  4  1  0  0  0  0
  3  5  1  0  0  0  0
  3  6  1  0  0  0  0
  7  8  1  0  0  0  0
  7 12  1  0  0  0  0
  8  9  1  0  0  0  0
  8 11  1  0  0  0  0
  8 13  1  0  0  0  0
  9 10  2  0  0  0  0
  9 17  1  0  0  0  0
 11 14  1  0  0  0  0
 11 15  1  0  0  0  0
 11 16  1  0  0  0  0
 17 18  1  0  0  0  0
 17 25  1  0  0  0  0
 18 19  1  0  0  0  0
 18 21  1  0  0  0  0
 18 26  1  0  0  0  0
 19 20  2  0  0  0  0
 19 36  1  0  0  0  0
 21 22  1  0  0  0  0
 21 27  1  0  0  0  0
 21 28  1  0  0  0  0
 22 23  1  0  0  0  0
 22 24  1  0  0  0  0
 22 29  1  0  0  0  0
 23 30  1  0  0  0  0
 23 31  1  0  0  0  0
 23 32  1  0  0  0  0
 24 33  1  0  0  0  0
 24 34  1  0  0  0  0
 24 35  1  0  0  0  0
 36 37  1  0  0  0  0
 36 41  1  0  0  0  0
 37 38  1  0  0  0  0
 37 40  1  0  0  0  0
 37 42  1  0  0  0  0
 38 39  2  0  0  0  0
 38 46  1  0  0  0  0
 40 43  1  0  0  0  0
 40 44  1  0  0  0  0
 40 45  1  0  0  0  0
 46 47  1  0  0  0  0
 46 48  1  0  0  0  0
 47 49  1  0  0  0  0
 47 50  1  0  0  0  0
 47 51  1  0  0  0  0
M  END
$$$$

  -OEChem-05262216553D

 51 50  0     1  0  0  0  0  0999 V2000
    1.9243    0.8183   -2.7149 C   0  0  0  0  0  0  0  0  0  0  0  0
    0.9356    1.2449   -3.2899 O   0  0  0  0  0  0  0  0  0  0  0  0
    3.0313    1.7638   -2.2910 C   0  0  0  0  0  0  0  0  0  0  0  0
    3.9987    1.3916   -2.6358 H   0  0  0  0  0  0  0  0  0  0  0  0
    2.8648    2.7561   -2.7211 H   0  0  0  0  0  0  0  0  0  0  0  0
    3.0495    1.8551   -1.2021 H   0  0  0  0  0  0  0  0  0  0  0  0
    1.9755   -0.5148   -2.3644 N   0  0  0  0  0  0  0  0  0  0  0  0
    0.9844   -1.5130   -2.7951 C   0  0  2  0  0  0  0  0  0  0  0  0
   -0.2067   -1.7939   -1.8327 C   0  0  0  0  0  0  0  0  0  0  0  0
   -0.9555   -2.7256   -2.0787 O   0  0  0  0  0  0  0  0  0  0  0  0
    1.7681   -2.7844   -3.1493 C   0  0  0  0  0  0  0  0  0  0  0  0
    2.8218   -0.8384   -1.9052 H   0  0  0  0  0  0  0  0  0  0  0  0
    0.5181   -1.1664   -3.7241 H   0  0  0  0  0  0  0  0  0  0  0  0
    2.3028   -3.1745   -2.2802 H   0  0  0  0  0  0  0  0  0  0  0  0
    1.0920   -3.5619   -3.5195 H   0  0  0  0  0  0  0  0  0  0  0  0
    2.4979   -2.5693   -3.9359 H   0  0  0  0  0  0  0  0  0  0  0  0
   -0.8340   -0.8747   -1.0183 N   0  0  0  0  0  0  0  0  0  0  0  0
   -0.3306   -0.1827    0.1928 C   0  0  2  0  0  0  0  0  0  0  0  0
   -0.6450    1.3276    0.1937 C   0  0  0  0  0  0  0  0  0  0  0  0
   -0.8765    1.8810    1.2618 O   0  0  0  0  0  0  0  0  0  0  0  0
    1.0427   -0.5017    0.8481 C   0  0  0  0  0  0  0  0  0  0  0  0
    1.2528   -1.8936    1.5033 C   0  0  0  0  0  0  0  0  0  0  0  0
    2.7204   -2.0096    1.9354 C   0  0  0  0  0  0  0  0  0  0  0  0
    0.8776   -3.1374    0.7009 C   0  0  0  0  0  0  0  0  0  0  0  0
   -1.8068   -1.1639   -0.9336 H   0  0  0  0  0  0  0  0  0  0  0  0
   -1.0206   -0.5521    0.9593 H   0  0  0  0  0  0  0  0  0  0  0  0
    1.2114    0.2396    1.6375 H   0  0  0  0  0  0  0  0  0  0  0  0
    1.8266   -0.3403    0.1103 H   0  0  0  0  0  0  0  0  0  0  0  0
    0.6342   -1.9122    2.4074 H   0  0  0  0  0  0  0  0  0  0  0  0
    3.3812   -2.0163    1.0627 H   0  0  0  0  0  0  0  0  0  0  0  0
    2.8818   -2.9337    2.4996 H   0  0  0  0  0  0  0  0  0  0  0  0
    2.9989   -1.1676    2.5770 H   0  0  0  0  0  0  0  0  0  0  0  0
    1.4423   -3.1833   -0.2302 H   0  0  0  0  0  0  0  0  0  0  0  0
    1.1049   -4.0398    1.2770 H   0  0  0  0  0  0  0  0  0  0  0  0
   -0.1945   -3.1500    0.4883 H   0  0  0  0  0  0  0  0  0  0  0  0
   -0.4411    2.0846   -0.9453 N   0  0  0  0  0  0  0  0  0  0  0  0
   -0.3621    3.5538   -1.0435 C   0  0  2  0  0  0  0  0  0  0  0  0
    0.8473    4.1546   -0.2917 C   0  0  0  0  0  0  0  0  0  0  0  0
    1.7566    4.6847   -0.9176 O   0  0  0  0  0  0  0  0  0  0  0  0
   -1.6792    4.2178   -0.6185 C   0  0  0  0  0  0  0  0  0  0  0  0
   -0.2066    1.5587   -1.7929 H   0  0  0  0  0  0  0  0  0  0  0  0
   -0.2139    3.7921   -2.1023 H   0  0  0  0  0  0  0  0  0  0  0  0
   -1.8547    4.1079    0.4551 H   0  0  0  0  0  0  0  0  0  0  0  0
   -1.6511    5.2869   -0.8510 H   0  0  0  0  0  0  0  0  0  0  0  0
   -2.5196    3.7681   -1.1557 H   0  0  0  0  0  0  0  0  0  0  0  0
    0.9604    4.0334    1.0791 N   0  0  0  0  0  0  0  0  0  0  0  0
    2.1230    4.4657    1.8412 C   0  0  0  0  0  0  0  0  0  0  0  0
    0.2502    3.4519    1.5327 H   0  0  0  0  0  0  0  0  0  0  0  0
    1.9836    4.2380    2.9024 H   0  0  0  0  0  0  0  0  0  0  0  0
    3.0237    3.9513    1.4905 H   0  0  0  0  0  0  0  0  0  0  0  0
    2.2688    5.5458    1.7354 H   0  0  0  0  0  0  0  0  0  0  0  0
  1  2  2  0  0  0  0
  1  3  1  0  0  0  0
  1  7  1  0  0  0  0
  3  4  1  0  0  0  0
  3  5  1  0  0  0  0
  3  6  1  0  0  0  0
  7  8  1  0  0  0  0
  7 12  1  0  0  0  0
  8  9  1  0  0  0  0
  8 11  1  0  0  0  0
  8 13  1  0  0  0  0
  9 10  2  0  0  0  0
  9 17  1  0  0  0  0
 11 14  1  0  0  0  0
 11 15  1  0  0  0  0
 11 16  1  0  0  0  0
 17 18  1  0  0  0  0
 17 25  1  0  0  0  0
 18 19  1  0  0  0  0
 18 21  1  0  0  0  0
 18 26  1  0  0  0  0
 19 20  2  0  0  0  0
 19 36  1  0  0  0  0
 21 22  1  0  0  0  0
 21 27  1  0  0  0  0
 21 28  1  0  0  0  0
 22 23  1  0  0  0  0
 22 24  1  0  0  0  0
 22 29  1  0  0  0  0
 23 30  1  0  0  0  0
 23 31  1  0  0  0  0
 23 32  1  0  0  0  0
 24 33  1  0  0  0  0
 24 34  1  0  0  0  0
 24 35  1  0  0  0  0
 36 37  1  0  0  0  0
 36 41  1  0  0  0  0
 37 38  1  0  0  0  0
 37 40  1  0  0  0  0
 37 42  1  0  0  0  0
 38 39  2  0  0  0  0
 38 46  1  0  0  0  0
 40 43  1  0  0  0  0
 40 44  1  0  0  0  0
 40 45  1  0  0  0  0
 46 47  1  0  0  0  0
 46 48  1  0  0  0  0
 47 49  1  0  0  0  0
 47 50  1  0  0  0  0
 47 51  1  0  0  0  0
M  END
$$$$

  -OEChem-05262216553D

 51 50  0     1  0  0  0  0  0999 V2000
    2.5771   -2.2274   -4.8582 C   0  0  0  0  0  0  0  0  0  0  0  0
    1.5534   -2.4346   -5.4906 O   0  0  0  0  0  0  0  0  0  0  0  0
    3.9250   -2.2703   -5.5530 C   0  0  0  0  0  0  0  0  0  0  0  0
    4.5685   -3.0122   -5.0741 H   0  0  0  0  0  0  0  0  0  0  0  0
    3.7981   -2.5424   -6.6046 H   0  0  0  0  0  0  0  0  0  0  0  0
    4.4054   -1.2905   -5.4970 H   0  0  0  0  0  0  0  0  0  0  0  0
    2.5058   -1.9451   -3.5103 N   0  0  0  0  0  0  0  0  0  0  0  0
    1.2508   -1.7358   -2.7766 C   0  0  2  0  0  0  0  0  0  0  0  0
    1.4381   -0.7816   -1.5762 C   0  0  0  0  0  0  0  0  0  0  0  0
    2.5491   -0.3380   -1.3181 O   0  0  0  0  0  0  0  0  0  0  0  0
    0.7232   -3.0999   -2.3197 C   0  0  0  0  0  0  0  0  0  0  0  0
    3.3631   -1.6373   -3.0514 H   0  0  0  0  0  0  0  0  0  0  0  0
    0.5144   -1.2736   -3.4429 H   0  0  0  0  0  0  0  0  0  0  0  0
    1.4579   -3.6010   -1.6816 H   0  0  0  0  0  0  0  0  0  0  0  0
   -0.2096   -2.9868   -1.7596 H   0  0  0  0  0  0  0  0  0  0  0  0
    0.5260   -3.7390   -3.1866 H   0  0  0  0  0  0  0  0  0  0  0  0
    0.3366   -0.2183   -0.9581 N   0  0  0  0  0  0  0  0  0  0  0  0
    0.2382    0.3620    0.4070 C   0  0  2  0  0  0  0  0  0  0  0  0
   -0.5038    1.7118    0.3981 C   0  0  0  0  0  0  0  0  0  0  0  0
   -1.1595    2.0544    1.3730 O   0  0  0  0  0  0  0  0  0  0  0  0
    1.3984    0.3095    1.4420 C   0  0  0  0  0  0  0  0  0  0  0  0
    1.8365   -1.0675    2.0236 C   0  0  0  0  0  0  0  0  0  0  0  0
    3.0828   -0.8515    2.8911 C   0  0  0  0  0  0  0  0  0  0  0  0
    2.0921   -2.2460    1.0828 C   0  0  0  0  0  0  0  0  0  0  0  0
   -0.5451   -0.5513   -1.3411 H   0  0  0  0  0  0  0  0  0  0  0  0
   -0.4956   -0.2953    0.8849 H   0  0  0  0  0  0  0  0  0  0  0  0
    1.1143    0.9348    2.2959 H   0  0  0  0  0  0  0  0  0  0  0  0
    2.2705    0.7875    0.9846 H   0  0  0  0  0  0  0  0  0  0  0  0
    1.0236   -1.3866    2.6849 H   0  0  0  0  0  0  0  0  0  0  0  0
    3.9320   -0.5424    2.2731 H   0  0  0  0  0  0  0  0  0  0  0  0
    3.3515   -1.7747    3.4137 H   0  0  0  0  0  0  0  0  0  0  0  0
    2.8991   -0.0767    3.6420 H   0  0  0  0  0  0  0  0  0  0  0  0
    2.9485   -2.0554    0.4318 H   0  0  0  0  0  0  0  0  0  0  0  0
    2.3158   -3.1448    1.6656 H   0  0  0  0  0  0  0  0  0  0  0  0
    1.2036   -2.4578    0.4855 H   0  0  0  0  0  0  0  0  0  0  0  0
   -0.4318    2.5199   -0.7239 N   0  0  0  0  0  0  0  0  0  0  0  0
   -1.0938    3.8240   -0.9385 C   0  0  2  0  0  0  0  0  0  0  0  0
   -0.5956    4.9720   -0.0291 C   0  0  0  0  0  0  0  0  0  0  0  0
   -0.3356    6.0597   -0.5265 O   0  0  0  0  0  0  0  0  0  0  0  0
   -2.6201    3.6866   -0.8513 C   0  0  0  0  0  0  0  0  0  0  0  0
    0.2189    2.1980   -1.4377 H   0  0  0  0  0  0  0  0  0  0  0  0
   -0.8600    4.1320   -1.9629 H   0  0  0  0  0  0  0  0  0  0  0  0
   -2.9418    3.4791    0.1735 H   0  0  0  0  0  0  0  0  0  0  0  0
   -3.0984    4.6162   -1.1756 H   0  0  0  0  0  0  0  0  0  0  0  0
   -2.9673    2.8752   -1.4977 H   0  0  0  0  0  0  0  0  0  0  0  0
   -0.4563    4.8052    1.3344 N   0  0  0  0  0  0  0  0  0  0  0  0
   -0.0388    5.8602    2.2473 C   0  0  0  0  0  0  0  0  0  0  0  0
   -0.7387    3.8959    1.7095 H   0  0  0  0  0  0  0  0  0  0  0  0
    0.0360    5.4688    3.2665 H   0  0  0  0  0  0  0  0  0  0  0  0
    0.9410    6.2532    1.9562 H   0  0  0  0  0  0  0  0  0  0  0  0
   -0.7648    6.6799    2.2414 H   0  0  0  0  0  0  0  0  0  0  0  0
  1  2  2  0  0  0  0
  1  3  1  0  0  0  0
  1  7  1  0  0  0  0
  3  4  1  0  0  0  0
  3  5  1  0  0  0  0
  3  6  1  0  0  0  0
  7  8  1  0  0  0  0
  7 12  1  0  0  0  0
  8  9  1  0  0  0  0
  8 11  1  0  0  0  0
  8 13  1  0  0  0  0
  9 10  2  0  0  0  0
  9 17  1  0  0  0  0
 11 14  1  0  0  0  0
 11 15  1  0  0  0  0
 11 16  1  0  0  0  0
 17 18  1  0  0  0  0
 17 25  1  0  0  0  0
 18 19  1  0  0  0  0
 18 21  1  0  0  0  0
 18 26  1  0  0  0  0
 19 20  2  0  0  0  0
 19 36  1  0  0  0  0
 21 22  1  0  0  0  0
 21 27  1  0  0  0  0
 21 28  1  0  0  0  0
 22 23  1  0  0  0  0
 22 24  1  0  0  0  0
 22 29  1  0  0  0  0
 23 30  1  0  0  0  0
 23 31  1  0  0  0  0
 23 32  1  0  0  0  0
 24 33  1  0  0  0  0
 24 34  1  0  0  0  0
 24 35  1  0  0  0  0
 36 37  1  0  0  0  0
 36 41  1  0  0  0  0
 37 38  1  0  0  0  0
 37 40  1  0  0  0  0
 37 42  1  0  0  0  0
 38 39  2  0  0  0  0
 38 46  1  0  0  0  0
 40 43  1  0  0  0  0
 40 44  1  0  0  0  0
 40 45  1  0  0  0  0
 46 47  1  0  0  0  0
 46 48  1  0  0  0  0
 47 49  1  0  0  0  0
 47 50  1  0  0  0  0
 47 51  1  0  0  0  0
M  END
$$$$

  -OEChem-05262216553D

 51 50  0     1  0  0  0  0  0999 V2000
    3.7635   -2.4643   -2.7498 C   0  0  0  0  0  0  0  0  0  0  0  0
    4.5115   -1.9054   -1.9634 O   0  0  0  0  0  0  0  0  0  0  0  0
    4.2300   -3.7046   -3.4882 C   0  0  0  0  0  0  0  0  0  0  0  0
    3.6114   -4.5606   -3.2074 H   0  0  0  0  0  0  0  0  0  0  0  0
    4.1549   -3.5477   -4.5671 H   0  0  0  0  0  0  0  0  0  0  0  0
    5.2714   -3.9244   -3.2364 H   0  0  0  0  0  0  0  0  0  0  0  0
    2.4843   -1.9900   -2.9563 N   0  0  0  0  0  0  0  0  0  0  0  0
    1.8422   -0.9607   -2.1252 C   0  0  2  0  0  0  0  0  0  0  0  0
    0.5032   -1.4734   -1.5361 C   0  0  0  0  0  0  0  0  0  0  0  0
   -0.0585   -2.4357   -2.0386 O   0  0  0  0  0  0  0  0  0  0  0  0
    1.6128    0.2731   -3.0018 C   0  0  0  0  0  0  0  0  0  0  0  0
    1.8587   -2.6053   -3.4740 H   0  0  0  0  0  0  0  0  0  0  0  0
    2.5045   -0.6822   -1.3061 H   0  0  0  0  0  0  0  0  0  0  0  0
    2.5624    0.6161   -3.4251 H   0  0  0  0  0  0  0  0  0  0  0  0
    0.9285    0.0388   -3.8236 H   0  0  0  0  0  0  0  0  0  0  0  0
    1.1861    1.0900   -2.4119 H   0  0  0  0  0  0  0  0  0  0  0  0
   -0.3562   -0.7373   -0.7517 N   0  0  0  0  0  0  0  0  0  0  0  0
   -0.0741    0.1222    0.4254 C   0  0  2  0  0  0  0  0  0  0  0  0
   -0.8215    1.4715    0.3329 C   0  0  0  0  0  0  0  0  0  0  0  0
   -0.9086    2.1959    1.3148 O   0  0  0  0  0  0  0  0  0  0  0  0
    1.3499    0.2380    1.0367 C   0  0  0  0  0  0  0  0  0  0  0  0
    1.9710   -1.0167    1.7194 C   0  0  0  0  0  0  0  0  0  0  0  0
    3.4210   -0.6937    2.0997 C   0  0  0  0  0  0  0  0  0  0  0  0
    1.9336   -2.3768    1.0159 C   0  0  0  0  0  0  0  0  0  0  0  0
   -1.2522   -1.2217   -0.7160 H   0  0  0  0  0  0  0  0  0  0  0  0
   -0.6195   -0.3838    1.2291 H   0  0  0  0  0  0  0  0  0  0  0  0
    1.3180    1.0149    1.8085 H   0  0  0  0  0  0  0  0  0  0  0  0
    2.0274    0.6152    0.2683 H   0  0  0  0  0  0  0  0  0  0  0  0
    1.4110   -1.1557    2.6506 H   0  0  0  0  0  0  0  0  0  0  0  0
    4.0343   -0.5617    1.2019 H   0  0  0  0  0  0  0  0  0  0  0  0
    3.8507   -1.5052    2.6953 H   0  0  0  0  0  0  0  0  0  0  0  0
    3.4685    0.2254    2.6921 H   0  0  0  0  0  0  0  0  0  0  0  0
    2.5371   -2.3751    0.1071 H   0  0  0  0  0  0  0  0  0  0  0  0
    2.3450   -3.1443    1.6789 H   0  0  0  0  0  0  0  0  0  0  0  0
    0.9066   -2.6686    0.7838 H   0  0  0  0  0  0  0  0  0  0  0  0
   -1.3673    1.8693   -0.8765 N   0  0  0  0  0  0  0  0  0  0  0  0
   -2.1258    3.1053   -1.1599 C   0  0  2  0  0  0  0  0  0  0  0  0
   -1.3022    4.4104   -1.0655 C   0  0  0  0  0  0  0  0  0  0  0  0
   -1.3050    5.1899   -2.0089 O   0  0  0  0  0  0  0  0  0  0  0  0
   -3.3884    3.1910   -0.2910 C   0  0  0  0  0  0  0  0  0  0  0  0
   -1.2224    1.2195   -1.6456 H   0  0  0  0  0  0  0  0  0  0  0  0
   -2.4616    3.0386   -2.1998 H   0  0  0  0  0  0  0  0  0  0  0  0
   -3.1376    3.3604    0.7603 H   0  0  0  0  0  0  0  0  0  0  0  0
   -4.0181    4.0206   -0.6280 H   0  0  0  0  0  0  0  0  0  0  0  0
   -3.9668    2.2653   -0.3672 H   0  0  0  0  0  0  0  0  0  0  0  0
   -0.5610    4.7139    0.0588 N   0  0  0  0  0  0  0  0  0  0  0  0
    0.2311    5.9260    0.2135 C   0  0  0  0  0  0  0  0  0  0  0  0
   -0.5837    4.0249    0.8154 H   0  0  0  0  0  0  0  0  0  0  0  0
    0.7404    5.9230    1.1821 H   0  0  0  0  0  0  0  0  0  0  0  0
    0.9880    5.9923   -0.5751 H   0  0  0  0  0  0  0  0  0  0  0  0
   -0.4112    6.8113    0.1624 H   0  0  0  0  0  0  0  0  0  0  0  0
  1  2  2  0  0  0  0
  1  3  1  0  0  0  0
  1  7  1  0  0  0  0
  3  4  1  0  0  0  0
  3  5  1  0  0  0  0
  3  6  1  0  0  0  0
  7  8  1  0  0  0  0
  7 12  1  0  0  0  0
  8  9  1  0  0  0  0
  8 11  1  0  0  0  0
  8 13  1  0  0  0  0
  9 10  2  0  0  0  0
  9 17  1  0  0  0  0
 11 14  1  0  0  0  0
 11 15  1  0  0  0  0
 11 16  1  0  0  0  0
 17 18  1  0  0  0  0
 17 25  1  0  0  0  0
 18 19  1  0  0  0  0
 18 21  1  0  0  0  0
 18 26  1  0  0  0  0
 19 20  2  0  0  0  0
 19 36  1  0  0  0  0
 21 22  1  0  0  0  0
 21 27  1  0  0  0  0
 21 28  1  0  0  0  0
 22 23  1  0  0  0  0
 22 24  1  0  0  0  0
 22 29  1  0  0  0  0
 23 30  1  0  0  0  0
 23 31  1  0  0  0  0
 23 32  1  0  0  0  0
 24 33  1  0  0  0  0
 24 34  1  0  0  0  0
 24 35  1  0  0  0  0
 36 37  1  0  0  0  0
 36 41  1  0  0  0  0
 37 38  1  0  0  0  0
 37 40  1  0  0  0  0
 37 42  1  0  0  0  0
 38 39  2  0  0  0  0
 38 46  1  0  0  0  0
 40 43  1  0  0  0  0
 40 44  1  0  0  0  0
 40 45  1  0  0  0  0
 46 47  1  0  0  0  0
 46 48  1  0  0  0  0
 47 49  1  0  0  0  0
 47 50  1  0  0  0  0
 47 51  1  0  0  0  0
M  END
$$$$

  -OEChem-05262216553D

 51 50  0     1  0  0  0  0  0999 V2000
    2.5823   -2.1261   -4.8950 C   0  0  0  0  0  0  0  0  0  0  0  0
    1.5539   -2.4056   -5.4911 O   0  0  0  0  0  0  0  0  0  0  0  0
    3.9006   -2.0449   -5.6417 C   0  0  0  0  0  0  0  0  0  0  0  0
    4.6326   -2.7136   -5.1824 H   0  0  0  0  0  0  0  0  0  0  0  0
    3.7616   -2.3398   -6.6855 H   0  0  0  0  0  0  0  0  0  0  0  0
    4.2834   -1.0219   -5.6122 H   0  0  0  0  0  0  0  0  0  0  0  0
    2.5412   -1.8665   -3.5413 N   0  0  0  0  0  0  0  0  0  0  0  0
    1.3035   -1.7514   -2.7591 C   0  0  2  0  0  0  0  0  0  0  0  0
    1.4678   -0.7782   -1.5701 C   0  0  0  0  0  0  0  0  0  0  0  0
    2.5668   -0.2958   -1.3314 O   0  0  0  0  0  0  0  0  0  0  0  0
    0.9033   -3.1496   -2.2778 C   0  0  0  0  0  0  0  0  0  0  0  0
    3.3891   -1.4961   -3.1117 H   0  0  0  0  0  0  0  0  0  0  0  0
    0.5066   -1.3515   -3.3956 H   0  0  0  0  0  0  0  0  0  0  0  0
    1.6990   -3.5859   -1.6657 H   0  0  0  0  0  0  0  0  0  0  0  0
   -0.0142   -3.1070   -1.6834 H   0  0  0  0  0  0  0  0  0  0  0  0
    0.7263   -3.8076   -3.1347 H   0  0  0  0  0  0  0  0  0  0  0  0
    0.3492   -0.2639   -0.9365 N   0  0  0  0  0  0  0  0  0  0  0  0
    0.2521    0.3382    0.4222 C   0  0  2  0  0  0  0  0  0  0  0  0
   -0.5652    1.6522    0.4187 C   0  0  0  0  0  0  0  0  0  0  0  0
   -0.8351    2.2173    1.4700 O   0  0  0  0  0  0  0  0  0  0  0  0
    1.4443    0.3185    1.4277 C   0  0  0  0  0  0  0  0  0  0  0  0
    1.9209   -1.0470    2.0088 C   0  0  0  0  0  0  0  0  0  0  0  0
    3.1874   -0.8066    2.8403 C   0  0  0  0  0  0  0  0  0  0  0  0
    2.1639   -2.2335    1.0742 C   0  0  0  0  0  0  0  0  0  0  0  0
   -0.5158   -0.6746   -1.2791 H   0  0  0  0  0  0  0  0  0  0  0  0
   -0.4466   -0.3377    0.9242 H   0  0  0  0  0  0  0  0  0  0  0  0
    1.1796    0.9424    2.2878 H   0  0  0  0  0  0  0  0  0  0  0  0
    2.2934    0.8098    0.9431 H   0  0  0  0  0  0  0  0  0  0  0  0
    1.1321   -1.3702    2.6971 H   0  0  0  0  0  0  0  0  0  0  0  0
    4.0134   -0.4839    2.1978 H   0  0  0  0  0  0  0  0  0  0  0  0
    3.4874   -1.7237    3.3570 H   0  0  0  0  0  0  0  0  0  0  0  0
    3.0111   -0.0334    3.5945 H   0  0  0  0  0  0  0  0  0  0  0  0
    2.4098   -3.1237    1.6619 H   0  0  0  0  0  0  0  0  0  0  0  0
    1.2630   -2.4607    0.5015 H   0  0  0  0  0  0  0  0  0  0  0  0
    3.0021   -2.0428    0.3997 H   0  0  0  0  0  0  0  0  0  0  0  0
   -1.0990    2.1269   -0.7693 N   0  0  0  0  0  0  0  0  0  0  0  0
   -2.0044    3.2818   -0.9544 C   0  0  2  0  0  0  0  0  0  0  0  0
   -1.3838    4.6635   -0.6422 C   0  0  0  0  0  0  0  0  0  0  0  0
   -1.5333    5.5798   -1.4396 O   0  0  0  0  0  0  0  0  0  0  0  0
   -3.3142    3.0895   -0.1769 C   0  0  0  0  0  0  0  0  0  0  0  0
   -0.7073    1.7031   -1.6063 H   0  0  0  0  0  0  0  0  0  0  0  0
   -2.2691    3.3057   -2.0166 H   0  0  0  0  0  0  0  0  0  0  0  0
   -3.1510    3.1666    0.9020 H   0  0  0  0  0  0  0  0  0  0  0  0
   -4.0363    3.8595   -0.4663 H   0  0  0  0  0  0  0  0  0  0  0  0
   -3.7479    2.1093   -0.3957 H   0  0  0  0  0  0  0  0  0  0  0  0
   -0.6817    4.8911    0.5242 N   0  0  0  0  0  0  0  0  0  0  0  0
   -0.1146    6.1790    0.8988 C   0  0  0  0  0  0  0  0  0  0  0  0
   -0.6225    4.1049    1.1769 H   0  0  0  0  0  0  0  0  0  0  0  0
    0.4197    6.0931    1.8498 H   0  0  0  0  0  0  0  0  0  0  0  0
    0.5914    6.5235    0.1361 H   0  0  0  0  0  0  0  0  0  0  0  0
   -0.9060    6.9272    1.0118 H   0  0  0  0  0  0  0  0  0  0  0  0
  1  2  2  0  0  0  0
  1  3  1  0  0  0  0
  1  7  1  0  0  0  0
  3  4  1  0  0  0  0
  3  5  1  0  0  0  0
  3  6  1  0  0  0  0
  7  8  1  0  0  0  0
  7 12  1  0  0  0  0
  8  9  1  0  0  0  0
  8 11  1  0  0  0  0
  8 13  1  0  0  0  0
  9 10  2  0  0  0  0
  9 17  1  0  0  0  0
 11 14  1  0  0  0  0
 11 15  1  0  0  0  0
 11 16  1  0  0  0  0
 17 18  1  0  0  0  0
 17 25  1  0  0  0  0
 18 19  1  0  0  0  0
 18 21  1  0  0  0  0
 18 26  1  0  0  0  0
 19 20  2  0  0  0  0
 19 36  1  0  0  0  0
 21 22  1  0  0  0  0
 21 27  1  0  0  0  0
 21 28  1  0  0  0  0
 22 23  1  0  0  0  0
 22 24  1  0  0  0  0
 22 29  1  0  0  0  0
 23 30  1  0  0  0  0
 23 31  1  0  0  0  0
 23 32  1  0  0  0  0
 24 33  1  0  0  0  0
 24 34  1  0  0  0  0
 24 35  1  0  0  0  0
 36 37  1  0  0  0  0
 36 41  1  0  0  0  0
 37 38  1  0  0  0  0
 37 40  1  0  0  0  0
 37 42  1  0  0  0  0
 38 39  2  0  0  0  0
 38 46  1  0  0  0  0
 40 43  1  0  0  0  0
 40 44  1  0  0  0  0
 40 45  1  0  0  0  0
 46 47  1  0  0  0  0
 46 48  1  0  0  0  0
 47 49  1  0  0  0  0
 47 50  1  0  0  0  0
 47 51  1  0  0  0  0
M  END
$$$$

  -OEChem-05262216553D

 51 50  0     1  0  0  0  0  0999 V2000
    2.5932   -2.0141   -4.9201 C   0  0  0  0  0  0  0  0  0  0  0  0
    1.5697   -2.3086   -5.5174 O   0  0  0  0  0  0  0  0  0  0  0  0
    3.9040   -1.8789   -5.6717 C   0  0  0  0  0  0  0  0  0  0  0  0
    4.6543   -2.5446   -5.2381 H   0  0  0  0  0  0  0  0  0  0  0  0
    3.7645   -2.1437   -6.7236 H   0  0  0  0  0  0  0  0  0  0  0  0
    4.2629   -0.8485   -5.6120 H   0  0  0  0  0  0  0  0  0  0  0  0
    2.5525   -1.7863   -3.5607 N   0  0  0  0  0  0  0  0  0  0  0  0
    1.3140   -1.7141   -2.7752 C   0  0  2  0  0  0  0  0  0  0  0  0
    1.4562   -0.7628   -1.5659 C   0  0  0  0  0  0  0  0  0  0  0  0
    2.5452   -0.2651   -1.3136 O   0  0  0  0  0  0  0  0  0  0  0  0
    0.9425   -3.1304   -2.3247 C   0  0  0  0  0  0  0  0  0  0  0  0
    3.3913   -1.3993   -3.1281 H   0  0  0  0  0  0  0  0  0  0  0  0
    0.5098   -1.3170   -3.4038 H   0  0  0  0  0  0  0  0  0  0  0  0
    1.7467   -3.5636   -1.7216 H   0  0  0  0  0  0  0  0  0  0  0  0
    0.0242   -3.1196   -1.7304 H   0  0  0  0  0  0  0  0  0  0  0  0
    0.7792   -3.7739   -3.1953 H   0  0  0  0  0  0  0  0  0  0  0  0
    0.3232   -0.2822   -0.9313 N   0  0  0  0  0  0  0  0  0  0  0  0
    0.2026    0.2932    0.4371 C   0  0  2  0  0  0  0  0  0  0  0  0
   -0.6433    1.5922    0.4400 C   0  0  0  0  0  0  0  0  0  0  0  0
   -0.7381    2.2790    1.4486 O   0  0  0  0  0  0  0  0  0  0  0  0
    1.3908    0.2776    1.4497 C   0  0  0  0  0  0  0  0  0  0  0  0
    1.8930   -1.0875    2.0089 C   0  0  0  0  0  0  0  0  0  0  0  0
    3.1492   -0.8314    2.8510 C   0  0  0  0  0  0  0  0  0  0  0  0
    2.1724   -2.2497    1.0547 C   0  0  0  0  0  0  0  0  0  0  0  0
   -0.5241   -0.7255   -1.2759 H   0  0  0  0  0  0  0  0  0  0  0  0
   -0.4859   -0.4034    0.9250 H   0  0  0  0  0  0  0  0  0  0  0  0
    1.1107    0.8758    2.3224 H   0  0  0  0  0  0  0  0  0  0  0  0
    2.2318    0.7971    0.9794 H   0  0  0  0  0  0  0  0  0  0  0  0
    1.1077   -1.4420    2.6853 H   0  0  0  0  0  0  0  0  0  0  0  0
    3.9715   -0.4838    2.2172 H   0  0  0  0  0  0  0  0  0  0  0  0
    3.4654   -1.7483    3.3584 H   0  0  0  0  0  0  0  0  0  0  0  0
    2.9523   -0.0710    3.6134 H   0  0  0  0  0  0  0  0  0  0  0  0
    3.0093   -2.0240    0.3898 H   0  0  0  0  0  0  0  0  0  0  0  0
    2.4396   -3.1433    1.6275 H   0  0  0  0  0  0  0  0  0  0  0  0
    1.2817   -2.4907    0.4719 H   0  0  0  0  0  0  0  0  0  0  0  0
   -1.4235    1.9021   -0.6640 N   0  0  0  0  0  0  0  0  0  0  0  0
   -2.3674    3.0309   -0.8099 C   0  0  2  0  0  0  0  0  0  0  0  0
   -1.7186    4.4349   -0.7925 C   0  0  0  0  0  0  0  0  0  0  0  0
   -1.9323    5.2039   -1.7203 O   0  0  0  0  0  0  0  0  0  0  0  0
   -3.5026    2.9411    0.2193 C   0  0  0  0  0  0  0  0  0  0  0  0
   -1.1636    1.4084   -1.5125 H   0  0  0  0  0  0  0  0  0  0  0  0
   -2.8300    2.9278   -1.7970 H   0  0  0  0  0  0  0  0  0  0  0  0
   -3.1396    3.1388    1.2320 H   0  0  0  0  0  0  0  0  0  0  0  0
   -4.2764    3.6791   -0.0136 H   0  0  0  0  0  0  0  0  0  0  0  0
   -3.9566    1.9460    0.1998 H   0  0  0  0  0  0  0  0  0  0  0  0
   -0.9098    4.8404    0.2498 N   0  0  0  0  0  0  0  0  0  0  0  0
   -0.2470    6.1353    0.3160 C   0  0  0  0  0  0  0  0  0  0  0  0
   -0.7285    4.1435    0.9775 H   0  0  0  0  0  0  0  0  0  0  0  0
   -0.9820    6.9453    0.2650 H   0  0  0  0  0  0  0  0  0  0  0  0
    0.3037    6.2282    1.2570 H   0  0  0  0  0  0  0  0  0  0  0  0
    0.4602    6.2467   -0.5122 H   0  0  0  0  0  0  0  0  0  0  0  0
  1  2  2  0  0  0  0
  1  3  1  0  0  0  0
  1  7  1  0  0  0  0
  3  4  1  0  0  0  0
  3  5  1  0  0  0  0
  3  6  1  0  0  0  0
  7  8  1  0  0  0  0
  7 12  1  0  0  0  0
  8  9  1  0  0  0  0
  8 11  1  0  0  0  0
  8 13  1  0  0  0  0
  9 10  2  0  0  0  0
  9 17  1  0  0  0  0
 11 14  1  0  0  0  0
 11 15  1  0  0  0  0
 11 16  1  0  0  0  0
 17 18  1  0  0  0  0
 17 25  1  0  0  0  0
 18 19  1  0  0  0  0
 18 21  1  0  0  0  0
 18 26  1  0  0  0  0
 19 20  2  0  0  0  0
 19 36  1  0  0  0  0
 21 22  1  0  0  0  0
 21 27  1  0  0  0  0
 21 28  1  0  0  0  0
 22 23  1  0  0  0  0
 22 24  1  0  0  0  0
 22 29  1  0  0  0  0
 23 30  1  0  0  0  0
 23 31  1  0  0  0  0
 23 32  1  0  0  0  0
 24 33  1  0  0  0  0
 24 34  1  0  0  0  0
 24 35  1  0  0  0  0
 36 37  1  0  0  0  0
 36 41  1  0  0  0  0
 37 38  1  0  0  0  0
 37 40  1  0  0  0  0
 37 42  1  0  0  0  0
 38 39  2  0  0  0  0
 38 46  1  0  0  0  0
 40 43  1  0  0  0  0
 40 44  1  0  0  0  0
 40 45  1  0  0  0  0
 46 47  1  0  0  0  0
 46 48  1  0  0  0  0
 47 49  1  0  0  0  0
 47 50  1  0  0  0  0
 47 51  1  0  0  0  0
M  END
$$$$

  -OEChem-05262216553D

 51 50  0     1  0  0  0  0  0999 V2000
    0.8421   -2.6909   -2.9560 C   0  0  0  0  0  0  0  0  0  0  0  0
   -0.1387   -2.0377   -2.6311 O   0  0  0  0  0  0  0  0  0  0  0  0
    0.7643   -4.2059   -2.9724 C   0  0  0  0  0  0  0  0  0  0  0  0
    1.4764   -4.6257   -2.2574 H   0  0  0  0  0  0  0  0  0  0  0  0
   -0.2424   -4.5363   -2.7005 H   0  0  0  0  0  0  0  0  0  0  0  0
    0.9977   -4.5817   -3.9717 H   0  0  0  0  0  0  0  0  0  0  0  0
    2.0418   -2.0699   -3.2520 N   0  0  0  0  0  0  0  0  0  0  0  0
    2.2961   -0.6167   -3.3637 C   0  0  2  0  0  0  0  0  0  0  0  0
    2.1762    0.1816   -2.0444 C   0  0  0  0  0  0  0  0  0  0  0  0
    3.0295    1.0142   -1.7799 O   0  0  0  0  0  0  0  0  0  0  0  0
    1.4186    0.0079   -4.4576 C   0  0  0  0  0  0  0  0  0  0  0  0
    2.8104   -2.6921   -3.4889 H   0  0  0  0  0  0  0  0  0  0  0  0
    3.3368   -0.5010   -3.6851 H   0  0  0  0  0  0  0  0  0  0  0  0
    0.3620   -0.0014   -4.1746 H   0  0  0  0  0  0  0  0  0  0  0  0
    1.7153    1.0482   -4.6268 H   0  0  0  0  0  0  0  0  0  0  0  0
    1.5329   -0.5408   -5.3974 H   0  0  0  0  0  0  0  0  0  0  0  0
    1.0370    0.0918   -1.2684 N   0  0  0  0  0  0  0  0  0  0  0  0
    0.8725    0.3635    0.1804 C   0  0  2  0  0  0  0  0  0  0  0  0
   -0.3899    1.2183    0.4499 C   0  0  0  0  0  0  0  0  0  0  0  0
   -0.4714    1.9453    1.4320 O   0  0  0  0  0  0  0  0  0  0  0  0
    2.0938    0.6331    1.1105 C   0  0  0  0  0  0  0  0  0  0  0  0
    3.1013   -0.5266    1.3737 C   0  0  0  0  0  0  0  0  0  0  0  0
    4.2773    0.0319    2.1848 C   0  0  0  0  0  0  0  0  0  0  0  0
    3.6571   -1.3337    0.1965 C   0  0  0  0  0  0  0  0  0  0  0  0
    0.3942   -0.6056   -1.6516 H   0  0  0  0  0  0  0  0  0  0  0  0
    0.5452   -0.6086    0.5603 H   0  0  0  0  0  0  0  0  0  0  0  0
    1.7195    0.9416    2.0918 H   0  0  0  0  0  0  0  0  0  0  0  0
    2.6382    1.4909    0.7035 H   0  0  0  0  0  0  0  0  0  0  0  0
    2.5740   -1.2475    2.0075 H   0  0  0  0  0  0  0  0  0  0  0  0
    4.8444    0.7558    1.5909 H   0  0  0  0  0  0  0  0  0  0  0  0
    4.9529   -0.7737    2.4885 H   0  0  0  0  0  0  0  0  0  0  0  0
    3.9164    0.5320    3.0890 H   0  0  0  0  0  0  0  0  0  0  0  0
    4.2760   -0.7090   -0.4520 H   0  0  0  0  0  0  0  0  0  0  0  0
    4.2867   -2.1476    0.5693 H   0  0  0  0  0  0  0  0  0  0  0  0
    2.8477   -1.7862   -0.3806 H   0  0  0  0  0  0  0  0  0  0  0  0
   -1.4777    1.1069   -0.4035 N   0  0  0  0  0  0  0  0  0  0  0  0
   -2.7886    1.7805   -0.2886 C   0  0  2  0  0  0  0  0  0  0  0  0
   -2.7545    3.3161   -0.4687 C   0  0  0  0  0  0  0  0  0  0  0  0
   -3.5506    3.8476   -1.2320 O   0  0  0  0  0  0  0  0  0  0  0  0
   -3.4973    1.4005    1.0192 C   0  0  0  0  0  0  0  0  0  0  0  0
   -1.3091    0.5610   -1.2442 H   0  0  0  0  0  0  0  0  0  0  0  0
   -3.4092    1.3978   -1.1052 H   0  0  0  0  0  0  0  0  0  0  0  0
   -2.9930    1.8374    1.8861 H   0  0  0  0  0  0  0  0  0  0  0  0
   -4.5284    1.7677    1.0058 H   0  0  0  0  0  0  0  0  0  0  0  0
   -3.5191    0.3131    1.1388 H   0  0  0  0  0  0  0  0  0  0  0  0
   -1.8569    4.1033    0.2240 N   0  0  0  0  0  0  0  0  0  0  0  0
   -1.7787    5.5527    0.1098 C   0  0  0  0  0  0  0  0  0  0  0  0
   -1.2206    3.6113    0.8576 H   0  0  0  0  0  0  0  0  0  0  0  0
   -0.9851    5.9393    0.7564 H   0  0  0  0  0  0  0  0  0  0  0  0
   -1.5571    5.8447   -0.9220 H   0  0  0  0  0  0  0  0  0  0  0  0
   -2.7256    6.0119    0.4116 H   0  0  0  0  0  0  0  0  0  0  0  0
  1  2  2  0  0  0  0
  1  3  1  0  0  0  0
  1  7  1  0  0  0  0
  3  4  1  0  0  0  0
  3  5  1  0  0  0  0
  3  6  1  0  0  0  0
  7  8  1  0  0  0  0
  7 12  1  0  0  0  0
  8  9  1  0  0  0  0
  8 11  1  0  0  0  0
  8 13  1  0  0  0  0
  9 10  2  0  0  0  0
  9 17  1  0  0  0  0
 11 14  1  0  0  0  0
 11 15  1  0  0  0  0
 11 16  1  0  0  0  0
 17 18  1  0  0  0  0
 17 25  1  0  0  0  0
 18 19  1  0  0  0  0
 18 21  1  0  0  0  0
 18 26  1  0  0  0  0
 19 20  2  0  0  0  0
 19 36  1  0  0  0  0
 21 22  1  0  0  0  0
 21 27  1  0  0  0  0
 21 28  1  0  0  0  0
 22 23  1  0  0  0  0
 22 24  1  0  0  0  0
 22 29  1  0  0  0  0
 23 30  1  0  0  0  0
 23 31  1  0  0  0  0
 23 32  1  0  0  0  0
 24 33  1  0  0  0  0
 24 34  1  0  0  0  0
 24 35  1  0  0  0  0
 36 37  1  0  0  0  0
 36 41  1  0  0  0  0
 37 38  1  0  0  0  0
 37 40  1  0  0  0  0
 37 42  1  0  0  0  0
 38 39  2  0  0  0  0
 38 46  1  0  0  0  0
 40 43  1  0  0  0  0
 40 44  1  0  0  0  0
 40 45  1  0  0  0  0
 46 47  1  0  0  0  0
 46 48  1  0  0  0  0
 47 49  1  0  0  0  0
 47 50  1  0  0  0  0
 47 51  1  0  0  0  0
M  END
$$$$

  -OEChem-05262216553D

 51 50  0     1  0  0  0  0  0999 V2000
    0.8856   -2.5136   -3.0727 C   0  0  0  0  0  0  0  0  0  0  0  0
   -0.1001   -1.9075   -2.6772 O   0  0  0  0  0  0  0  0  0  0  0  0
    0.8176   -4.0189   -3.2473 C   0  0  0  0  0  0  0  0  0  0  0  0
    1.4545   -4.5106   -2.5077 H   0  0  0  0  0  0  0  0  0  0  0  0
   -0.2104   -4.3687   -3.1155 H   0  0  0  0  0  0  0  0  0  0  0  0
    1.1549   -4.2956   -4.2493 H   0  0  0  0  0  0  0  0  0  0  0  0
    2.0800   -1.8575   -3.3129 N   0  0  0  0  0  0  0  0  0  0  0  0
    2.3223   -0.3972   -3.3068 C   0  0  2  0  0  0  0  0  0  0  0  0
    2.2004    0.2943   -1.9290 C   0  0  0  0  0  0  0  0  0  0  0  0
    3.0310    1.1301   -1.6084 O   0  0  0  0  0  0  0  0  0  0  0  0
    1.4314    0.3025   -4.3428 C   0  0  0  0  0  0  0  0  0  0  0  0
    2.8459   -2.4482   -3.6264 H   0  0  0  0  0  0  0  0  0  0  0  0
    3.3600   -0.2461   -3.6223 H   0  0  0  0  0  0  0  0  0  0  0  0
    0.3765    0.2553   -4.0566 H   0  0  0  0  0  0  0  0  0  0  0  0
    1.7134    1.3570   -4.4279 H   0  0  0  0  0  0  0  0  0  0  0  0
    1.5474   -0.1661   -5.3249 H   0  0  0  0  0  0  0  0  0  0  0  0
    1.0629    0.1177   -1.1685 N   0  0  0  0  0  0  0  0  0  0  0  0
    0.8468    0.3244    0.2814 C   0  0  2  0  0  0  0  0  0  0  0  0
   -0.4711    1.0939    0.5276 C   0  0  0  0  0  0  0  0  0  0  0  0
   -0.5411    1.9925    1.3566 O   0  0  0  0  0  0  0  0  0  0  0  0
    2.0183    0.6436    1.2554 C   0  0  0  0  0  0  0  0  0  0  0  0
    3.0986   -0.4506    1.5107 C   0  0  0  0  0  0  0  0  0  0  0  0
    4.2088    0.1593    2.3754 C   0  0  0  0  0  0  0  0  0  0  0  0
    3.7436   -1.1778    0.3272 C   0  0  0  0  0  0  0  0  0  0  0  0
    0.4271   -0.5462   -1.6149 H   0  0  0  0  0  0  0  0  0  0  0  0
    0.5740   -0.6781    0.6232 H   0  0  0  0  0  0  0  0  0  0  0  0
    1.5901    0.8917    2.2320 H   0  0  0  0  0  0  0  0  0  0  0  0
    2.5118    1.5505    0.8917 H   0  0  0  0  0  0  0  0  0  0  0  0
    2.6051   -1.2276    2.1041 H   0  0  0  0  0  0  0  0  0  0  0  0
    4.7456    0.9345    1.8188 H   0  0  0  0  0  0  0  0  0  0  0  0
    4.9258   -0.6097    2.6795 H   0  0  0  0  0  0  0  0  0  0  0  0
    3.7881    0.6098    3.2799 H   0  0  0  0  0  0  0  0  0  0  0  0
    4.4077   -1.9660    0.6950 H   0  0  0  0  0  0  0  0  0  0  0  0
    2.9851   -1.6551   -0.2972 H   0  0  0  0  0  0  0  0  0  0  0  0
    4.3477   -0.4940   -0.2736 H   0  0  0  0  0  0  0  0  0  0  0  0
   -1.6095    0.7165   -0.1710 N   0  0  0  0  0  0  0  0  0  0  0  0
   -2.9668    1.2903   -0.0544 C   0  0  2  0  0  0  0  0  0  0  0  0
   -3.1022    2.7548   -0.5326 C   0  0  0  0  0  0  0  0  0  0  0  0
   -3.9906    3.0476   -1.3227 O   0  0  0  0  0  0  0  0  0  0  0  0
   -3.5180    1.1276    1.3689 C   0  0  0  0  0  0  0  0  0  0  0  0
   -1.4639    0.0213   -0.8990 H   0  0  0  0  0  0  0  0  0  0  0  0
   -3.6132    0.7003   -0.7123 H   0  0  0  0  0  0  0  0  0  0  0  0
   -2.9888    1.7719    2.0770 H   0  0  0  0  0  0  0  0  0  0  0  0
   -4.5784    1.3973    1.3915 H   0  0  0  0  0  0  0  0  0  0  0  0
   -3.4180    0.0895    1.6993 H   0  0  0  0  0  0  0  0  0  0  0  0
   -2.2505    3.7422   -0.0799 N   0  0  0  0  0  0  0  0  0  0  0  0
   -2.3105    5.1341   -0.5029 C   0  0  0  0  0  0  0  0  0  0  0  0
   -1.5179    3.4431    0.5701 H   0  0  0  0  0  0  0  0  0  0  0  0
   -1.5450    5.7187    0.0164 H   0  0  0  0  0  0  0  0  0  0  0  0
   -2.1360    5.2144   -1.5808 H   0  0  0  0  0  0  0  0  0  0  0  0
   -3.2905    5.5640   -0.2705 H   0  0  0  0  0  0  0  0  0  0  0  0
  1  2  2  0  0  0  0
  1  3  1  0  0  0  0
  1  7  1  0  0  0  0
  3  4  1  0  0  0  0
  3  5  1  0  0  0  0
  3  6  1  0  0  0  0
  7  8  1  0  0  0  0
  7 12  1  0  0  0  0
  8  9  1  0  0  0  0
  8 11  1  0  0  0  0
  8 13  1  0  0  0  0
  9 10  2  0  0  0  0
  9 17  1  0  0  0  0
 11 14  1  0  0  0  0
 11 15  1  0  0  0  0
 11 16  1  0  0  0  0
 17 18  1  0  0  0  0
 17 25  1  0  0  0  0
 18 19  1  0  0  0  0
 18 21  1  0  0  0  0
 18 26  1  0  0  0  0
 19 20  2  0  0  0  0
 19 36  1  0  0  0  0
 21 22  1  0  0  0  0
 21 27  1  0  0  0  0
 21 28  1  0  0  0  0
 22 23  1  0  0  0  0
 22 24  1  0  0  0  0
 22 29  1  0  0  0  0
 23 30  1  0  0  0  0
 23 31  1  0  0  0  0
 23 32  1  0  0  0  0
 24 33  1  0  0  0  0
 24 34  1  0  0  0  0
 24 35  1  0  0  0  0
 36 37  1  0  0  0  0
 36 41  1  0  0  0  0
 37 38  1  0  0  0  0
 37 40  1  0  0  0  0
 37 42  1  0  0  0  0
 38 39  2  0  0  0  0
 38 46  1  0  0  0  0
 40 43  1  0  0  0  0
 40 44  1  0  0  0  0
 40 45  1  0  0  0  0
 46 47  1  0  0  0  0
 46 48  1  0  0  0  0
 47 49  1  0  0  0  0
 47 50  1  0  0  0  0
 47 51  1  0  0  0  0
M  END
$$$$

  -OEChem-05262216553D

 51 50  0     1  0  0  0  0  0999 V2000
    0.9584   -2.4456   -3.0864 C   0  0  0  0  0  0  0  0  0  0  0  0
   -0.0537   -1.8937   -2.6788 O   0  0  0  0  0  0  0  0  0  0  0  0
    0.9628   -3.9500   -3.2814 C   0  0  0  0  0  0  0  0  0  0  0  0
    1.6587   -4.4161   -2.5793 H   0  0  0  0  0  0  0  0  0  0  0  0
   -0.0377   -4.3571   -3.1094 H   0  0  0  0  0  0  0  0  0  0  0  0
    1.2677   -4.1944   -4.3019 H   0  0  0  0  0  0  0  0  0  0  0  0
    2.1177   -1.7295   -3.3263 N   0  0  0  0  0  0  0  0  0  0  0  0
    2.2944   -0.2612   -3.2758 C   0  0  2  0  0  0  0  0  0  0  0  0
    2.1454    0.3734   -1.8739 C   0  0  0  0  0  0  0  0  0  0  0  0
    2.9896    1.1673   -1.4887 O   0  0  0  0  0  0  0  0  0  0  0  0
    1.3709    0.4318   -4.2874 C   0  0  0  0  0  0  0  0  0  0  0  0
    2.9133   -2.2780   -3.6421 H   0  0  0  0  0  0  0  0  0  0  0  0
    3.3234   -0.0533   -3.5876 H   0  0  0  0  0  0  0  0  0  0  0  0
    0.3193    0.3275   -4.0045 H   0  0  0  0  0  0  0  0  0  0  0  0
    1.6053    1.5001   -4.3369 H   0  0  0  0  0  0  0  0  0  0  0  0
    1.5074    0.0016   -5.2839 H   0  0  0  0  0  0  0  0  0  0  0  0
    0.9872    0.1798   -1.1492 N   0  0  0  0  0  0  0  0  0  0  0  0
    0.7522    0.2961    0.3067 C   0  0  2  0  0  0  0  0  0  0  0  0
   -0.5449    1.0851    0.5847 C   0  0  0  0  0  0  0  0  0  0  0  0
   -0.5384    2.0965    1.2749 O   0  0  0  0  0  0  0  0  0  0  0  0
    1.9071    0.5289    1.3213 C   0  0  0  0  0  0  0  0  0  0  0  0
    2.9642   -0.5978    1.5276 C   0  0  0  0  0  0  0  0  0  0  0  0
    4.0645   -0.0633    2.4523 C   0  0  0  0  0  0  0  0  0  0  0  0
    3.6229   -1.2621    0.3151 C   0  0  0  0  0  0  0  0  0  0  0  0
    0.3475   -0.4447   -1.6455 H   0  0  0  0  0  0  0  0  0  0  0  0
    0.4553   -0.7210    0.5784 H   0  0  0  0  0  0  0  0  0  0  0  0
    1.4583    0.7246    2.3011 H   0  0  0  0  0  0  0  0  0  0  0  0
    2.4240    1.4478    1.0262 H   0  0  0  0  0  0  0  0  0  0  0  0
    2.4451   -1.4016    2.0600 H   0  0  0  0  0  0  0  0  0  0  0  0
    4.6295    0.7319    1.9551 H   0  0  0  0  0  0  0  0  0  0  0  0
    4.7584   -0.8640    2.7262 H   0  0  0  0  0  0  0  0  0  0  0  0
    3.6309    0.3417    3.3721 H   0  0  0  0  0  0  0  0  0  0  0  0
    4.2521   -0.5539   -0.2290 H   0  0  0  0  0  0  0  0  0  0  0  0
    4.2649   -2.0836    0.6473 H   0  0  0  0  0  0  0  0  0  0  0  0
    2.8706   -1.6859   -0.3537 H   0  0  0  0  0  0  0  0  0  0  0  0
   -1.7451    0.5963    0.0888 N   0  0  0  0  0  0  0  0  0  0  0  0
   -3.0911    1.1816    0.2655 C   0  0  2  0  0  0  0  0  0  0  0  0
   -3.2998    2.5510   -0.4225 C   0  0  0  0  0  0  0  0  0  0  0  0
   -4.2664    2.7120   -1.1566 O   0  0  0  0  0  0  0  0  0  0  0  0
   -3.4788    1.2495    1.7496 C   0  0  0  0  0  0  0  0  0  0  0  0
   -1.6656   -0.1939   -0.5464 H   0  0  0  0  0  0  0  0  0  0  0  0
   -3.7970    0.4951   -0.2132 H   0  0  0  0  0  0  0  0  0  0  0  0
   -2.8889    2.0017    2.2814 H   0  0  0  0  0  0  0  0  0  0  0  0
   -4.5358    1.5159    1.8481 H   0  0  0  0  0  0  0  0  0  0  0  0
   -3.3205    0.2789    2.2289 H   0  0  0  0  0  0  0  0  0  0  0  0
   -2.4190    3.5958   -0.2281 N   0  0  0  0  0  0  0  0  0  0  0  0
   -2.5394    4.8988   -0.8666 C   0  0  0  0  0  0  0  0  0  0  0  0
   -1.6172    3.4036    0.3797 H   0  0  0  0  0  0  0  0  0  0  0  0
   -1.7388    5.5611   -0.5235 H   0  0  0  0  0  0  0  0  0  0  0  0
   -2.4662    4.8001   -1.9546 H   0  0  0  0  0  0  0  0  0  0  0  0
   -3.5005    5.3606   -0.6177 H   0  0  0  0  0  0  0  0  0  0  0  0
  1  2  2  0  0  0  0
  1  3  1  0  0  0  0
  1  7  1  0  0  0  0
  3  4  1  0  0  0  0
  3  5  1  0  0  0  0
  3  6  1  0  0  0  0
  7  8  1  0  0  0  0
  7 12  1  0  0  0  0
  8  9  1  0  0  0  0
  8 11  1  0  0  0  0
  8 13  1  0  0  0  0
  9 10  2  0  0  0  0
  9 17  1  0  0  0  0
 11 14  1  0  0  0  0
 11 15  1  0  0  0  0
 11 16  1  0  0  0  0
 17 18  1  0  0  0  0
 17 25  1  0  0  0  0
 18 19  1  0  0  0  0
 18 21  1  0  0  0  0
 18 26  1  0  0  0  0
 19 20  2  0  0  0  0
 19 36  1  0  0  0  0
 21 22  1  0  0  0  0
 21 27  1  0  0  0  0
 21 28  1  0  0  0  0
 22 23  1  0  0  0  0
 22 24  1  0  0  0  0
 22 29  1  0  0  0  0
 23 30  1  0  0  0  0
 23 31  1  0  0  0  0
 23 32  1  0  0  0  0
 24 33  1  0  0  0  0
 24 34  1  0  0  0  0
 24 35  1  0  0  0  0
 36 37  1  0  0  0  0
 36 41  1  0  0  0  0
 37 38  1  0  0  0  0
 37 40  1  0  0  0  0
 37 42  1  0  0  0  0
 38 39  2  0  0  0  0
 38 46  1  0  0  0  0
 40 43  1  0  0  0  0
 40 44  1  0  0  0  0
 40 45  1  0  0  0  0
 46 47  1  0  0  0  0
 46 48  1  0  0  0  0
 47 49  1  0  0  0  0
 47 50  1  0  0  0  0
 47 51  1  0  0  0  0
M  END
$$$$

  -OEChem-05262216553D

 51 50  0     1  0  0  0  0  0999 V2000
    0.9715   -2.4810   -3.0143 C   0  0  0  0  0  0  0  0  0  0  0  0
   -0.0460   -1.9636   -2.5767 O   0  0  0  0  0  0  0  0  0  0  0  0
    1.0293   -3.9874   -3.1840 C   0  0  0  0  0  0  0  0  0  0  0  0
    1.8059   -4.4071   -2.5398 H   0  0  0  0  0  0  0  0  0  0  0  0
    0.0685   -4.4354   -2.9145 H   0  0  0  0  0  0  0  0  0  0  0  0
    1.2530   -4.2384   -4.2239 H   0  0  0  0  0  0  0  0  0  0  0  0
    2.0887   -1.7228   -3.3157 N   0  0  0  0  0  0  0  0  0  0  0  0
    2.2055   -0.2483   -3.2886 C   0  0  2  0  0  0  0  0  0  0  0  0
    2.0774    0.3951   -1.8883 C   0  0  0  0  0  0  0  0  0  0  0  0
    2.9320    1.1855   -1.5188 O   0  0  0  0  0  0  0  0  0  0  0  0
    1.2215    0.3917   -4.2780 C   0  0  0  0  0  0  0  0  0  0  0  0
    2.8948   -2.2432   -3.6517 H   0  0  0  0  0  0  0  0  0  0  0  0
    3.2139   -0.0012   -3.6369 H   0  0  0  0  0  0  0  0  0  0  0  0
    0.1844    0.2390   -3.9654 H   0  0  0  0  0  0  0  0  0  0  0  0
    1.4028    1.4695   -4.3416 H   0  0  0  0  0  0  0  0  0  0  0  0
    1.3513   -0.0394   -5.2751 H   0  0  0  0  0  0  0  0  0  0  0  0
    0.9307    0.2082   -1.1435 N   0  0  0  0  0  0  0  0  0  0  0  0
    0.7242    0.3254    0.3162 C   0  0  2  0  0  0  0  0  0  0  0  0
   -0.5607    1.1216    0.6210 C   0  0  0  0  0  0  0  0  0  0  0  0
   -0.5052    2.2498    1.0928 O   0  0  0  0  0  0  0  0  0  0  0  0
    1.8928    0.5629    1.3131 C   0  0  0  0  0  0  0  0  0  0  0  0
    2.9579   -0.5588    1.5067 C   0  0  0  0  0  0  0  0  0  0  0  0
    4.0696   -0.0180    2.4147 C   0  0  0  0  0  0  0  0  0  0  0  0
    3.5978   -1.2269    0.2863 C   0  0  0  0  0  0  0  0  0  0  0  0
    0.2809   -0.4191   -1.6246 H   0  0  0  0  0  0  0  0  0  0  0  0
    0.4371   -0.6927    0.5937 H   0  0  0  0  0  0  0  0  0  0  0  0
    1.4565    0.7626    2.2977 H   0  0  0  0  0  0  0  0  0  0  0  0
    2.4027    1.4818    1.0058 H   0  0  0  0  0  0  0  0  0  0  0  0
    2.4500   -1.3626    2.0498 H   0  0  0  0  0  0  0  0  0  0  0  0
    4.6146    0.7887    1.9136 H   0  0  0  0  0  0  0  0  0  0  0  0
    4.7796   -0.8113    2.6682 H   0  0  0  0  0  0  0  0  0  0  0  0
    3.6488    0.3737    3.3462 H   0  0  0  0  0  0  0  0  0  0  0  0
    4.2430   -2.0489    0.6112 H   0  0  0  0  0  0  0  0  0  0  0  0
    2.8349   -1.6508   -0.3702 H   0  0  0  0  0  0  0  0  0  0  0  0
    4.2201   -0.5212   -0.2687 H   0  0  0  0  0  0  0  0  0  0  0  0
   -1.7919    0.5094    0.4361 N   0  0  0  0  0  0  0  0  0  0  0  0
   -3.1251    1.0841    0.7147 C   0  0  2  0  0  0  0  0  0  0  0  0
   -3.5133    2.2892   -0.1744 C   0  0  0  0  0  0  0  0  0  0  0  0
   -4.5724    2.2639   -0.7882 O   0  0  0  0  0  0  0  0  0  0  0  0
   -3.2816    1.4276    2.2029 C   0  0  0  0  0  0  0  0  0  0  0  0
   -1.7674   -0.3874   -0.0423 H   0  0  0  0  0  0  0  0  0  0  0  0
   -3.8580    0.3013    0.4935 H   0  0  0  0  0  0  0  0  0  0  0  0
   -2.6541    2.2783    2.4839 H   0  0  0  0  0  0  0  0  0  0  0  0
   -4.3225    1.6879    2.4189 H   0  0  0  0  0  0  0  0  0  0  0  0
   -3.0036    0.5698    2.8222 H   0  0  0  0  0  0  0  0  0  0  0  0
   -2.6919    3.3925   -0.2903 N   0  0  0  0  0  0  0  0  0  0  0  0
   -2.9794    4.5446   -1.1324 C   0  0  0  0  0  0  0  0  0  0  0  0
   -1.8001    3.3454    0.2115 H   0  0  0  0  0  0  0  0  0  0  0  0
   -2.1921    5.2963   -1.0214 H   0  0  0  0  0  0  0  0  0  0  0  0
   -3.0294    4.2464   -2.1846 H   0  0  0  0  0  0  0  0  0  0  0  0
   -3.9339    4.9995   -0.8478 H   0  0  0  0  0  0  0  0  0  0  0  0
  1  2  2  0  0  0  0
  1  3  1  0  0  0  0
  1  7  1  0  0  0  0
  3  4  1  0  0  0  0
  3  5  1  0  0  0  0
  3  6  1  0  0  0  0
  7  8  1  0  0  0  0
  7 12  1  0  0  0  0
  8  9  1  0  0  0  0
  8 11  1  0  0  0  0
  8 13  1  0  0  0  0
  9 10  2  0  0  0  0
  9 17  1  0  0  0  0
 11 14  1  0  0  0  0
 11 15  1  0  0  0  0
 11 16  1  0  0  0  0
 17 18  1  0  0  0  0
 17 25  1  0  0  0  0
 18 19  1  0  0  0  0
 18 21  1  0  0  0  0
 18 26  1  0  0  0  0
 19 20  2  0  0  0  0
 19 36  1  0  0  0  0
 21 22  1  0  0  0  0
 21 27  1  0  0  0  0
 21 28  1  0  0  0  0
 22 23  1  0  0  0  0
 22 24  1  0  0  0  0
 22 29  1  0  0  0  0
 23 30  1  0  0  0  0
 23 31  1  0  0  0  0
 23 32  1  0  0  0  0
 24 33  1  0  0  0  0
 24 34  1  0  0  0  0
 24 35  1  0  0  0  0
 36 37  1  0  0  0  0
 36 41  1  0  0  0  0
 37 38  1  0  0  0  0
 37 40  1  0  0  0  0
 37 42  1  0  0  0  0
 38 39  2  0  0  0  0
 38 46  1  0  0  0  0
 40 43  1  0  0  0  0
 40 44  1  0  0  0  0
 40 45  1  0  0  0  0
 46 47  1  0  0  0  0
 46 48  1  0  0  0  0
 47 49  1  0  0  0  0
 47 50  1  0  0  0  0
 47 51  1  0  0  0  0
M  END
$$$$

  -OEChem-05262216553D

 51 50  0     1  0  0  0  0  0999 V2000
    2.4223   -1.4831   -4.9683 C   0  0  0  0  0  0  0  0  0  0  0  0
    1.3937   -1.7417   -5.5733 O   0  0  0  0  0  0  0  0  0  0  0  0
    3.7087   -1.2199   -5.7280 C   0  0  0  0  0  0  0  0  0  0  0  0
    4.4727   -1.9412   -5.4281 H   0  0  0  0  0  0  0  0  0  0  0  0
    3.5374   -1.3136   -6.8040 H   0  0  0  0  0  0  0  0  0  0  0  0
    4.0674   -0.2098   -5.5156 H   0  0  0  0  0  0  0  0  0  0  0  0
    2.4126   -1.4192   -3.5912 N   0  0  0  0  0  0  0  0  0  0  0  0
    1.1970   -1.4784   -2.7699 C   0  0  2  0  0  0  0  0  0  0  0  0
    1.3612   -0.6906   -1.4514 C   0  0  0  0  0  0  0  0  0  0  0  0
    2.4672   -0.2724   -1.1356 O   0  0  0  0  0  0  0  0  0  0  0  0
    0.8739   -2.9487   -2.4835 C   0  0  0  0  0  0  0  0  0  0  0  0
    3.2537   -1.0669   -3.1339 H   0  0  0  0  0  0  0  0  0  0  0  0
    0.3643   -1.0268   -3.3200 H   0  0  0  0  0  0  0  0  0  0  0  0
    1.6957   -3.4218   -1.9364 H   0  0  0  0  0  0  0  0  0  0  0  0
   -0.0389   -3.0343   -1.8867 H   0  0  0  0  0  0  0  0  0  0  0  0
    0.7233   -3.4935   -3.4211 H   0  0  0  0  0  0  0  0  0  0  0  0
    0.2400   -0.3055   -0.7364 N   0  0  0  0  0  0  0  0  0  0  0  0
    0.1397    0.1444    0.6744 C   0  0  2  0  0  0  0  0  0  0  0  0
   -0.7469    1.3995    0.8132 C   0  0  0  0  0  0  0  0  0  0  0  0
   -0.2536    2.5147    0.7243 O   0  0  0  0  0  0  0  0  0  0  0  0
    1.3289    0.1088    1.6746 C   0  0  0  0  0  0  0  0  0  0  0  0
    1.8996   -1.2709    2.1241 C   0  0  0  0  0  0  0  0  0  0  0  0
    3.1479   -1.0231    2.9799 C   0  0  0  0  0  0  0  0  0  0  0  0
    2.2238   -2.3446    1.0823 C   0  0  0  0  0  0  0  0  0  0  0  0
   -0.6351   -0.5513   -1.1899 H   0  0  0  0  0  0  0  0  0  0  0  0
   -0.4909   -0.6355    1.1097 H   0  0  0  0  0  0  0  0  0  0  0  0
    1.0176    0.6378    2.5820 H   0  0  0  0  0  0  0  0  0  0  0  0
    2.1415    0.6982    1.2370 H   0  0  0  0  0  0  0  0  0  0  0  0
    1.1365   -1.7128    2.7734 H   0  0  0  0  0  0  0  0  0  0  0  0
    3.9442   -0.5759    2.3759 H   0  0  0  0  0  0  0  0  0  0  0  0
    3.5177   -1.9630    3.4011 H   0  0  0  0  0  0  0  0  0  0  0  0
    2.9175   -0.3457    3.8081 H   0  0  0  0  0  0  0  0  0  0  0  0
    2.5030   -3.2753    1.5855 H   0  0  0  0  0  0  0  0  0  0  0  0
    1.3524   -2.5585    0.4608 H   0  0  0  0  0  0  0  0  0  0  0  0
    3.0676   -2.0464    0.4561 H   0  0  0  0  0  0  0  0  0  0  0  0
   -2.1108    1.2635    1.0297 N   0  0  0  0  0  0  0  0  0  0  0  0
   -3.0954    2.3517    1.2148 C   0  0  2  0  0  0  0  0  0  0  0  0
   -3.3473    3.2258   -0.0360 C   0  0  0  0  0  0  0  0  0  0  0  0
   -4.4963    3.4013   -0.4194 O   0  0  0  0  0  0  0  0  0  0  0  0
   -2.7412    3.2249    2.4269 C   0  0  0  0  0  0  0  0  0  0  0  0
   -2.4628    0.3126    1.0826 H   0  0  0  0  0  0  0  0  0  0  0  0
   -4.0540    1.8737    1.4418 H   0  0  0  0  0  0  0  0  0  0  0  0
   -1.8505    3.8302    2.2345 H   0  0  0  0  0  0  0  0  0  0  0  0
   -3.5697    3.9037    2.6532 H   0  0  0  0  0  0  0  0  0  0  0  0
   -2.5557    2.6007    3.3059 H   0  0  0  0  0  0  0  0  0  0  0  0
   -2.3064    3.8089   -0.7301 N   0  0  0  0  0  0  0  0  0  0  0  0
   -2.4794    4.6834   -1.8813 C   0  0  0  0  0  0  0  0  0  0  0  0
   -1.3654    3.6403   -0.3620 H   0  0  0  0  0  0  0  0  0  0  0  0
   -1.5041    4.9724   -2.2847 H   0  0  0  0  0  0  0  0  0  0  0  0
   -3.0420    4.1736   -2.6704 H   0  0  0  0  0  0  0  0  0  0  0  0
   -3.0188    5.5916   -1.5933 H   0  0  0  0  0  0  0  0  0  0  0  0
  1  2  2  0  0  0  0
  1  3  1  0  0  0  0
  1  7  1  0  0  0  0
  3  4  1  0  0  0  0
  3  5  1  0  0  0  0
  3  6  1  0  0  0  0
  7  8  1  0  0  0  0
  7 12  1  0  0  0  0
  8  9  1  0  0  0  0
  8 11  1  0  0  0  0
  8 13  1  0  0  0  0
  9 10  2  0  0  0  0
  9 17  1  0  0  0  0
 11 14  1  0  0  0  0
 11 15  1  0  0  0  0
 11 16  1  0  0  0  0
 17 18  1  0  0  0  0
 17 25  1  0  0  0  0
 18 19  1  0  0  0  0
 18 21  1  0  0  0  0
 18 26  1  0  0  0  0
 19 20  2  0  0  0  0
 19 36  1  0  0  0  0
 21 22  1  0  0  0  0
 21 27  1  0  0  0  0
 21 28  1  0  0  0  0
 22 23  1  0  0  0  0
 22 24  1  0  0  0  0
 22 29  1  0  0  0  0
 23 30  1  0  0  0  0
 23 31  1  0  0  0  0
 23 32  1  0  0  0  0
 24 33  1  0  0  0  0
 24 34  1  0  0  0  0
 24 35  1  0  0  0  0
 36 37  1  0  0  0  0
 36 41  1  0  0  0  0
 37 38  1  0  0  0  0
 37 40  1  0  0  0  0
 37 42  1  0  0  0  0
 38 39  2  0  0  0  0
 38 46  1  0  0  0  0
 40 43  1  0  0  0  0
 40 44  1  0  0  0  0
 40 45  1  0  0  0  0
 46 47  1  0  0  0  0
 46 48  1  0  0  0  0
 47 49  1  0  0  0  0
 47 50  1  0  0  0  0
 47 51  1  0  0  0  0
M  END
$$$$

  -OEChem-05262216553D

 51 50  0     1  0  0  0  0  0999 V2000
    0.9690   -2.3505   -3.0297 C   0  0  0  0  0  0  0  0  0  0  0  0
   -0.0448   -1.8757   -2.5401 O   0  0  0  0  0  0  0  0  0  0  0  0
    1.0565   -3.8465   -3.2655 C   0  0  0  0  0  0  0  0  0  0  0  0
    1.8962   -4.2658   -2.7059 H   0  0  0  0  0  0  0  0  0  0  0  0
    0.1354   -4.3358   -2.9357 H   0  0  0  0  0  0  0  0  0  0  0  0
    1.1991   -4.0493   -4.3299 H   0  0  0  0  0  0  0  0  0  0  0  0
    2.0549   -1.5517   -3.3383 N   0  0  0  0  0  0  0  0  0  0  0  0
    2.1374   -0.0792   -3.2334 C   0  0  2  0  0  0  0  0  0  0  0  0
    2.0406    0.4766   -1.7937 C   0  0  0  0  0  0  0  0  0  0  0  0
    2.9370    1.1951   -1.3780 O   0  0  0  0  0  0  0  0  0  0  0  0
    1.1078    0.5910   -4.1549 C   0  0  0  0  0  0  0  0  0  0  0  0
    2.8648   -2.0351   -3.7171 H   0  0  0  0  0  0  0  0  0  0  0  0
    3.1275    0.2128   -3.5989 H   0  0  0  0  0  0  0  0  0  0  0  0
    0.0842    0.3879   -3.8267 H   0  0  0  0  0  0  0  0  0  0  0  0
    1.2560    1.6758   -4.1553 H   0  0  0  0  0  0  0  0  0  0  0  0
    1.2224    0.2269   -5.1802 H   0  0  0  0  0  0  0  0  0  0  0  0
    0.8892    0.2924   -1.0541 N   0  0  0  0  0  0  0  0  0  0  0  0
    0.6959    0.3406    0.4112 C   0  0  2  0  0  0  0  0  0  0  0  0
   -0.5523    1.1624    0.7928 C   0  0  0  0  0  0  0  0  0  0  0  0
   -0.5209    2.3850    0.7572 O   0  0  0  0  0  0  0  0  0  0  0  0
    1.8689    0.4804    1.4184 C   0  0  0  0  0  0  0  0  0  0  0  0
    2.8900   -0.6899    1.5518 C   0  0  0  0  0  0  0  0  0  0  0  0
    4.0205   -0.2433    2.4871 C   0  0  0  0  0  0  0  0  0  0  0  0
    3.5069   -1.3139    0.2969 C   0  0  0  0  0  0  0  0  0  0  0  0
    0.2159   -0.2909   -1.5590 H   0  0  0  0  0  0  0  0  0  0  0  0
    0.3797   -0.6849    0.6201 H   0  0  0  0  0  0  0  0  0  0  0  0
    1.4390    0.6494    2.4114 H   0  0  0  0  0  0  0  0  0  0  0  0
    2.4152    1.3925    1.1564 H   0  0  0  0  0  0  0  0  0  0  0  0
    2.3507   -1.5022    2.0503 H   0  0  0  0  0  0  0  0  0  0  0  0
    4.5982    0.5665    2.0297 H   0  0  0  0  0  0  0  0  0  0  0  0
    4.6977   -1.0770    2.6971 H   0  0  0  0  0  0  0  0  0  0  0  0
    3.6145    0.1138    3.4386 H   0  0  0  0  0  0  0  0  0  0  0  0
    4.1150   -2.1800    0.5753 H   0  0  0  0  0  0  0  0  0  0  0  0
    2.7299   -1.6664   -0.3846 H   0  0  0  0  0  0  0  0  0  0  0  0
    4.1617   -0.6049   -0.2151 H   0  0  0  0  0  0  0  0  0  0  0  0
   -1.7066    0.5151    1.2100 N   0  0  0  0  0  0  0  0  0  0  0  0
   -2.9803    1.1419    1.6238 C   0  0  2  0  0  0  0  0  0  0  0  0
   -3.7365    1.8878    0.4991 C   0  0  0  0  0  0  0  0  0  0  0  0
   -4.9244    1.6530    0.3188 O   0  0  0  0  0  0  0  0  0  0  0  0
   -2.7816    2.0516    2.8442 C   0  0  0  0  0  0  0  0  0  0  0  0
   -1.6947   -0.4979    1.1363 H   0  0  0  0  0  0  0  0  0  0  0  0
   -3.6421    0.3294    1.9411 H   0  0  0  0  0  0  0  0  0  0  0  0
   -2.2208    2.9532    2.5811 H   0  0  0  0  0  0  0  0  0  0  0  0
   -3.7534    2.3605    3.2420 H   0  0  0  0  0  0  0  0  0  0  0  0
   -2.2381    1.5203    3.6311 H   0  0  0  0  0  0  0  0  0  0  0  0
   -3.1024    2.8131   -0.3052 N   0  0  0  0  0  0  0  0  0  0  0  0
   -3.7575    3.5646   -1.3657 C   0  0  0  0  0  0  0  0  0  0  0  0
   -2.1132    2.9852   -0.1020 H   0  0  0  0  0  0  0  0  0  0  0  0
   -3.0337    4.2125   -1.8694 H   0  0  0  0  0  0  0  0  0  0  0  0
   -4.1884    2.8847   -2.1079 H   0  0  0  0  0  0  0  0  0  0  0  0
   -4.5556    4.1904   -0.9536 H   0  0  0  0  0  0  0  0  0  0  0  0
  1  2  2  0  0  0  0
  1  3  1  0  0  0  0
  1  7  1  0  0  0  0
  3  4  1  0  0  0  0
  3  5  1  0  0  0  0
  3  6  1  0  0  0  0
  7  8  1  0  0  0  0
  7 12  1  0  0  0  0
  8  9  1  0  0  0  0
  8 11  1  0  0  0  0
  8 13  1  0  0  0  0
  9 10  2  0  0  0  0
  9 17  1  0  0  0  0
 11 14  1  0  0  0  0
 11 15  1  0  0  0  0
 11 16  1  0  0  0  0
 17 18  1  0  0  0  0
 17 25  1  0  0  0  0
 18 19  1  0  0  0  0
 18 21  1  0  0  0  0
 18 26  1  0  0  0  0
 19 20  2  0  0  0  0
 19 36  1  0  0  0  0
 21 22  1  0  0  0  0
 21 27  1  0  0  0  0
 21 28  1  0  0  0  0
 22 23  1  0  0  0  0
 22 24  1  0  0  0  0
 22 29  1  0  0  0  0
 23 30  1  0  0  0  0
 23 31  1  0  0  0  0
 23 32  1  0  0  0  0
 24 33  1  0  0  0  0
 24 34  1  0  0  0  0
 24 35  1  0  0  0  0
 36 37  1  0  0  0  0
 36 41  1  0  0  0  0
 37 38  1  0  0  0  0
 37 40  1  0  0  0  0
 37 42  1  0  0  0  0
 38 39  2  0  0  0  0
 38 46  1  0  0  0  0
 40 43  1  0  0  0  0
 40 44  1  0  0  0  0
 40 45  1  0  0  0  0
 46 47  1  0  0  0  0
 46 48  1  0  0  0  0
 47 49  1  0  0  0  0
 47 50  1  0  0  0  0
 47 51  1  0  0  0  0
M  END
$$$$

  -OEChem-05262216553D

 51 50  0     1  0  0  0  0  0999 V2000
    0.8078   -2.2085   -3.0741 C   0  0  0  0  0  0  0  0  0  0  0  0
   -0.1689   -1.6859   -2.5598 O   0  0  0  0  0  0  0  0  0  0  0  0
    0.7966   -3.6988   -3.3560 C   0  0  0  0  0  0  0  0  0  0  0  0
    1.6160   -4.1872   -2.8230 H   0  0  0  0  0  0  0  0  0  0  0  0
   -0.1489   -4.1383   -3.0257 H   0  0  0  0  0  0  0  0  0  0  0  0
    0.9104   -3.8768   -4.4280 H   0  0  0  0  0  0  0  0  0  0  0  0
    1.9412   -1.4720   -3.3658 N   0  0  0  0  0  0  0  0  0  0  0  0
    2.1225   -0.0139   -3.2006 C   0  0  2  0  0  0  0  0  0  0  0  0
    2.0841    0.4830   -1.7366 C   0  0  0  0  0  0  0  0  0  0  0  0
    3.0335    1.1222   -1.3086 O   0  0  0  0  0  0  0  0  0  0  0  0
    1.1256    0.7631   -4.0731 C   0  0  0  0  0  0  0  0  0  0  0  0
    2.7163   -1.9936   -3.7661 H   0  0  0  0  0  0  0  0  0  0  0  0
    3.1243    0.2272   -3.5717 H   0  0  0  0  0  0  0  0  0  0  0  0
    0.0981    0.6276   -3.7233 H   0  0  0  0  0  0  0  0  0  0  0  0
    1.3565    1.8327   -4.0430 H   0  0  0  0  0  0  0  0  0  0  0  0
    1.1866    0.4257   -5.1120 H   0  0  0  0  0  0  0  0  0  0  0  0
    0.9356    0.3383   -0.9832 N   0  0  0  0  0  0  0  0  0  0  0  0
    0.7593    0.3846    0.4840 C   0  0  2  0  0  0  0  0  0  0  0  0
   -0.4498    1.2473    0.9028 C   0  0  0  0  0  0  0  0  0  0  0  0
   -0.5233    2.4203    0.5621 O   0  0  0  0  0  0  0  0  0  0  0  0
    1.9451    0.4475    1.4827 C   0  0  0  0  0  0  0  0  0  0  0  0
    2.8958   -0.7829    1.5952 C   0  0  0  0  0  0  0  0  0  0  0  0
    4.0588   -0.4150    2.5250 C   0  0  0  0  0  0  0  0  0  0  0  0
    3.4647   -1.4294    0.3285 C   0  0  0  0  0  0  0  0  0  0  0  0
    0.2106   -0.1728   -1.4949 H   0  0  0  0  0  0  0  0  0  0  0  0
    0.3958   -0.6285    0.6744 H   0  0  0  0  0  0  0  0  0  0  0  0
    1.5340    0.6313    2.4810 H   0  0  0  0  0  0  0  0  0  0  0  0
    2.5416    1.3287    1.2249 H   0  0  0  0  0  0  0  0  0  0  0  0
    2.3127   -1.5669    2.0895 H   0  0  0  0  0  0  0  0  0  0  0  0
    4.6847    0.3590    2.0687 H   0  0  0  0  0  0  0  0  0  0  0  0
    4.6822   -1.2919    2.7253 H   0  0  0  0  0  0  0  0  0  0  0  0
    3.6826   -0.0385    3.4813 H   0  0  0  0  0  0  0  0  0  0  0  0
    4.0152   -2.3373    0.5931 H   0  0  0  0  0  0  0  0  0  0  0  0
    2.6642   -1.7206   -0.3550 H   0  0  0  0  0  0  0  0  0  0  0  0
    4.1629   -0.7587   -0.1776 H   0  0  0  0  0  0  0  0  0  0  0  0
   -1.4895    0.6743    1.6218 N   0  0  0  0  0  0  0  0  0  0  0  0
   -2.7410    1.3302    2.0578 C   0  0  2  0  0  0  0  0  0  0  0  0
   -3.6934    1.7347    0.9080 C   0  0  0  0  0  0  0  0  0  0  0  0
   -4.8576    1.3568    0.9332 O   0  0  0  0  0  0  0  0  0  0  0  0
   -2.4565    2.5241    2.9798 C   0  0  0  0  0  0  0  0  0  0  0  0
   -1.4039   -0.3208    1.8056 H   0  0  0  0  0  0  0  0  0  0  0  0
   -3.2895    0.5956    2.6564 H   0  0  0  0  0  0  0  0  0  0  0  0
   -2.0053    3.3546    2.4290 H   0  0  0  0  0  0  0  0  0  0  0  0
   -3.3898    2.8808    3.4270 H   0  0  0  0  0  0  0  0  0  0  0  0
   -1.7772    2.2296    3.7851 H   0  0  0  0  0  0  0  0  0  0  0  0
   -3.2543    2.5011   -0.1527 N   0  0  0  0  0  0  0  0  0  0  0  0
   -4.0794    2.8727   -1.2931 C   0  0  0  0  0  0  0  0  0  0  0  0
   -2.2631    2.7603   -0.1408 H   0  0  0  0  0  0  0  0  0  0  0  0
   -3.5087    3.5052   -1.9799 H   0  0  0  0  0  0  0  0  0  0  0  0
   -4.4076    1.9798   -1.8351 H   0  0  0  0  0  0  0  0  0  0  0  0
   -4.9619    3.4298   -0.9619 H   0  0  0  0  0  0  0  0  0  0  0  0
  1  2  2  0  0  0  0
  1  3  1  0  0  0  0
  1  7  1  0  0  0  0
  3  4  1  0  0  0  0
  3  5  1  0  0  0  0
  3  6  1  0  0  0  0
  7  8  1  0  0  0  0
  7 12  1  0  0  0  0
  8  9  1  0  0  0  0
  8 11  1  0  0  0  0
  8 13  1  0  0  0  0
  9 10  2  0  0  0  0
  9 17  1  0  0  0  0
 11 14  1  0  0  0  0
 11 15  1  0  0  0  0
 11 16  1  0  0  0  0
 17 18  1  0  0  0  0
 17 25  1  0  0  0  0
 18 19  1  0  0  0  0
 18 21  1  0  0  0  0
 18 26  1  0  0  0  0
 19 20  2  0  0  0  0
 19 36  1  0  0  0  0
 21 22  1  0  0  0  0
 21 27  1  0  0  0  0
 21 28  1  0  0  0  0
 22 23  1  0  0  0  0
 22 24  1  0  0  0  0
 22 29  1  0  0  0  0
 23 30  1  0  0  0  0
 23 31  1  0  0  0  0
 23 32  1  0  0  0  0
 24 33  1  0  0  0  0
 24 34  1  0  0  0  0
 24 35  1  0  0  0  0
 36 37  1  0  0  0  0
 36 41  1  0  0  0  0
 37 38  1  0  0  0  0
 37 40  1  0  0  0  0
 37 42  1  0  0  0  0
 38 39  2  0  0  0  0
 38 46  1  0  0  0  0
 40 43  1  0  0  0  0
 40 44  1  0  0  0  0
 40 45  1  0  0  0  0
 46 47  1  0  0  0  0
 46 48  1  0  0  0  0
 47 49  1  0  0  0  0
 47 50  1  0  0  0  0
 47 51  1  0  0  0  0
M  END
$$$$

  -OEChem-05262216553D

 51 50  0     1  0  0  0  0  0999 V2000
    0.7191   -2.1982   -3.0458 C   0  0  0  0  0  0  0  0  0  0  0  0
   -0.2351   -1.6383   -2.5286 O   0  0  0  0  0  0  0  0  0  0  0  0
    0.6591   -3.6906   -3.3107 C   0  0  0  0  0  0  0  0  0  0  0  0
    1.4397   -4.2035   -2.7433 H   0  0  0  0  0  0  0  0  0  0  0  0
   -0.3141   -4.0891   -3.0098 H   0  0  0  0  0  0  0  0  0  0  0  0
    0.8037   -3.8866   -4.3760 H   0  0  0  0  0  0  0  0  0  0  0  0
    1.8712   -1.5012   -3.3590 N   0  0  0  0  0  0  0  0  0  0  0  0
    2.0979   -0.0478   -3.2131 C   0  0  2  0  0  0  0  0  0  0  0  0
    2.1002    0.4632   -1.7539 C   0  0  0  0  0  0  0  0  0  0  0  0
    3.0787    1.0727   -1.3476 O   0  0  0  0  0  0  0  0  0  0  0  0
    1.1096    0.7509   -4.0760 C   0  0  0  0  0  0  0  0  0  0  0  0
    2.6256   -2.0510   -3.7608 H   0  0  0  0  0  0  0  0  0  0  0  0
    3.0993    0.1600   -3.6046 H   0  0  0  0  0  0  0  0  0  0  0  0
    0.0861    0.6598   -3.7006 H   0  0  0  0  0  0  0  0  0  0  0  0
    1.3802    1.8117   -4.0692 H   0  0  0  0  0  0  0  0  0  0  0  0
    1.1334    0.3949   -5.1102 H   0  0  0  0  0  0  0  0  0  0  0  0
    0.9607    0.3674   -0.9796 N   0  0  0  0  0  0  0  0  0  0  0  0
    0.8114    0.4414    0.4903 C   0  0  2  0  0  0  0  0  0  0  0  0
   -0.3604    1.3481    0.9271 C   0  0  0  0  0  0  0  0  0  0  0  0
   -0.5870    2.4006    0.3442 O   0  0  0  0  0  0  0  0  0  0  0  0
    2.0206    0.4684    1.4641 C   0  0  0  0  0  0  0  0  0  0  0  0
    2.9206   -0.7998    1.5736 C   0  0  0  0  0  0  0  0  0  0  0  0
    4.1181   -0.4696    2.4732 C   0  0  0  0  0  0  0  0  0  0  0  0
    3.4341   -1.4851    0.3037 C   0  0  0  0  0  0  0  0  0  0  0  0
    0.2030   -0.1124   -1.4740 H   0  0  0  0  0  0  0  0  0  0  0  0
    0.4090   -0.5540    0.6983 H   0  0  0  0  0  0  0  0  0  0  0  0
    1.6411    0.6807    2.4691 H   0  0  0  0  0  0  0  0  0  0  0  0
    2.6486    1.3202    1.1830 H   0  0  0  0  0  0  0  0  0  0  0  0
    2.3162   -1.5523    2.0912 H   0  0  0  0  0  0  0  0  0  0  0  0
    4.7671    0.2686    1.9907 H   0  0  0  0  0  0  0  0  0  0  0  0
    4.7072   -1.3699    2.6746 H   0  0  0  0  0  0  0  0  0  0  0  0
    3.7803   -0.0618    3.4309 H   0  0  0  0  0  0  0  0  0  0  0  0
    3.9553   -2.4102    0.5684 H   0  0  0  0  0  0  0  0  0  0  0  0
    2.6069   -1.7536   -0.3570 H   0  0  0  0  0  0  0  0  0  0  0  0
    4.1456   -0.8489   -0.2277 H   0  0  0  0  0  0  0  0  0  0  0  0
   -1.2291    0.9173    1.9202 N   0  0  0  0  0  0  0  0  0  0  0  0
   -2.4288    1.6202    2.4247 C   0  0  2  0  0  0  0  0  0  0  0  0
   -3.5911    1.7238    1.4103 C   0  0  0  0  0  0  0  0  0  0  0  0
   -4.6995    1.3090    1.7238 O   0  0  0  0  0  0  0  0  0  0  0  0
   -2.0732    3.0027    2.9903 C   0  0  0  0  0  0  0  0  0  0  0  0
   -1.0306    0.0030    2.3154 H   0  0  0  0  0  0  0  0  0  0  0  0
   -2.8129    1.0280    3.2616 H   0  0  0  0  0  0  0  0  0  0  0  0
   -1.7865    3.6971    2.1952 H   0  0  0  0  0  0  0  0  0  0  0  0
   -2.9365    3.4252    3.5138 H   0  0  0  0  0  0  0  0  0  0  0  0
   -1.2434    2.9230    3.6989 H   0  0  0  0  0  0  0  0  0  0  0  0
   -3.4000    2.2613    0.1538 N   0  0  0  0  0  0  0  0  0  0  0  0
   -4.4277    2.3255   -0.8747 C   0  0  0  0  0  0  0  0  0  0  0  0
   -2.4415    2.5432   -0.0731 H   0  0  0  0  0  0  0  0  0  0  0  0
   -4.0348    2.8209   -1.7678 H   0  0  0  0  0  0  0  0  0  0  0  0
   -4.7548    1.3180   -1.1514 H   0  0  0  0  0  0  0  0  0  0  0  0
   -5.2931    2.8930   -0.5171 H   0  0  0  0  0  0  0  0  0  0  0  0
  1  2  2  0  0  0  0
  1  3  1  0  0  0  0
  1  7  1  0  0  0  0
  3  4  1  0  0  0  0
  3  5  1  0  0  0  0
  3  6  1  0  0  0  0
  7  8  1  0  0  0  0
  7 12  1  0  0  0  0
  8  9  1  0  0  0  0
  8 11  1  0  0  0  0
  8 13  1  0  0  0  0
  9 10  2  0  0  0  0
  9 17  1  0  0  0  0
 11 14  1  0  0  0  0
 11 15  1  0  0  0  0
 11 16  1  0  0  0  0
 17 18  1  0  0  0  0
 17 25  1  0  0  0  0
 18 19  1  0  0  0  0
 18 21  1  0  0  0  0
 18 26  1  0  0  0  0
 19 20  2  0  0  0  0
 19 36  1  0  0  0  0
 21 22  1  0  0  0  0
 21 27  1  0  0  0  0
 21 28  1  0  0  0  0
 22 23  1  0  0  0  0
 22 24  1  0  0  0  0
 22 29  1  0  0  0  0
 23 30  1  0  0  0  0
 23 31  1  0  0  0  0
 23 32  1  0  0  0  0
 24 33  1  0  0  0  0
 24 34  1  0  0  0  0
 24 35  1  0  0  0  0
 36 37  1  0  0  0  0
 36 41  1  0  0  0  0
 37 38  1  0  0  0  0
 37 40  1  0  0  0  0
 37 42  1  0  0  0  0
 38 39  2  0  0  0  0
 38 46  1  0  0  0  0
 40 43  1  0  0  0  0
 40 44  1  0  0  0  0
 40 45  1  0  0  0  0
 46 47  1  0  0  0  0
 46 48  1  0  0  0  0
 47 49  1  0  0  0  0
 47 50  1  0  0  0  0
 47 51  1  0  0  0  0
M  END
$$$$

  -OEChem-05262216553D

 51 50  0     1  0  0  0  0  0999 V2000
    0.7887   -2.2425   -3.0154 C   0  0  0  0  0  0  0  0  0  0  0  0
   -0.1777   -1.6848   -2.5189 O   0  0  0  0  0  0  0  0  0  0  0  0
    0.7685   -3.7470   -3.2083 C   0  0  0  0  0  0  0  0  0  0  0  0
    1.5754   -4.2083   -2.6335 H   0  0  0  0  0  0  0  0  0  0  0  0
   -0.1858   -4.1592   -2.8677 H   0  0  0  0  0  0  0  0  0  0  0  0
    0.8981   -3.9903   -4.2657 H   0  0  0  0  0  0  0  0  0  0  0  0
    1.9227   -1.5313   -3.3613 N   0  0  0  0  0  0  0  0  0  0  0  0
    2.1236   -0.0720   -3.2455 C   0  0  2  0  0  0  0  0  0  0  0  0
    2.1202    0.4618   -1.7943 C   0  0  0  0  0  0  0  0  0  0  0  0
    3.1067    1.0579   -1.3863 O   0  0  0  0  0  0  0  0  0  0  0  0
    1.1208    0.6920   -4.1229 C   0  0  0  0  0  0  0  0  0  0  0  0
    2.6930   -2.0788   -3.7348 H   0  0  0  0  0  0  0  0  0  0  0  0
    3.1206    0.1464   -3.6429 H   0  0  0  0  0  0  0  0  0  0  0  0
    0.0970    0.5785   -3.7545 H   0  0  0  0  0  0  0  0  0  0  0  0
    1.3642    1.7593   -4.1258 H   0  0  0  0  0  0  0  0  0  0  0  0
    1.1623    0.3260   -5.1532 H   0  0  0  0  0  0  0  0  0  0  0  0
    0.9755    0.3892   -1.0245 N   0  0  0  0  0  0  0  0  0  0  0  0
    0.8219    0.4754    0.4448 C   0  0  2  0  0  0  0  0  0  0  0  0
   -0.3346    1.4018    0.8863 C   0  0  0  0  0  0  0  0  0  0  0  0
   -0.7340    2.3037    0.1605 O   0  0  0  0  0  0  0  0  0  0  0  0
    2.0358    0.4713    1.4158 C   0  0  0  0  0  0  0  0  0  0  0  0
    2.8961   -0.8240    1.5270 C   0  0  0  0  0  0  0  0  0  0  0  0
    4.1061   -0.5268    2.4209 C   0  0  0  0  0  0  0  0  0  0  0  0
    3.3810   -1.5306    0.2573 C   0  0  0  0  0  0  0  0  0  0  0  0
    0.2135   -0.0872   -1.5154 H   0  0  0  0  0  0  0  0  0  0  0  0
    0.3931   -0.5086    0.6557 H   0  0  0  0  0  0  0  0  0  0  0  0
    1.6729    0.7022    2.4223 H   0  0  0  0  0  0  0  0  0  0  0  0
    2.6886    1.3011    1.1267 H   0  0  0  0  0  0  0  0  0  0  0  0
    2.2711   -1.5558    2.0500 H   0  0  0  0  0  0  0  0  0  0  0  0
    4.7697    0.1976    1.9373 H   0  0  0  0  0  0  0  0  0  0  0  0
    4.6739   -1.4421    2.6156 H   0  0  0  0  0  0  0  0  0  0  0  0
    3.7833   -0.1148    3.3819 H   0  0  0  0  0  0  0  0  0  0  0  0
    3.8772   -2.4692    0.5227 H   0  0  0  0  0  0  0  0  0  0  0  0
    2.5411   -1.7788   -0.3953 H   0  0  0  0  0  0  0  0  0  0  0  0
    4.1060   -0.9181   -0.2836 H   0  0  0  0  0  0  0  0  0  0  0  0
   -1.0048    1.1369    2.0725 N   0  0  0  0  0  0  0  0  0  0  0  0
   -2.1156    1.9114    2.6667 C   0  0  2  0  0  0  0  0  0  0  0  0
   -3.4537    1.8374    1.8946 C   0  0  0  0  0  0  0  0  0  0  0  0
   -4.4742    1.5245    2.4946 O   0  0  0  0  0  0  0  0  0  0  0  0
   -1.7048    3.3703    2.9116 C   0  0  0  0  0  0  0  0  0  0  0  0
   -0.6620    0.3422    2.6037 H   0  0  0  0  0  0  0  0  0  0  0  0
   -2.3148    1.4716    3.6495 H   0  0  0  0  0  0  0  0  0  0  0  0
   -1.5898    3.9144    1.9697 H   0  0  0  0  0  0  0  0  0  0  0  0
   -2.4696    3.8792    3.5065 H   0  0  0  0  0  0  0  0  0  0  0  0
   -0.7572    3.4129    3.4566 H   0  0  0  0  0  0  0  0  0  0  0  0
   -3.5235    2.1180    0.5453 N   0  0  0  0  0  0  0  0  0  0  0  0
   -4.7469    2.0607   -0.2411 C   0  0  0  0  0  0  0  0  0  0  0  0
   -2.6380    2.3516    0.0865 H   0  0  0  0  0  0  0  0  0  0  0  0
   -4.5374    2.3219   -1.2828 H   0  0  0  0  0  0  0  0  0  0  0  0
   -5.1714    1.0519   -0.2152 H   0  0  0  0  0  0  0  0  0  0  0  0
   -5.4863    2.7665    0.1513 H   0  0  0  0  0  0  0  0  0  0  0  0
  1  2  2  0  0  0  0
  1  3  1  0  0  0  0
  1  7  1  0  0  0  0
  3  4  1  0  0  0  0
  3  5  1  0  0  0  0
  3  6  1  0  0  0  0
  7  8  1  0  0  0  0
  7 12  1  0  0  0  0
  8  9  1  0  0  0  0
  8 11  1  0  0  0  0
  8 13  1  0  0  0  0
  9 10  2  0  0  0  0
  9 17  1  0  0  0  0
 11 14  1  0  0  0  0
 11 15  1  0  0  0  0
 11 16  1  0  0  0  0
 17 18  1  0  0  0  0
 17 25  1  0  0  0  0
 18 19  1  0  0  0  0
 18 21  1  0  0  0  0
 18 26  1  0  0  0  0
 19 20  2  0  0  0  0
 19 36  1  0  0  0  0
 21 22  1  0  0  0  0
 21 27  1  0  0  0  0
 21 28  1  0  0  0  0
 22 23  1  0  0  0  0
 22 24  1  0  0  0  0
 22 29  1  0  0  0  0
 23 30  1  0  0  0  0
 23 31  1  0  0  0  0
 23 32  1  0  0  0  0
 24 33  1  0  0  0  0
 24 34  1  0  0  0  0
 24 35  1  0  0  0  0
 36 37  1  0  0  0  0
 36 41  1  0  0  0  0
 37 38  1  0  0  0  0
 37 40  1  0  0  0  0
 37 42  1  0  0  0  0
 38 39  2  0  0  0  0
 38 46  1  0  0  0  0
 40 43  1  0  0  0  0
 40 44  1  0  0  0  0
 40 45  1  0  0  0  0
 46 47  1  0  0  0  0
 46 48  1  0  0  0  0
 47 49  1  0  0  0  0
 47 50  1  0  0  0  0
 47 51  1  0  0  0  0
M  END
$$$$

  -OEChem-05262216553D

 51 50  0     1  0  0  0  0  0999 V2000
    0.7021   -2.1894   -3.0208 C   0  0  0  0  0  0  0  0  0  0  0  0
   -0.2342   -1.5957   -2.5092 O   0  0  0  0  0  0  0  0  0  0  0  0
    0.6149   -3.6898   -3.2262 C   0  0  0  0  0  0  0  0  0  0  0  0
    1.3457   -4.1964   -2.5909 H   0  0  0  0  0  0  0  0  0  0  0  0
   -0.3855   -4.0485   -2.9674 H   0  0  0  0  0  0  0  0  0  0  0  0
    0.8168   -3.9375   -4.2713 H   0  0  0  0  0  0  0  0  0  0  0  0
    1.8632   -1.5253   -3.3704 N   0  0  0  0  0  0  0  0  0  0  0  0
    2.1303   -0.0778   -3.2404 C   0  0  2  0  0  0  0  0  0  0  0  0
    2.1724    0.4368   -1.7833 C   0  0  0  0  0  0  0  0  0  0  0  0
    3.1846    0.9965   -1.3867 O   0  0  0  0  0  0  0  0  0  0  0  0
    1.1477    0.7428   -4.0893 C   0  0  0  0  0  0  0  0  0  0  0  0
    2.6052   -2.1029   -3.7556 H   0  0  0  0  0  0  0  0  0  0  0  0
    3.1297    0.1018   -3.6509 H   0  0  0  0  0  0  0  0  0  0  0  0
    0.1275    0.6748   -3.7000 H   0  0  0  0  0  0  0  0  0  0  0  0
    1.4419    1.7972   -4.0860 H   0  0  0  0  0  0  0  0  0  0  0  0
    1.1492    0.3869   -5.1238 H   0  0  0  0  0  0  0  0  0  0  0  0
    1.0368    0.4058   -0.9982 N   0  0  0  0  0  0  0  0  0  0  0  0
    0.8953    0.5037    0.4715 C   0  0  2  0  0  0  0  0  0  0  0  0
   -0.2328    1.4737    0.9015 C   0  0  0  0  0  0  0  0  0  0  0  0
   -0.8046    2.1764    0.0768 O   0  0  0  0  0  0  0  0  0  0  0  0
    2.1245    0.4577    1.4261 C   0  0  0  0  0  0  0  0  0  0  0  0
    2.9367   -0.8695    1.5280 C   0  0  0  0  0  0  0  0  0  0  0  0
    4.1707   -0.6165    2.4032 C   0  0  0  0  0  0  0  0  0  0  0  0
    3.3820   -1.5960    0.2549 C   0  0  0  0  0  0  0  0  0  0  0  0
    0.2429   -0.0223   -1.4837 H   0  0  0  0  0  0  0  0  0  0  0  0
    0.4295   -0.4597    0.6981 H   0  0  0  0  0  0  0  0  0  0  0  0
    1.7933    0.7024    2.4393 H   0  0  0  0  0  0  0  0  0  0  0  0
    2.8035    1.2610    1.1229 H   0  0  0  0  0  0  0  0  0  0  0  0
    2.2915   -1.5766    2.0598 H   0  0  0  0  0  0  0  0  0  0  0  0
    4.8534    0.0826    1.9091 H   0  0  0  0  0  0  0  0  0  0  0  0
    4.7076   -1.5521    2.5893 H   0  0  0  0  0  0  0  0  0  0  0  0
    3.8784   -0.1933    3.3695 H   0  0  0  0  0  0  0  0  0  0  0  0
    3.8451   -2.5517    0.5187 H   0  0  0  0  0  0  0  0  0  0  0  0
    2.5279   -1.8141   -0.3897 H   0  0  0  0  0  0  0  0  0  0  0  0
    4.1249   -1.0129   -0.2939 H   0  0  0  0  0  0  0  0  0  0  0  0
   -0.7057    1.4500    2.2060 N   0  0  0  0  0  0  0  0  0  0  0  0
   -1.7839    2.2797    2.7859 C   0  0  2  0  0  0  0  0  0  0  0  0
   -3.2062    1.9624    2.2675 C   0  0  0  0  0  0  0  0  0  0  0  0
   -4.1113    1.7869    3.0731 O   0  0  0  0  0  0  0  0  0  0  0  0
   -1.4747    3.7770    2.6451 C   0  0  0  0  0  0  0  0  0  0  0  0
   -0.2325    0.8067    2.8332 H   0  0  0  0  0  0  0  0  0  0  0  0
   -1.8028    2.0625    3.8588 H   0  0  0  0  0  0  0  0  0  0  0  0
   -1.5493    4.1026    1.6033 H   0  0  0  0  0  0  0  0  0  0  0  0
   -2.1870    4.3623    3.2351 H   0  0  0  0  0  0  0  0  0  0  0  0
   -0.4653    3.9943    3.0068 H   0  0  0  0  0  0  0  0  0  0  0  0
   -3.4794    1.8757    0.9176 N   0  0  0  0  0  0  0  0  0  0  0  0
   -4.7979    1.6073    0.3619 C   0  0  0  0  0  0  0  0  0  0  0  0
   -2.6912    2.0487    0.2868 H   0  0  0  0  0  0  0  0  0  0  0  0
   -4.7441    1.5665   -0.7302 H   0  0  0  0  0  0  0  0  0  0  0  0
   -5.1787    0.6476    0.7259 H   0  0  0  0  0  0  0  0  0  0  0  0
   -5.5011    2.3972    0.6453 H   0  0  0  0  0  0  0  0  0  0  0  0
  1  2  2  0  0  0  0
  1  3  1  0  0  0  0
  1  7  1  0  0  0  0
  3  4  1  0  0  0  0
  3  5  1  0  0  0  0
  3  6  1  0  0  0  0
  7  8  1  0  0  0  0
  7 12  1  0  0  0  0
  8  9  1  0  0  0  0
  8 11  1  0  0  0  0
  8 13  1  0  0  0  0
  9 10  2  0  0  0  0
  9 17  1  0  0  0  0
 11 14  1  0  0  0  0
 11 15  1  0  0  0  0
 11 16  1  0  0  0  0
 17 18  1  0  0  0  0
 17 25  1  0  0  0  0
 18 19  1  0  0  0  0
 18 21  1  0  0  0  0
 18 26  1  0  0  0  0
 19 20  2  0  0  0  0
 19 36  1  0  0  0  0
 21 22  1  0  0  0  0
 21 27  1  0  0  0  0
 21 28  1  0  0  0  0
 22 23  1  0  0  0  0
 22 24  1  0  0  0  0
 22 29  1  0  0  0  0
 23 30  1  0  0  0  0
 23 31  1  0  0  0  0
 23 32  1  0  0  0  0
 24 33  1  0  0  0  0
 24 34  1  0  0  0  0
 24 35  1  0  0  0  0
 36 37  1  0  0  0  0
 36 41  1  0  0  0  0
 37 38  1  0  0  0  0
 37 40  1  0  0  0  0
 37 42  1  0  0  0  0
 38 39  2  0  0  0  0
 38 46  1  0  0  0  0
 40 43  1  0  0  0  0
 40 44  1  0  0  0  0
 40 45  1  0  0  0  0
 46 47  1  0  0  0  0
 46 48  1  0  0  0  0
 47 49  1  0  0  0  0
 47 50  1  0  0  0  0
 47 51  1  0  0  0  0
M  END
$$$$

  -OEChem-05262216553D

 51 50  0     1  0  0  0  0  0999 V2000
    0.6827   -2.2743   -2.7790 C   0  0  0  0  0  0  0  0  0  0  0  0
   -0.2721   -1.6591   -2.3327 O   0  0  0  0  0  0  0  0  0  0  0  0
    0.6431   -3.7901   -2.8223 C   0  0  0  0  0  0  0  0  0  0  0  0
    1.4252   -4.2036   -2.1808 H   0  0  0  0  0  0  0  0  0  0  0  0
   -0.3277   -4.1518   -2.4714 H   0  0  0  0  0  0  0  0  0  0  0  0
    0.7979   -4.1397   -3.8460 H   0  0  0  0  0  0  0  0  0  0  0  0
    1.8179   -1.6131   -3.2099 N   0  0  0  0  0  0  0  0  0  0  0  0
    2.0238   -0.1510   -3.2615 C   0  0  2  0  0  0  0  0  0  0  0  0
    2.0402    0.5437   -1.8805 C   0  0  0  0  0  0  0  0  0  0  0  0
    2.9995    1.2402   -1.5815 O   0  0  0  0  0  0  0  0  0  0  0  0
    1.0115    0.5149   -4.2052 C   0  0  0  0  0  0  0  0  0  0  0  0
    2.5762   -2.2029   -3.5410 H   0  0  0  0  0  0  0  0  0  0  0  0
    3.0167    0.0168   -3.6922 H   0  0  0  0  0  0  0  0  0  0  0  0
   -0.0053    0.4605   -3.8050 H   0  0  0  0  0  0  0  0  0  0  0  0
    1.2667    1.5706   -4.3409 H   0  0  0  0  0  0  0  0  0  0  0  0
    1.0260    0.0267   -5.1841 H   0  0  0  0  0  0  0  0  0  0  0  0
    0.9148    0.5681   -1.0846 N   0  0  0  0  0  0  0  0  0  0  0  0
    0.7832    0.7059    0.3833 C   0  0  2  0  0  0  0  0  0  0  0  0
   -0.5315    1.4197    0.7928 C   0  0  0  0  0  0  0  0  0  0  0  0
   -1.3775    1.6847   -0.0535 O   0  0  0  0  0  0  0  0  0  0  0  0
    2.0090    0.8982    1.3306 C   0  0  0  0  0  0  0  0  0  0  0  0
    3.0409   -0.2616    1.5053 C   0  0  0  0  0  0  0  0  0  0  0  0
    4.2072    0.2515    2.3599 C   0  0  0  0  0  0  0  0  0  0  0  0
    3.6049   -1.0204    0.3013 C   0  0  0  0  0  0  0  0  0  0  0  0
    0.1309    0.0745   -1.5235 H   0  0  0  0  0  0  0  0  0  0  0  0
    0.5150   -0.3210    0.6493 H   0  0  0  0  0  0  0  0  0  0  0  0
    1.6530    1.1446    2.3333 H   0  0  0  0  0  0  0  0  0  0  0  0
    2.5476    1.7800    0.9678 H   0  0  0  0  0  0  0  0  0  0  0  0
    2.5185   -1.0226    2.0950 H   0  0  0  0  0  0  0  0  0  0  0  0
    4.7649    1.0239    1.8204 H   0  0  0  0  0  0  0  0  0  0  0  0
    4.8940   -0.5650    2.6038 H   0  0  0  0  0  0  0  0  0  0  0  0
    3.8405    0.6788    3.2982 H   0  0  0  0  0  0  0  0  0  0  0  0
    4.2724   -0.3884   -0.2887 H   0  0  0  0  0  0  0  0  0  0  0  0
    4.1911   -1.8771    0.6482 H   0  0  0  0  0  0  0  0  0  0  0  0
    2.8004   -1.4115   -0.3251 H   0  0  0  0  0  0  0  0  0  0  0  0
   -0.8347    1.6422    2.1289 N   0  0  0  0  0  0  0  0  0  0  0  0
   -2.0468    2.2839    2.6817 C   0  0  2  0  0  0  0  0  0  0  0  0
   -3.3474    1.4616    2.5278 C   0  0  0  0  0  0  0  0  0  0  0  0
   -4.0306    1.2300    3.5171 O   0  0  0  0  0  0  0  0  0  0  0  0
   -2.2279    3.7050    2.1288 C   0  0  0  0  0  0  0  0  0  0  0  0
   -0.1245    1.3529    2.7941 H   0  0  0  0  0  0  0  0  0  0  0  0
   -1.8841    2.3857    3.7596 H   0  0  0  0  0  0  0  0  0  0  0  0
   -2.5049    3.6888    1.0706 H   0  0  0  0  0  0  0  0  0  0  0  0
   -3.0209    4.2213    2.6788 H   0  0  0  0  0  0  0  0  0  0  0  0
   -1.3014    4.2770    2.2379 H   0  0  0  0  0  0  0  0  0  0  0  0
   -3.7533    0.9798    1.2999 N   0  0  0  0  0  0  0  0  0  0  0  0
   -4.9639    0.2010    1.0838 C   0  0  0  0  0  0  0  0  0  0  0  0
   -3.1312    1.1761    0.5101 H   0  0  0  0  0  0  0  0  0  0  0  0
   -5.0667   -0.0474    0.0231 H   0  0  0  0  0  0  0  0  0  0  0  0
   -4.9274   -0.7311    1.6570 H   0  0  0  0  0  0  0  0  0  0  0  0
   -5.8462    0.7713    1.3923 H   0  0  0  0  0  0  0  0  0  0  0  0
  1  2  2  0  0  0  0
  1  3  1  0  0  0  0
  1  7  1  0  0  0  0
  3  4  1  0  0  0  0
  3  5  1  0  0  0  0
  3  6  1  0  0  0  0
  7  8  1  0  0  0  0
  7 12  1  0  0  0  0
  8  9  1  0  0  0  0
  8 11  1  0  0  0  0
  8 13  1  0  0  0  0
  9 10  2  0  0  0  0
  9 17  1  0  0  0  0
 11 14  1  0  0  0  0
 11 15  1  0  0  0  0
 11 16  1  0  0  0  0
 17 18  1  0  0  0  0
 17 25  1  0  0  0  0
 18 19  1  0  0  0  0
 18 21  1  0  0  0  0
 18 26  1  0  0  0  0
 19 20  2  0  0  0  0
 19 36  1  0  0  0  0
 21 22  1  0  0  0  0
 21 27  1  0  0  0  0
 21 28  1  0  0  0  0
 22 23  1  0  0  0  0
 22 24  1  0  0  0  0
 22 29  1  0  0  0  0
 23 30  1  0  0  0  0
 23 31  1  0  0  0  0
 23 32  1  0  0  0  0
 24 33  1  0  0  0  0
 24 34  1  0  0  0  0
 24 35  1  0  0  0  0
 36 37  1  0  0  0  0
 36 41  1  0  0  0  0
 37 38  1  0  0  0  0
 37 40  1  0  0  0  0
 37 42  1  0  0  0  0
 38 39  2  0  0  0  0
 38 46  1  0  0  0  0
 40 43  1  0  0  0  0
 40 44  1  0  0  0  0
 40 45  1  0  0  0  0
 46 47  1  0  0  0  0
 46 48  1  0  0  0  0
 47 49  1  0  0  0  0
 47 50  1  0  0  0  0
 47 51  1  0  0  0  0
M  END
$$$$

  -OEChem-05262216553D

 51 50  0     1  0  0  0  0  0999 V2000
    2.7275   -2.4586   -3.4344 C   0  0  0  0  0  0  0  0  0  0  0  0
    2.1095   -3.1560   -2.6466 O   0  0  0  0  0  0  0  0  0  0  0  0
    4.0919   -2.9111   -3.9202 C   0  0  0  0  0  0  0  0  0  0  0  0
    4.8533   -2.1882   -3.6160 H   0  0  0  0  0  0  0  0  0  0  0  0
    4.3416   -3.8857   -3.4915 H   0  0  0  0  0  0  0  0  0  0  0  0
    4.0927   -2.9954   -5.0096 H   0  0  0  0  0  0  0  0  0  0  0  0
    2.2245   -1.2510   -3.8817 N   0  0  0  0  0  0  0  0  0  0  0  0
    1.0839   -0.5382   -3.2749 C   0  0  2  0  0  0  0  0  0  0  0  0
    1.3967   -0.0232   -1.8487 C   0  0  0  0  0  0  0  0  0  0  0  0
    2.5207    0.3980   -1.6087 O   0  0  0  0  0  0  0  0  0  0  0  0
   -0.2107   -1.3677   -3.3431 C   0  0  0  0  0  0  0  0  0  0  0  0
    2.8994   -0.6771   -4.3789 H   0  0  0  0  0  0  0  0  0  0  0  0
    0.9099    0.3553   -3.8813 H   0  0  0  0  0  0  0  0  0  0  0  0
   -0.2134   -2.1622   -2.5907 H   0  0  0  0  0  0  0  0  0  0  0  0
   -1.0819   -0.7295   -3.1683 H   0  0  0  0  0  0  0  0  0  0  0  0
   -0.3158   -1.8254   -4.3315 H   0  0  0  0  0  0  0  0  0  0  0  0
    0.3757    0.3342   -0.9898 N   0  0  0  0  0  0  0  0  0  0  0  0
    0.3762    0.5640    0.4742 C   0  0  2  0  0  0  0  0  0  0  0  0
   -0.6878    1.6225    0.8611 C   0  0  0  0  0  0  0  0  0  0  0  0
   -1.6193    1.8316    0.0897 O   0  0  0  0  0  0  0  0  0  0  0  0
    1.6592    0.4833    1.3607 C   0  0  0  0  0  0  0  0  0  0  0  0
    2.3773   -0.8887    1.5608 C   0  0  0  0  0  0  0  0  0  0  0  0
    3.6779   -0.6512    2.3385 C   0  0  0  0  0  0  0  0  0  0  0  0
    2.6692   -1.8181    0.3819 C   0  0  0  0  0  0  0  0  0  0  0  0
   -0.5542    0.2378   -1.3921 H   0  0  0  0  0  0  0  0  0  0  0  0
   -0.1285   -0.3421    0.8231 H   0  0  0  0  0  0  0  0  0  0  0  0
    1.4221    0.8436    2.3642 H   0  0  0  0  0  0  0  0  0  0  0  0
    2.3810    1.1877    0.9338 H   0  0  0  0  0  0  0  0  0  0  0  0
    1.7126   -1.4663    2.2120 H   0  0  0  0  0  0  0  0  0  0  0  0
    4.3878   -0.0810    1.7307 H   0  0  0  0  0  0  0  0  0  0  0  0
    4.1418   -1.6049    2.6094 H   0  0  0  0  0  0  0  0  0  0  0  0
    3.4816   -0.0944    3.2599 H   0  0  0  0  0  0  0  0  0  0  0  0
    3.4449   -1.4079   -0.2683 H   0  0  0  0  0  0  0  0  0  0  0  0
    3.0335   -2.7811    0.7527 H   0  0  0  0  0  0  0  0  0  0  0  0
    1.7609   -2.0162   -0.1908 H   0  0  0  0  0  0  0  0  0  0  0  0
   -0.6879    2.2403    2.1032 N   0  0  0  0  0  0  0  0  0  0  0  0
   -1.6172    3.2829    2.5891 C   0  0  2  0  0  0  0  0  0  0  0  0
   -3.0634    2.8013    2.8471 C   0  0  0  0  0  0  0  0  0  0  0  0
   -3.5735    2.9947    3.9427 O   0  0  0  0  0  0  0  0  0  0  0  0
   -1.6033    4.5124    1.6688 C   0  0  0  0  0  0  0  0  0  0  0  0
    0.0922    2.0044    2.7093 H   0  0  0  0  0  0  0  0  0  0  0  0
   -1.2371    3.6141    3.5611 H   0  0  0  0  0  0  0  0  0  0  0  0
   -2.0646    4.2919    0.7018 H   0  0  0  0  0  0  0  0  0  0  0  0
   -2.1611    5.3325    2.1317 H   0  0  0  0  0  0  0  0  0  0  0  0
   -0.5762    4.8476    1.4962 H   0  0  0  0  0  0  0  0  0  0  0  0
   -3.7926    2.1585    1.8673 N   0  0  0  0  0  0  0  0  0  0  0  0
   -5.1506    1.6651    2.0489 C   0  0  0  0  0  0  0  0  0  0  0  0
   -3.3063    1.9894    0.9827 H   0  0  0  0  0  0  0  0  0  0  0  0
   -5.5204    1.2277    1.1166 H   0  0  0  0  0  0  0  0  0  0  0  0
   -5.1772    0.8961    2.8277 H   0  0  0  0  0  0  0  0  0  0  0  0
   -5.8200    2.4825    2.3365 H   0  0  0  0  0  0  0  0  0  0  0  0
  1  2  2  0  0  0  0
  1  3  1  0  0  0  0
  1  7  1  0  0  0  0
  3  4  1  0  0  0  0
  3  5  1  0  0  0  0
  3  6  1  0  0  0  0
  7  8  1  0  0  0  0
  7 12  1  0  0  0  0
  8  9  1  0  0  0  0
  8 11  1  0  0  0  0
  8 13  1  0  0  0  0
  9 10  2  0  0  0  0
  9 17  1  0  0  0  0
 11 14  1  0  0  0  0
 11 15  1  0  0  0  0
 11 16  1  0  0  0  0
 17 18  1  0  0  0  0
 17 25  1  0  0  0  0
 18 19  1  0  0  0  0
 18 21  1  0  0  0  0
 18 26  1  0  0  0  0
 19 20  2  0  0  0  0
 19 36  1  0  0  0  0
 21 22  1  0  0  0  0
 21 27  1  0  0  0  0
 21 28  1  0  0  0  0
 22 23  1  0  0  0  0
 22 24  1  0  0  0  0
 22 29  1  0  0  0  0
 23 30  1  0  0  0  0
 23 31  1  0  0  0  0
 23 32  1  0  0  0  0
 24 33  1  0  0  0  0
 24 34  1  0  0  0  0
 24 35  1  0  0  0  0
 36 37  1  0  0  0  0
 36 41  1  0  0  0  0
 37 38  1  0  0  0  0
 37 40  1  0  0  0  0
 37 42  1  0  0  0  0
 38 39  2  0  0  0  0
 38 46  1  0  0  0  0
 40 43  1  0  0  0  0
 40 44  1  0  0  0  0
 40 45  1  0  0  0  0
 46 47  1  0  0  0  0
 46 48  1  0  0  0  0
 47 49  1  0  0  0  0
 47 50  1  0  0  0  0
 47 51  1  0  0  0  0
M  END
$$$$

  -OEChem-05262216553D

 51 50  0     1  0  0  0  0  0999 V2000
    2.6727   -2.5546   -3.3868 C   0  0  0  0  0  0  0  0  0  0  0  0
    2.0101   -3.2038   -2.5944 O   0  0  0  0  0  0  0  0  0  0  0  0
    4.0185   -3.0849   -3.8443 C   0  0  0  0  0  0  0  0  0  0  0  0
    4.8116   -2.3974   -3.5399 H   0  0  0  0  0  0  0  0  0  0  0  0
    4.2110   -4.0639   -3.3963 H   0  0  0  0  0  0  0  0  0  0  0  0
    4.0306   -3.1870   -4.9321 H   0  0  0  0  0  0  0  0  0  0  0  0
    2.2376   -1.3313   -3.8614 N   0  0  0  0  0  0  0  0  0  0  0  0
    1.1224   -0.5540   -3.2881 C   0  0  2  0  0  0  0  0  0  0  0  0
    1.4359   -0.0284   -1.8661 C   0  0  0  0  0  0  0  0  0  0  0  0
    2.5601    0.3958   -1.6323 O   0  0  0  0  0  0  0  0  0  0  0  0
   -0.2106   -1.3199   -3.3690 C   0  0  0  0  0  0  0  0  0  0  0  0
    2.9459   -0.8004   -4.3598 H   0  0  0  0  0  0  0  0  0  0  0  0
    1.0034    0.3365   -3.9126 H   0  0  0  0  0  0  0  0  0  0  0  0
   -0.2630   -2.1078   -2.6118 H   0  0  0  0  0  0  0  0  0  0  0  0
   -1.0522   -0.6389   -3.2113 H   0  0  0  0  0  0  0  0  0  0  0  0
   -0.3234   -1.7792   -4.3558 H   0  0  0  0  0  0  0  0  0  0  0  0
    0.4156    0.3384   -1.0108 N   0  0  0  0  0  0  0  0  0  0  0  0
    0.4194    0.5820    0.4497 C   0  0  2  0  0  0  0  0  0  0  0  0
   -0.6449    1.6446    0.8113 C   0  0  0  0  0  0  0  0  0  0  0  0
   -1.6812    1.6779    0.1550 O   0  0  0  0  0  0  0  0  0  0  0  0
    1.6968    0.5136    1.3437 C   0  0  0  0  0  0  0  0  0  0  0  0
    2.4172   -0.8542    1.5632 C   0  0  0  0  0  0  0  0  0  0  0  0
    3.7127   -0.6035    2.3456 C   0  0  0  0  0  0  0  0  0  0  0  0
    2.7173   -1.7919    0.3935 C   0  0  0  0  0  0  0  0  0  0  0  0
   -0.5147    0.2001   -1.4003 H   0  0  0  0  0  0  0  0  0  0  0  0
   -0.0857   -0.3192    0.8108 H   0  0  0  0  0  0  0  0  0  0  0  0
    1.4449    0.8804    2.3422 H   0  0  0  0  0  0  0  0  0  0  0  0
    2.4209    1.2155    0.9166 H   0  0  0  0  0  0  0  0  0  0  0  0
    1.7506   -1.4280    2.2163 H   0  0  0  0  0  0  0  0  0  0  0  0
    4.4243   -0.0377    1.7355 H   0  0  0  0  0  0  0  0  0  0  0  0
    4.1785   -1.5522    2.6303 H   0  0  0  0  0  0  0  0  0  0  0  0
    3.5092   -0.0366    3.2593 H   0  0  0  0  0  0  0  0  0  0  0  0
    3.4910   -1.3816   -0.2586 H   0  0  0  0  0  0  0  0  0  0  0  0
    3.0864   -2.7500    0.7723 H   0  0  0  0  0  0  0  0  0  0  0  0
    1.8102   -1.9990   -0.1775 H   0  0  0  0  0  0  0  0  0  0  0  0
   -0.4923    2.4990    1.8928 N   0  0  0  0  0  0  0  0  0  0  0  0
   -1.3926    3.5992    2.3010 C   0  0  2  0  0  0  0  0  0  0  0  0
   -2.7633    3.1571    2.8639 C   0  0  0  0  0  0  0  0  0  0  0  0
   -3.1688    3.6496    3.9084 O   0  0  0  0  0  0  0  0  0  0  0  0
   -1.5743    4.6147    1.1642 C   0  0  0  0  0  0  0  0  0  0  0  0
    0.3957    2.4281    2.3812 H   0  0  0  0  0  0  0  0  0  0  0  0
   -0.8921    4.1267    3.1197 H   0  0  0  0  0  0  0  0  0  0  0  0
   -2.1648    4.1930    0.3458 H   0  0  0  0  0  0  0  0  0  0  0  0
   -2.0950    5.5028    1.5356 H   0  0  0  0  0  0  0  0  0  0  0  0
   -0.6014    4.9232    0.7698 H   0  0  0  0  0  0  0  0  0  0  0  0
   -3.5498    2.2340    2.2046 N   0  0  0  0  0  0  0  0  0  0  0  0
   -4.8775    1.8308    2.6457 C   0  0  0  0  0  0  0  0  0  0  0  0
   -3.1892    1.8927    1.3097 H   0  0  0  0  0  0  0  0  0  0  0  0
   -5.2709    1.0473    1.9914 H   0  0  0  0  0  0  0  0  0  0  0  0
   -4.8402    1.4398    3.6679 H   0  0  0  0  0  0  0  0  0  0  0  0
   -5.5638    2.6834    2.6186 H   0  0  0  0  0  0  0  0  0  0  0  0
  1  2  2  0  0  0  0
  1  3  1  0  0  0  0
  1  7  1  0  0  0  0
  3  4  1  0  0  0  0
  3  5  1  0  0  0  0
  3  6  1  0  0  0  0
  7  8  1  0  0  0  0
  7 12  1  0  0  0  0
  8  9  1  0  0  0  0
  8 11  1  0  0  0  0
  8 13  1  0  0  0  0
  9 10  2  0  0  0  0
  9 17  1  0  0  0  0
 11 14  1  0  0  0  0
 11 15  1  0  0  0  0
 11 16  1  0  0  0  0
 17 18  1  0  0  0  0
 17 25  1  0  0  0  0
 18 19  1  0  0  0  0
 18 21  1  0  0  0  0
 18 26  1  0  0  0  0
 19 20  2  0  0  0  0
 19 36  1  0  0  0  0
 21 22  1  0  0  0  0
 21 27  1  0  0  0  0
 21 28  1  0  0  0  0
 22 23  1  0  0  0  0
 22 24  1  0  0  0  0
 22 29  1  0  0  0  0
 23 30  1  0  0  0  0
 23 31  1  0  0  0  0
 23 32  1  0  0  0  0
 24 33  1  0  0  0  0
 24 34  1  0  0  0  0
 24 35  1  0  0  0  0
 36 37  1  0  0  0  0
 36 41  1  0  0  0  0
 37 38  1  0  0  0  0
 37 40  1  0  0  0  0
 37 42  1  0  0  0  0
 38 39  2  0  0  0  0
 38 46  1  0  0  0  0
 40 43  1  0  0  0  0
 40 44  1  0  0  0  0
 40 45  1  0  0  0  0
 46 47  1  0  0  0  0
 46 48  1  0  0  0  0
 47 49  1  0  0  0  0
 47 50  1  0  0  0  0
 47 51  1  0  0  0  0
M  END
$$$$

  -OEChem-05262216553D

 51 50  0     1  0  0  0  0  0999 V2000
    2.6320   -2.6737   -3.2962 C   0  0  0  0  0  0  0  0  0  0  0  0
    1.9123   -3.2694   -2.5117 O   0  0  0  0  0  0  0  0  0  0  0  0
    3.9696   -3.2760   -3.6839 C   0  0  0  0  0  0  0  0  0  0  0  0
    4.7795   -2.6070   -3.3824 H   0  0  0  0  0  0  0  0  0  0  0  0
    4.1078   -4.2407   -3.1875 H   0  0  0  0  0  0  0  0  0  0  0  0
    4.0132   -3.4275   -4.7651 H   0  0  0  0  0  0  0  0  0  0  0  0
    2.2699   -1.4464   -3.8198 N   0  0  0  0  0  0  0  0  0  0  0  0
    1.1658   -0.6055   -3.3185 C   0  0  2  0  0  0  0  0  0  0  0  0
    1.4573   -0.0300   -1.9115 C   0  0  0  0  0  0  0  0  0  0  0  0
    2.5709    0.4246   -1.6865 O   0  0  0  0  0  0  0  0  0  0  0  0
   -0.1933   -1.3229   -3.4122 C   0  0  0  0  0  0  0  0  0  0  0  0
    3.0178   -0.9621   -4.3082 H   0  0  0  0  0  0  0  0  0  0  0  0
    1.1011    0.2607   -3.9838 H   0  0  0  0  0  0  0  0  0  0  0  0
   -0.3025   -2.0725   -2.6226 H   0  0  0  0  0  0  0  0  0  0  0  0
   -1.0116   -0.6030   -3.3149 H   0  0  0  0  0  0  0  0  0  0  0  0
   -0.2914   -1.8223   -4.3811 H   0  0  0  0  0  0  0  0  0  0  0  0
    0.4299    0.3377   -1.0658 N   0  0  0  0  0  0  0  0  0  0  0  0
    0.4329    0.5879    0.3933 C   0  0  2  0  0  0  0  0  0  0  0  0
   -0.6334    1.6474    0.7468 C   0  0  0  0  0  0  0  0  0  0  0  0
   -1.7489    1.5452    0.2473 O   0  0  0  0  0  0  0  0  0  0  0  0
    1.7048    0.5573    1.2959 C   0  0  0  0  0  0  0  0  0  0  0  0
    2.4645   -0.7847    1.5343 C   0  0  0  0  0  0  0  0  0  0  0  0
    3.7442   -0.4843    2.3250 C   0  0  0  0  0  0  0  0  0  0  0  0
    2.8104   -1.7164    0.3738 C   0  0  0  0  0  0  0  0  0  0  0  0
   -0.4945    0.1400   -1.4430 H   0  0  0  0  0  0  0  0  0  0  0  0
   -0.0595   -0.3181    0.7610 H   0  0  0  0  0  0  0  0  0  0  0  0
    1.4284    0.9249    2.2888 H   0  0  0  0  0  0  0  0  0  0  0  0
    2.4120    1.2769    0.8703 H   0  0  0  0  0  0  0  0  0  0  0  0
    1.8105   -1.3760    2.1845 H   0  0  0  0  0  0  0  0  0  0  0  0
    4.4422    0.1006    1.7171 H   0  0  0  0  0  0  0  0  0  0  0  0
    4.2383   -1.4149    2.6216 H   0  0  0  0  0  0  0  0  0  0  0  0
    3.5127    0.0822    3.2323 H   0  0  0  0  0  0  0  0  0  0  0  0
    3.5762   -1.2820   -0.2725 H   0  0  0  0  0  0  0  0  0  0  0  0
    3.2084   -2.6589    0.7618 H   0  0  0  0  0  0  0  0  0  0  0  0
    1.9169   -1.9573   -0.2042 H   0  0  0  0  0  0  0  0  0  0  0  0
   -0.3537    2.6920    1.6141 N   0  0  0  0  0  0  0  0  0  0  0  0
   -1.2265    3.8364    1.9523 C   0  0  2  0  0  0  0  0  0  0  0  0
   -2.4825    3.4877    2.7841 C   0  0  0  0  0  0  0  0  0  0  0  0
   -2.7465    4.1525    3.7772 O   0  0  0  0  0  0  0  0  0  0  0  0
   -1.6107    4.6283    0.6946 C   0  0  0  0  0  0  0  0  0  0  0  0
    0.6042    2.7289    1.9518 H   0  0  0  0  0  0  0  0  0  0  0  0
   -0.6320    4.5079    2.5805 H   0  0  0  0  0  0  0  0  0  0  0  0
   -2.3009    4.0609    0.0634 H   0  0  0  0  0  0  0  0  0  0  0  0
   -2.1013    5.5650    0.9780 H   0  0  0  0  0  0  0  0  0  0  0  0
   -0.7188    4.8688    0.1082 H   0  0  0  0  0  0  0  0  0  0  0  0
   -3.3254    2.4569    2.4205 N   0  0  0  0  0  0  0  0  0  0  0  0
   -4.5590    2.1256    3.1201 C   0  0  0  0  0  0  0  0  0  0  0  0
   -3.0867    1.9634    1.5564 H   0  0  0  0  0  0  0  0  0  0  0  0
   -5.0059    1.2243    2.6899 H   0  0  0  0  0  0  0  0  0  0  0  0
   -4.3606    1.9396    4.1808 H   0  0  0  0  0  0  0  0  0  0  0  0
   -5.2790    2.9460    3.0343 H   0  0  0  0  0  0  0  0  0  0  0  0
  1  2  2  0  0  0  0
  1  3  1  0  0  0  0
  1  7  1  0  0  0  0
  3  4  1  0  0  0  0
  3  5  1  0  0  0  0
  3  6  1  0  0  0  0
  7  8  1  0  0  0  0
  7 12  1  0  0  0  0
  8  9  1  0  0  0  0
  8 11  1  0  0  0  0
  8 13  1  0  0  0  0
  9 10  2  0  0  0  0
  9 17  1  0  0  0  0
 11 14  1  0  0  0  0
 11 15  1  0  0  0  0
 11 16  1  0  0  0  0
 17 18  1  0  0  0  0
 17 25  1  0  0  0  0
 18 19  1  0  0  0  0
 18 21  1  0  0  0  0
 18 26  1  0  0  0  0
 19 20  2  0  0  0  0
 19 36  1  0  0  0  0
 21 22  1  0  0  0  0
 21 27  1  0  0  0  0
 21 28  1  0  0  0  0
 22 23  1  0  0  0  0
 22 24  1  0  0  0  0
 22 29  1  0  0  0  0
 23 30  1  0  0  0  0
 23 31  1  0  0  0  0
 23 32  1  0  0  0  0
 24 33  1  0  0  0  0
 24 34  1  0  0  0  0
 24 35  1  0  0  0  0
 36 37  1  0  0  0  0
 36 41  1  0  0  0  0
 37 38  1  0  0  0  0
 37 40  1  0  0  0  0
 37 42  1  0  0  0  0
 38 39  2  0  0  0  0
 38 46  1  0  0  0  0
 40 43  1  0  0  0  0
 40 44  1  0  0  0  0
 40 45  1  0  0  0  0
 46 47  1  0  0  0  0
 46 48  1  0  0  0  0
 47 49  1  0  0  0  0
 47 50  1  0  0  0  0
 47 51  1  0  0  0  0
M  END
$$$$

  -OEChem-05262216553D

 51 50  0     1  0  0  0  0  0999 V2000
    2.8032   -2.6987   -3.2918 C   0  0  0  0  0  0  0  0  0  0  0  0
    2.1701   -3.3358   -2.4664 O   0  0  0  0  0  0  0  0  0  0  0  0
    4.1692   -3.1940   -3.7283 C   0  0  0  0  0  0  0  0  0  0  0  0
    4.9366   -2.4724   -3.4371 H   0  0  0  0  0  0  0  0  0  0  0  0
    4.3911   -4.1548   -3.2554 H   0  0  0  0  0  0  0  0  0  0  0  0
    4.1920   -3.3232   -4.8130 H   0  0  0  0  0  0  0  0  0  0  0  0
    2.3126   -1.5240   -3.8310 N   0  0  0  0  0  0  0  0  0  0  0  0
    1.1542   -0.7707   -3.3123 C   0  0  2  0  0  0  0  0  0  0  0  0
    1.4342   -0.1181   -1.9366 C   0  0  0  0  0  0  0  0  0  0  0  0
    2.5425    0.3545   -1.7212 O   0  0  0  0  0  0  0  0  0  0  0  0
   -0.1326   -1.6153   -3.3257 C   0  0  0  0  0  0  0  0  0  0  0  0
    2.9954   -0.9908   -4.3617 H   0  0  0  0  0  0  0  0  0  0  0  0
    0.9838    0.0593   -4.0045 H   0  0  0  0  0  0  0  0  0  0  0  0
   -0.1452   -2.3337   -2.5005 H   0  0  0  0  0  0  0  0  0  0  0  0
   -1.0126   -0.9723   -3.2311 H   0  0  0  0  0  0  0  0  0  0  0  0
   -0.2126   -2.1671   -4.2675 H   0  0  0  0  0  0  0  0  0  0  0  0
    0.3965    0.3090   -1.1320 N   0  0  0  0  0  0  0  0  0  0  0  0
    0.3848    0.6089    0.3174 C   0  0  2  0  0  0  0  0  0  0  0  0
   -0.6485    1.7087    0.6279 C   0  0  0  0  0  0  0  0  0  0  0  0
   -1.8222    1.5193    0.3298 O   0  0  0  0  0  0  0  0  0  0  0  0
    1.6361    0.5848    1.2451 C   0  0  0  0  0  0  0  0  0  0  0  0
    2.3608   -0.7632    1.5439 C   0  0  0  0  0  0  0  0  0  0  0  0
    3.6314   -0.4644    2.3494 C   0  0  0  0  0  0  0  0  0  0  0  0
    2.7059   -1.7386    0.4198 C   0  0  0  0  0  0  0  0  0  0  0  0
   -0.5211    0.0785   -1.5064 H   0  0  0  0  0  0  0  0  0  0  0  0
   -0.1335   -0.2736    0.7075 H   0  0  0  0  0  0  0  0  0  0  0  0
    1.3444    0.9986    2.2161 H   0  0  0  0  0  0  0  0  0  0  0  0
    2.3679    1.2723    0.8082 H   0  0  0  0  0  0  0  0  0  0  0  0
    1.6817   -1.3176    2.2008 H   0  0  0  0  0  0  0  0  0  0  0  0
    4.3562    0.0794    1.7349 H   0  0  0  0  0  0  0  0  0  0  0  0
    4.0960   -1.3946    2.6914 H   0  0  0  0  0  0  0  0  0  0  0  0
    3.3957    0.1420    3.2294 H   0  0  0  0  0  0  0  0  0  0  0  0
    3.4794   -1.3337   -0.2362 H   0  0  0  0  0  0  0  0  0  0  0  0
    3.0935   -2.6703    0.8430 H   0  0  0  0  0  0  0  0  0  0  0  0
    1.8137   -1.9925   -0.1559 H   0  0  0  0  0  0  0  0  0  0  0  0
   -0.2528    2.9049    1.2045 N   0  0  0  0  0  0  0  0  0  0  0  0
   -1.0948    4.0834    1.4971 C   0  0  2  0  0  0  0  0  0  0  0  0
   -2.1556    3.8659    2.6006 C   0  0  0  0  0  0  0  0  0  0  0  0
   -2.2093    4.6435    3.5442 O   0  0  0  0  0  0  0  0  0  0  0  0
   -1.7416    4.6347    0.2189 C   0  0  0  0  0  0  0  0  0  0  0  0
    0.7468    2.9976    1.3660 H   0  0  0  0  0  0  0  0  0  0  0  0
   -0.4254    4.8632    1.8749 H   0  0  0  0  0  0  0  0  0  0  0  0
   -2.5044    3.9522   -0.1673 H   0  0  0  0  0  0  0  0  0  0  0  0
   -2.2206    5.5966    0.4276 H   0  0  0  0  0  0  0  0  0  0  0  0
   -0.9843    4.7865   -0.5560 H   0  0  0  0  0  0  0  0  0  0  0  0
   -3.0482    2.8144    2.5416 N   0  0  0  0  0  0  0  0  0  0  0  0
   -4.0732    2.5538    3.5428 C   0  0  0  0  0  0  0  0  0  0  0  0
   -2.9544    2.1869    1.7386 H   0  0  0  0  0  0  0  0  0  0  0  0
   -4.6520    1.6667    3.2678 H   0  0  0  0  0  0  0  0  0  0  0  0
   -3.6159    2.3793    4.5223 H   0  0  0  0  0  0  0  0  0  0  0  0
   -4.7584    3.4047    3.6190 H   0  0  0  0  0  0  0  0  0  0  0  0
  1  2  2  0  0  0  0
  1  3  1  0  0  0  0
  1  7  1  0  0  0  0
  3  4  1  0  0  0  0
  3  5  1  0  0  0  0
  3  6  1  0  0  0  0
  7  8  1  0  0  0  0
  7 12  1  0  0  0  0
  8  9  1  0  0  0  0
  8 11  1  0  0  0  0
  8 13  1  0  0  0  0
  9 10  2  0  0  0  0
  9 17  1  0  0  0  0
 11 14  1  0  0  0  0
 11 15  1  0  0  0  0
 11 16  1  0  0  0  0
 17 18  1  0  0  0  0
 17 25  1  0  0  0  0
 18 19  1  0  0  0  0
 18 21  1  0  0  0  0
 18 26  1  0  0  0  0
 19 20  2  0  0  0  0
 19 36  1  0  0  0  0
 21 22  1  0  0  0  0
 21 27  1  0  0  0  0
 21 28  1  0  0  0  0
 22 23  1  0  0  0  0
 22 24  1  0  0  0  0
 22 29  1  0  0  0  0
 23 30  1  0  0  0  0
 23 31  1  0  0  0  0
 23 32  1  0  0  0  0
 24 33  1  0  0  0  0
 24 34  1  0  0  0  0
 24 35  1  0  0  0  0
 36 37  1  0  0  0  0
 36 41  1  0  0  0  0
 37 38  1  0  0  0  0
 37 40  1  0  0  0  0
 37 42  1  0  0  0  0
 38 39  2  0  0  0  0
 38 46  1  0  0  0  0
 40 43  1  0  0  0  0
 40 44  1  0  0  0  0
 40 45  1  0  0  0  0
 46 47  1  0  0  0  0
 46 48  1  0  0  0  0
 47 49  1  0  0  0  0
 47 50  1  0  0  0  0
 47 51  1  0  0  0  0
M  END
$$$$

  -OEChem-05262216553D

 51 50  0     1  0  0  0  0  0999 V2000
    2.8591   -2.7438   -3.2550 C   0  0  0  0  0  0  0  0  0  0  0  0
    2.2446   -3.3807   -2.4157 O   0  0  0  0  0  0  0  0  0  0  0  0
    4.2441   -3.2029   -3.6708 C   0  0  0  0  0  0  0  0  0  0  0  0
    4.9831   -2.4434   -3.4034 H   0  0  0  0  0  0  0  0  0  0  0  0
    4.5005   -4.1371   -3.1632 H   0  0  0  0  0  0  0  0  0  0  0  0
    4.2752   -3.3697   -4.7501 H   0  0  0  0  0  0  0  0  0  0  0  0
    2.3323   -1.5986   -3.8233 N   0  0  0  0  0  0  0  0  0  0  0  0
    1.1532   -0.8673   -3.3199 C   0  0  2  0  0  0  0  0  0  0  0  0
    1.4225   -0.1644   -1.9670 C   0  0  0  0  0  0  0  0  0  0  0  0
    2.5188    0.3438   -1.7720 O   0  0  0  0  0  0  0  0  0  0  0  0
   -0.1079   -1.7503   -3.2984 C   0  0  0  0  0  0  0  0  0  0  0  0
    3.0006   -1.0557   -4.3629 H   0  0  0  0  0  0  0  0  0  0  0  0
    0.9523   -0.0648   -4.0358 H   0  0  0  0  0  0  0  0  0  0  0  0
   -0.0946   -2.4419   -2.4506 H   0  0  0  0  0  0  0  0  0  0  0  0
   -1.0068   -1.1319   -3.2190 H   0  0  0  0  0  0  0  0  0  0  0  0
   -0.1759   -2.3344   -4.2214 H   0  0  0  0  0  0  0  0  0  0  0  0
    0.3781    0.2729   -1.1773 N   0  0  0  0  0  0  0  0  0  0  0  0
    0.3625    0.5927    0.2678 C   0  0  2  0  0  0  0  0  0  0  0  0
   -0.6700    1.6946    0.5614 C   0  0  0  0  0  0  0  0  0  0  0  0
   -1.8645    1.4315    0.4916 O   0  0  0  0  0  0  0  0  0  0  0  0
    1.6104    0.6094    1.1991 C   0  0  0  0  0  0  0  0  0  0  0  0
    2.3681   -0.7139    1.5251 C   0  0  0  0  0  0  0  0  0  0  0  0
    3.6274   -0.3672    2.3300 C   0  0  0  0  0  0  0  0  0  0  0  0
    2.7420   -1.6995    0.4191 C   0  0  0  0  0  0  0  0  0  0  0  0
   -0.5315   -0.0039   -1.5393 H   0  0  0  0  0  0  0  0  0  0  0  0
   -0.1452   -0.2896    0.6720 H   0  0  0  0  0  0  0  0  0  0  0  0
    1.3040    1.0386    2.1592 H   0  0  0  0  0  0  0  0  0  0  0  0
    2.3290    1.3038    0.7518 H   0  0  0  0  0  0  0  0  0  0  0  0
    1.7013   -1.2738    2.1898 H   0  0  0  0  0  0  0  0  0  0  0  0
    4.3410    0.1832    1.7083 H   0  0  0  0  0  0  0  0  0  0  0  0
    4.1141   -1.2783    2.6922 H   0  0  0  0  0  0  0  0  0  0  0  0
    3.3726    0.2497    3.1971 H   0  0  0  0  0  0  0  0  0  0  0  0
    3.5046   -1.2850   -0.2438 H   0  0  0  0  0  0  0  0  0  0  0  0
    3.1542   -2.6128    0.8594 H   0  0  0  0  0  0  0  0  0  0  0  0
    1.8577   -1.9878   -0.1524 H   0  0  0  0  0  0  0  0  0  0  0  0
   -0.2428    2.9855    0.8246 N   0  0  0  0  0  0  0  0  0  0  0  0
   -1.0796    4.1861    1.0289 C   0  0  2  0  0  0  0  0  0  0  0  0
   -1.9458    4.1652    2.3092 C   0  0  0  0  0  0  0  0  0  0  0  0
   -1.8940    5.1098    3.0856 O   0  0  0  0  0  0  0  0  0  0  0  0
   -1.9409    4.4790   -0.2075 C   0  0  0  0  0  0  0  0  0  0  0  0
    0.7651    3.1199    0.7979 H   0  0  0  0  0  0  0  0  0  0  0  0
   -0.3937    5.0316    1.1452 H   0  0  0  0  0  0  0  0  0  0  0  0
   -2.7224    3.7244   -0.3358 H   0  0  0  0  0  0  0  0  0  0  0  0
   -2.4249    5.4551   -0.1022 H   0  0  0  0  0  0  0  0  0  0  0  0
   -1.3208    4.4963   -1.1088 H   0  0  0  0  0  0  0  0  0  0  0  0
   -2.7855    3.1063    2.5902 N   0  0  0  0  0  0  0  0  0  0  0  0
   -3.6353    3.0263    3.7699 C   0  0  0  0  0  0  0  0  0  0  0  0
   -2.7858    2.3380    1.9142 H   0  0  0  0  0  0  0  0  0  0  0  0
   -4.2309    2.1087    3.7432 H   0  0  0  0  0  0  0  0  0  0  0  0
   -3.0274    3.0196    4.6805 H   0  0  0  0  0  0  0  0  0  0  0  0
   -4.3190    3.8807    3.8081 H   0  0  0  0  0  0  0  0  0  0  0  0
  1  2  2  0  0  0  0
  1  3  1  0  0  0  0
  1  7  1  0  0  0  0
  3  4  1  0  0  0  0
  3  5  1  0  0  0  0
  3  6  1  0  0  0  0
  7  8  1  0  0  0  0
  7 12  1  0  0  0  0
  8  9  1  0  0  0  0
  8 11  1  0  0  0  0
  8 13  1  0  0  0  0
  9 10  2  0  0  0  0
  9 17  1  0  0  0  0
 11 14  1  0  0  0  0
 11 15  1  0  0  0  0
 11 16  1  0  0  0  0
 17 18  1  0  0  0  0
 17 25  1  0  0  0  0
 18 19  1  0  0  0  0
 18 21  1  0  0  0  0
 18 26  1  0  0  0  0
 19 20  2  0  0  0  0
 19 36  1  0  0  0  0
 21 22  1  0  0  0  0
 21 27  1  0  0  0  0
 21 28  1  0  0  0  0
 22 23  1  0  0  0  0
 22 24  1  0  0  0  0
 22 29  1  0  0  0  0
 23 30  1  0  0  0  0
 23 31  1  0  0  0  0
 23 32  1  0  0  0  0
 24 33  1  0  0  0  0
 24 34  1  0  0  0  0
 24 35  1  0  0  0  0
 36 37  1  0  0  0  0
 36 41  1  0  0  0  0
 37 38  1  0  0  0  0
 37 40  1  0  0  0  0
 37 42  1  0  0  0  0
 38 39  2  0  0  0  0
 38 46  1  0  0  0  0
 40 43  1  0  0  0  0
 40 44  1  0  0  0  0
 40 45  1  0  0  0  0
 46 47  1  0  0  0  0
 46 48  1  0  0  0  0
 47 49  1  0  0  0  0
 47 50  1  0  0  0  0
 47 51  1  0  0  0  0
M  END
$$$$

  -OEChem-05262216553D

 51 50  0     1  0  0  0  0  0999 V2000
    2.8199   -2.8361   -3.1706 C   0  0  0  0  0  0  0  0  0  0  0  0
    2.1239   -3.4280   -2.3626 O   0  0  0  0  0  0  0  0  0  0  0  0
    4.2054   -3.3655   -3.4892 C   0  0  0  0  0  0  0  0  0  0  0  0
    4.9595   -2.6212   -3.2207 H   0  0  0  0  0  0  0  0  0  0  0  0
    4.3989   -4.2813   -2.9234 H   0  0  0  0  0  0  0  0  0  0  0  0
    4.2848   -3.5878   -4.5560 H   0  0  0  0  0  0  0  0  0  0  0  0
    2.3871   -1.6752   -3.7837 N   0  0  0  0  0  0  0  0  0  0  0  0
    1.2190   -0.8779   -3.3631 C   0  0  2  0  0  0  0  0  0  0  0  0
    1.4547   -0.1579   -2.0132 C   0  0  0  0  0  0  0  0  0  0  0  0
    2.5337    0.3871   -1.8222 O   0  0  0  0  0  0  0  0  0  0  0  0
   -0.0857   -1.6943   -3.3968 C   0  0  0  0  0  0  0  0  0  0  0  0
    3.1134   -1.1743   -4.2879 H   0  0  0  0  0  0  0  0  0  0  0  0
    1.0987   -0.0826   -4.1047 H   0  0  0  0  0  0  0  0  0  0  0  0
   -0.1525   -2.3741   -2.5421 H   0  0  0  0  0  0  0  0  0  0  0  0
   -0.9534   -1.0285   -3.3715 H   0  0  0  0  0  0  0  0  0  0  0  0
   -0.1373   -2.2860   -4.3159 H   0  0  0  0  0  0  0  0  0  0  0  0
    0.3963    0.2574   -1.2301 N   0  0  0  0  0  0  0  0  0  0  0  0
    0.3711    0.5840    0.2141 C   0  0  2  0  0  0  0  0  0  0  0  0
   -0.6866    1.6607    0.5015 C   0  0  0  0  0  0  0  0  0  0  0  0
   -1.8495    1.3341    0.7022 O   0  0  0  0  0  0  0  0  0  0  0  0
    1.6148    0.6545    1.1462 C   0  0  0  0  0  0  0  0  0  0  0  0
    2.4238   -0.6354    1.4822 C   0  0  0  0  0  0  0  0  0  0  0  0
    3.6667   -0.2343    2.2862 C   0  0  0  0  0  0  0  0  0  0  0  0
    2.8377   -1.6159    0.3867 C   0  0  0  0  0  0  0  0  0  0  0  0
   -0.4988   -0.0706   -1.5847 H   0  0  0  0  0  0  0  0  0  0  0  0
   -0.1070   -0.3125    0.6236 H   0  0  0  0  0  0  0  0  0  0  0  0
    1.2891    1.0811    2.1013 H   0  0  0  0  0  0  0  0  0  0  0  0
    2.3064    1.3736    0.6951 H   0  0  0  0  0  0  0  0  0  0  0  0
    1.7774   -1.2144    2.1506 H   0  0  0  0  0  0  0  0  0  0  0  0
    4.3595    0.3374    1.6603 H   0  0  0  0  0  0  0  0  0  0  0  0
    4.1866   -1.1235    2.6561 H   0  0  0  0  0  0  0  0  0  0  0  0
    3.3875    0.3799    3.1479 H   0  0  0  0  0  0  0  0  0  0  0  0
    3.5849   -1.1787   -0.2788 H   0  0  0  0  0  0  0  0  0  0  0  0
    3.2837   -2.5083    0.8364 H   0  0  0  0  0  0  0  0  0  0  0  0
    1.9655   -1.9432   -0.1816 H   0  0  0  0  0  0  0  0  0  0  0  0
   -0.3216    2.9949    0.4471 N   0  0  0  0  0  0  0  0  0  0  0  0
   -1.2080    4.1728    0.5500 C   0  0  2  0  0  0  0  0  0  0  0  0
   -1.8651    4.3827    1.9336 C   0  0  0  0  0  0  0  0  0  0  0  0
   -1.8418    5.4940    2.4461 O   0  0  0  0  0  0  0  0  0  0  0  0
   -2.2696    4.1595   -0.5579 C   0  0  0  0  0  0  0  0  0  0  0  0
    0.6534    3.1636    0.2094 H   0  0  0  0  0  0  0  0  0  0  0  0
   -0.5811    5.0546    0.3813 H   0  0  0  0  0  0  0  0  0  0  0  0
   -2.9976    3.3583   -0.4002 H   0  0  0  0  0  0  0  0  0  0  0  0
   -2.8094    5.1116   -0.5698 H   0  0  0  0  0  0  0  0  0  0  0  0
   -1.7982    4.0164   -1.5347 H   0  0  0  0  0  0  0  0  0  0  0  0
   -2.4949    3.3485    2.5963 N   0  0  0  0  0  0  0  0  0  0  0  0
   -3.1721    3.4930    3.8769 C   0  0  0  0  0  0  0  0  0  0  0  0
   -2.5310    2.4519    2.1044 H   0  0  0  0  0  0  0  0  0  0  0  0
   -3.5517    2.5237    4.2135 H   0  0  0  0  0  0  0  0  0  0  0  0
   -2.4801    3.8752    4.6345 H   0  0  0  0  0  0  0  0  0  0  0  0
   -4.0156    4.1852    3.7870 H   0  0  0  0  0  0  0  0  0  0  0  0
  1  2  2  0  0  0  0
  1  3  1  0  0  0  0
  1  7  1  0  0  0  0
  3  4  1  0  0  0  0
  3  5  1  0  0  0  0
  3  6  1  0  0  0  0
  7  8  1  0  0  0  0
  7 12  1  0  0  0  0
  8  9  1  0  0  0  0
  8 11  1  0  0  0  0
  8 13  1  0  0  0  0
  9 10  2  0  0  0  0
  9 17  1  0  0  0  0
 11 14  1  0  0  0  0
 11 15  1  0  0  0  0
 11 16  1  0  0  0  0
 17 18  1  0  0  0  0
 17 25  1  0  0  0  0
 18 19  1  0  0  0  0
 18 21  1  0  0  0  0
 18 26  1  0  0  0  0
 19 20  2  0  0  0  0
 19 36  1  0  0  0  0
 21 22  1  0  0  0  0
 21 27  1  0  0  0  0
 21 28  1  0  0  0  0
 22 23  1  0  0  0  0
 22 24  1  0  0  0  0
 22 29  1  0  0  0  0
 23 30  1  0  0  0  0
 23 31  1  0  0  0  0
 23 32  1  0  0  0  0
 24 33  1  0  0  0  0
 24 34  1  0  0  0  0
 24 35  1  0  0  0  0
 36 37  1  0  0  0  0
 36 41  1  0  0  0  0
 37 38  1  0  0  0  0
 37 40  1  0  0  0  0
 37 42  1  0  0  0  0
 38 39  2  0  0  0  0
 38 46  1  0  0  0  0
 40 43  1  0  0  0  0
 40 44  1  0  0  0  0
 40 45  1  0  0  0  0
 46 47  1  0  0  0  0
 46 48  1  0  0  0  0
 47 49  1  0  0  0  0
 47 50  1  0  0  0  0
 47 51  1  0  0  0  0
M  END
$$$$

  -OEChem-05262216553D

 51 50  0     1  0  0  0  0  0999 V2000
    3.0043   -2.8460   -3.1429 C   0  0  0  0  0  0  0  0  0  0  0  0
    2.3766   -3.4746   -2.3072 O   0  0  0  0  0  0  0  0  0  0  0  0
    4.4263   -3.2595   -3.4719 C   0  0  0  0  0  0  0  0  0  0  0  0
    5.1152   -2.4473   -3.2266 H   0  0  0  0  0  0  0  0  0  0  0  0
    4.7058   -4.1446   -2.8932 H   0  0  0  0  0  0  0  0  0  0  0  0
    4.5122   -3.4933   -4.5358 H   0  0  0  0  0  0  0  0  0  0  0  0
    2.4593   -1.7489   -3.7838 N   0  0  0  0  0  0  0  0  0  0  0  0
    1.2302   -1.0438   -3.3700 C   0  0  2  0  0  0  0  0  0  0  0  0
    1.4204   -0.2378   -2.0621 C   0  0  0  0  0  0  0  0  0  0  0  0
    2.4749    0.3557   -1.8804 O   0  0  0  0  0  0  0  0  0  0  0  0
    0.0082   -1.9791   -3.3238 C   0  0  0  0  0  0  0  0  0  0  0  0
    3.1310   -1.2029   -4.3163 H   0  0  0  0  0  0  0  0  0  0  0  0
    1.0183   -0.3034   -4.1473 H   0  0  0  0  0  0  0  0  0  0  0  0
    0.0172   -2.5996   -2.4225 H   0  0  0  0  0  0  0  0  0  0  0  0
   -0.9182   -1.3975   -3.3276 H   0  0  0  0  0  0  0  0  0  0  0  0
    0.0020   -2.6372   -4.1983 H   0  0  0  0  0  0  0  0  0  0  0  0
    0.3335    0.1959   -1.3308 N   0  0  0  0  0  0  0  0  0  0  0  0
    0.2608    0.5574    0.1043 C   0  0  2  0  0  0  0  0  0  0  0  0
   -0.8043    1.6409    0.3326 C   0  0  0  0  0  0  0  0  0  0  0  0
   -1.8873    1.3494    0.8232 O   0  0  0  0  0  0  0  0  0  0  0  0
    1.4741    0.6781    1.0705 C   0  0  0  0  0  0  0  0  0  0  0  0
    2.3043   -0.5814    1.4663 C   0  0  0  0  0  0  0  0  0  0  0  0
    3.5107   -0.1245    2.2965 C   0  0  0  0  0  0  0  0  0  0  0  0
    2.7844   -1.5734    0.4089 C   0  0  0  0  0  0  0  0  0  0  0  0
   -0.5407   -0.1722   -1.6965 H   0  0  0  0  0  0  0  0  0  0  0  0
   -0.2208   -0.3327    0.5238 H   0  0  0  0  0  0  0  0  0  0  0  0
    1.1095    1.1214    2.0042 H   0  0  0  0  0  0  0  0  0  0  0  0
    2.1614    1.4028    0.6215 H   0  0  0  0  0  0  0  0  0  0  0  0
    1.6535   -1.1633    2.1279 H   0  0  0  0  0  0  0  0  0  0  0  0
    4.2016    0.4600    1.6804 H   0  0  0  0  0  0  0  0  0  0  0  0
    4.0502   -0.9883    2.6978 H   0  0  0  0  0  0  0  0  0  0  0  0
    3.1855    0.4949    3.1382 H   0  0  0  0  0  0  0  0  0  0  0  0
    3.5335   -1.1254   -0.2475 H   0  0  0  0  0  0  0  0  0  0  0  0
    3.2505   -2.4368    0.8939 H   0  0  0  0  0  0  0  0  0  0  0  0
    1.9415   -1.9477   -0.1746 H   0  0  0  0  0  0  0  0  0  0  0  0
   -0.5186    2.9413   -0.0449 N   0  0  0  0  0  0  0  0  0  0  0  0
   -1.3962    4.1245    0.0674 C   0  0  2  0  0  0  0  0  0  0  0  0
   -1.7183    4.5587    1.5159 C   0  0  0  0  0  0  0  0  0  0  0  0
   -1.5549    5.7264    1.8439 O   0  0  0  0  0  0  0  0  0  0  0  0
   -2.6857    3.9366   -0.7432 C   0  0  0  0  0  0  0  0  0  0  0  0
    0.4037    3.0764   -0.4545 H   0  0  0  0  0  0  0  0  0  0  0  0
   -0.8556    4.9633   -0.3832 H   0  0  0  0  0  0  0  0  0  0  0  0
   -3.3305    3.1763   -0.2932 H   0  0  0  0  0  0  0  0  0  0  0  0
   -3.2444    4.8771   -0.7794 H   0  0  0  0  0  0  0  0  0  0  0  0
   -2.4505    3.6340   -1.7678 H   0  0  0  0  0  0  0  0  0  0  0  0
   -2.1970    3.6578    2.4460 N   0  0  0  0  0  0  0  0  0  0  0  0
   -2.5337    4.0023    3.8200 C   0  0  0  0  0  0  0  0  0  0  0  0
   -2.3261    2.6962    2.1201 H   0  0  0  0  0  0  0  0  0  0  0  0
   -2.8860    3.1150    4.3546 H   0  0  0  0  0  0  0  0  0  0  0  0
   -1.6556    4.3956    4.3429 H   0  0  0  0  0  0  0  0  0  0  0  0
   -3.3259    4.7578    3.8420 H   0  0  0  0  0  0  0  0  0  0  0  0
  1  2  2  0  0  0  0
  1  3  1  0  0  0  0
  1  7  1  0  0  0  0
  3  4  1  0  0  0  0
  3  5  1  0  0  0  0
  3  6  1  0  0  0  0
  7  8  1  0  0  0  0
  7 12  1  0  0  0  0
  8  9  1  0  0  0  0
  8 11  1  0  0  0  0
  8 13  1  0  0  0  0
  9 10  2  0  0  0  0
  9 17  1  0  0  0  0
 11 14  1  0  0  0  0
 11 15  1  0  0  0  0
 11 16  1  0  0  0  0
 17 18  1  0  0  0  0
 17 25  1  0  0  0  0
 18 19  1  0  0  0  0
 18 21  1  0  0  0  0
 18 26  1  0  0  0  0
 19 20  2  0  0  0  0
 19 36  1  0  0  0  0
 21 22  1  0  0  0  0
 21 27  1  0  0  0  0
 21 28  1  0  0  0  0
 22 23  1  0  0  0  0
 22 24  1  0  0  0  0
 22 29  1  0  0  0  0
 23 30  1  0  0  0  0
 23 31  1  0  0  0  0
 23 32  1  0  0  0  0
 24 33  1  0  0  0  0
 24 34  1  0  0  0  0
 24 35  1  0  0  0  0
 36 37  1  0  0  0  0
 36 41  1  0  0  0  0
 37 38  1  0  0  0  0
 37 40  1  0  0  0  0
 37 42  1  0  0  0  0
 38 39  2  0  0  0  0
 38 46  1  0  0  0  0
 40 43  1  0  0  0  0
 40 44  1  0  0  0  0
 40 45  1  0  0  0  0
 46 47  1  0  0  0  0
 46 48  1  0  0  0  0
 47 49  1  0  0  0  0
 47 50  1  0  0  0  0
 47 51  1  0  0  0  0
M  END
$$$$

  -OEChem-05262216553D

 51 50  0     1  0  0  0  0  0999 V2000
    0.9426   -2.8008   -2.6010 C   0  0  0  0  0  0  0  0  0  0  0  0
   -0.0717   -2.1431   -2.4333 O   0  0  0  0  0  0  0  0  0  0  0  0
    0.9320   -4.2896   -2.3107 C   0  0  0  0  0  0  0  0  0  0  0  0
    1.6503   -4.5219   -1.5203 H   0  0  0  0  0  0  0  0  0  0  0  0
   -0.0635   -4.6040   -1.9837 H   0  0  0  0  0  0  0  0  0  0  0  0
    1.1974   -4.8489   -3.2113 H   0  0  0  0  0  0  0  0  0  0  0  0
    2.1175   -2.1941   -3.0045 N   0  0  0  0  0  0  0  0  0  0  0  0
    2.3029   -0.7753   -3.3766 C   0  0  2  0  0  0  0  0  0  0  0  0
    2.1237    0.2348   -2.2193 C   0  0  0  0  0  0  0  0  0  0  0  0
    2.8875    1.1845   -2.1304 O   0  0  0  0  0  0  0  0  0  0  0  0
    1.4184   -0.4006   -4.5740 C   0  0  0  0  0  0  0  0  0  0  0  0
    2.9187   -2.8108   -3.1078 H   0  0  0  0  0  0  0  0  0  0  0  0
    3.3424   -0.6663   -3.7033 H   0  0  0  0  0  0  0  0  0  0  0  0
    0.3584   -0.4081   -4.3044 H   0  0  0  0  0  0  0  0  0  0  0  0
    1.6720    0.6043   -4.9266 H   0  0  0  0  0  0  0  0  0  0  0  0
    1.5738   -1.1050   -5.3967 H   0  0  0  0  0  0  0  0  0  0  0  0
    0.9886    0.2583   -1.4403 N   0  0  0  0  0  0  0  0  0  0  0  0
    0.8672    0.5808   -0.0007 C   0  0  2  0  0  0  0  0  0  0  0  0
   -0.4956    1.2204    0.3058 C   0  0  0  0  0  0  0  0  0  0  0  0
   -1.2264    0.7404    1.1633 O   0  0  0  0  0  0  0  0  0  0  0  0
    2.0187    1.1250    0.8905 C   0  0  0  0  0  0  0  0  0  0  0  0
    3.2565    0.2332    1.2160 C   0  0  0  0  0  0  0  0  0  0  0  0
    4.2768    1.0895    1.9770 C   0  0  0  0  0  0  0  0  0  0  0  0
    3.9914   -0.5333    0.1155 C   0  0  0  0  0  0  0  0  0  0  0  0
    0.3265   -0.4610   -1.7509 H   0  0  0  0  0  0  0  0  0  0  0  0
    0.7464   -0.4193    0.4291 H   0  0  0  0  0  0  0  0  0  0  0  0
    1.5805    1.4208    1.8501 H   0  0  0  0  0  0  0  0  0  0  0  0
    2.3798    2.0411    0.4114 H   0  0  0  0  0  0  0  0  0  0  0  0
    2.8903   -0.5337    1.9071 H   0  0  0  0  0  0  0  0  0  0  0  0
    4.6836    1.8701    1.3258 H   0  0  0  0  0  0  0  0  0  0  0  0
    5.1052    0.4713    2.3370 H   0  0  0  0  0  0  0  0  0  0  0  0
    3.8083    1.5682    2.8427 H   0  0  0  0  0  0  0  0  0  0  0  0
    4.4817    0.1496   -0.5820 H   0  0  0  0  0  0  0  0  0  0  0  0
    4.7700   -1.1610    0.5600 H   0  0  0  0  0  0  0  0  0  0  0  0
    3.3076   -1.1967   -0.4173 H   0  0  0  0  0  0  0  0  0  0  0  0
   -0.8252    2.4039   -0.3307 N   0  0  0  0  0  0  0  0  0  0  0  0
   -2.0877    3.1634   -0.2215 C   0  0  2  0  0  0  0  0  0  0  0  0
   -2.3404    3.8305    1.1506 C   0  0  0  0  0  0  0  0  0  0  0  0
   -2.7077    4.9976    1.1926 O   0  0  0  0  0  0  0  0  0  0  0  0
   -3.2833    2.2922   -0.6287 C   0  0  0  0  0  0  0  0  0  0  0  0
   -0.1392    2.7226   -1.0125 H   0  0  0  0  0  0  0  0  0  0  0  0
   -2.0272    3.9825   -0.9456 H   0  0  0  0  0  0  0  0  0  0  0  0
   -3.4672    1.5032    0.1065 H   0  0  0  0  0  0  0  0  0  0  0  0
   -4.1860    2.9067   -0.7018 H   0  0  0  0  0  0  0  0  0  0  0  0
   -3.1011    1.8266   -1.6019 H   0  0  0  0  0  0  0  0  0  0  0  0
   -2.1873    3.1315    2.3311 N   0  0  0  0  0  0  0  0  0  0  0  0
   -2.4526    3.6856    3.6509 C   0  0  0  0  0  0  0  0  0  0  0  0
   -1.9192    2.1477    2.2404 H   0  0  0  0  0  0  0  0  0  0  0  0
   -2.2614    2.9320    4.4208 H   0  0  0  0  0  0  0  0  0  0  0  0
   -1.8051    4.5477    3.8408 H   0  0  0  0  0  0  0  0  0  0  0  0
   -3.4970    4.0045    3.7294 H   0  0  0  0  0  0  0  0  0  0  0  0
  1  2  2  0  0  0  0
  1  3  1  0  0  0  0
  1  7  1  0  0  0  0
  3  4  1  0  0  0  0
  3  5  1  0  0  0  0
  3  6  1  0  0  0  0
  7  8  1  0  0  0  0
  7 12  1  0  0  0  0
  8  9  1  0  0  0  0
  8 11  1  0  0  0  0
  8 13  1  0  0  0  0
  9 10  2  0  0  0  0
  9 17  1  0  0  0  0
 11 14  1  0  0  0  0
 11 15  1  0  0  0  0
 11 16  1  0  0  0  0
 17 18  1  0  0  0  0
 17 25  1  0  0  0  0
 18 19  1  0  0  0  0
 18 21  1  0  0  0  0
 18 26  1  0  0  0  0
 19 20  2  0  0  0  0
 19 36  1  0  0  0  0
 21 22  1  0  0  0  0
 21 27  1  0  0  0  0
 21 28  1  0  0  0  0
 22 23  1  0  0  0  0
 22 24  1  0  0  0  0
 22 29  1  0  0  0  0
 23 30  1  0  0  0  0
 23 31  1  0  0  0  0
 23 32  1  0  0  0  0
 24 33  1  0  0  0  0
 24 34  1  0  0  0  0
 24 35  1  0  0  0  0
 36 37  1  0  0  0  0
 36 41  1  0  0  0  0
 37 38  1  0  0  0  0
 37 40  1  0  0  0  0
 37 42  1  0  0  0  0
 38 39  2  0  0  0  0
 38 46  1  0  0  0  0
 40 43  1  0  0  0  0
 40 44  1  0  0  0  0
 40 45  1  0  0  0  0
 46 47  1  0  0  0  0
 46 48  1  0  0  0  0
 47 49  1  0  0  0  0
 47 50  1  0  0  0  0
 47 51  1  0  0  0  0
M  END
$$$$

  -OEChem-05262216553D

 51 50  0     1  0  0  0  0  0999 V2000
    3.0945   -2.8710   -3.0758 C   0  0  0  0  0  0  0  0  0  0  0  0
    2.4275   -3.4964   -2.2688 O   0  0  0  0  0  0  0  0  0  0  0  0
    4.5349   -3.2767   -3.3250 C   0  0  0  0  0  0  0  0  0  0  0  0
    5.2056   -2.4603   -3.0451 H   0  0  0  0  0  0  0  0  0  0  0  0
    4.7875   -4.1583   -2.7289 H   0  0  0  0  0  0  0  0  0  0  0  0
    4.6800   -3.5136   -4.3819 H   0  0  0  0  0  0  0  0  0  0  0  0
    2.5744   -1.7849   -3.7548 N   0  0  0  0  0  0  0  0  0  0  0  0
    1.3154   -1.0911   -3.4204 C   0  0  2  0  0  0  0  0  0  0  0  0
    1.4288   -0.2585   -2.1204 C   0  0  0  0  0  0  0  0  0  0  0  0
    2.4345    0.4144   -1.9447 O   0  0  0  0  0  0  0  0  0  0  0  0
    0.1031   -2.0404   -3.4282 C   0  0  0  0  0  0  0  0  0  0  0  0
    3.2669   -1.2380   -4.2592 H   0  0  0  0  0  0  0  0  0  0  0  0
    1.1383   -0.3660   -4.2205 H   0  0  0  0  0  0  0  0  0  0  0  0
    0.0703   -2.6522   -2.5215 H   0  0  0  0  0  0  0  0  0  0  0  0
   -0.8282   -1.4698   -3.4890 H   0  0  0  0  0  0  0  0  0  0  0  0
    0.1513   -2.7074   -4.2946 H   0  0  0  0  0  0  0  0  0  0  0  0
    0.3068    0.1069   -1.4031 N   0  0  0  0  0  0  0  0  0  0  0  0
    0.2011    0.4897    0.0285 C   0  0  2  0  0  0  0  0  0  0  0  0
   -0.9393    1.4971    0.2493 C   0  0  0  0  0  0  0  0  0  0  0  0
   -1.6978    1.3751    1.2019 O   0  0  0  0  0  0  0  0  0  0  0  0
    1.4038    0.7045    0.9926 C   0  0  0  0  0  0  0  0  0  0  0  0
    2.3101   -0.4935    1.4092 C   0  0  0  0  0  0  0  0  0  0  0  0
    3.4863    0.0489    2.2312 C   0  0  0  0  0  0  0  0  0  0  0  0
    2.8463   -1.4736    0.3683 C   0  0  0  0  0  0  0  0  0  0  0  0
   -0.5282   -0.3502   -1.7600 H   0  0  0  0  0  0  0  0  0  0  0  0
   -0.2236   -0.4232    0.4599 H   0  0  0  0  0  0  0  0  0  0  0  0
    1.0138    1.1409    1.9186 H   0  0  0  0  0  0  0  0  0  0  0  0
    2.0441    1.4631    0.5307 H   0  0  0  0  0  0  0  0  0  0  0  0
    1.6946   -1.1008    2.0818 H   0  0  0  0  0  0  0  0  0  0  0  0
    4.1456    0.6557    1.6024 H   0  0  0  0  0  0  0  0  0  0  0  0
    4.0706   -0.7748    2.6532 H   0  0  0  0  0  0  0  0  0  0  0  0
    3.1261    0.6693    3.0580 H   0  0  0  0  0  0  0  0  0  0  0  0
    3.5636   -0.9923   -0.2996 H   0  0  0  0  0  0  0  0  0  0  0  0
    3.3659   -2.2981    0.8661 H   0  0  0  0  0  0  0  0  0  0  0  0
    2.0240   -1.9082   -0.2024 H   0  0  0  0  0  0  0  0  0  0  0  0
   -1.0645    2.5605   -0.6274 N   0  0  0  0  0  0  0  0  0  0  0  0
   -2.0682    3.6441   -0.5913 C   0  0  2  0  0  0  0  0  0  0  0  0
   -1.9473    4.6055    0.6137 C   0  0  0  0  0  0  0  0  0  0  0  0
   -1.9935    5.8136    0.4233 O   0  0  0  0  0  0  0  0  0  0  0  0
   -3.4924    3.0810   -0.6929 C   0  0  0  0  0  0  0  0  0  0  0  0
   -0.3305    2.6187   -1.3308 H   0  0  0  0  0  0  0  0  0  0  0  0
   -1.9039    4.2577   -1.4834 H   0  0  0  0  0  0  0  0  0  0  0  0
   -3.7706    2.5388    0.2155 H   0  0  0  0  0  0  0  0  0  0  0  0
   -4.2074    3.8979   -0.8330 H   0  0  0  0  0  0  0  0  0  0  0  0
   -3.5732    2.3998   -1.5450 H   0  0  0  0  0  0  0  0  0  0  0  0
   -1.8096    4.1292    1.9022 N   0  0  0  0  0  0  0  0  0  0  0  0
   -1.7612    4.9768    3.0848 C   0  0  0  0  0  0  0  0  0  0  0  0
   -1.8375    3.1121    2.0126 H   0  0  0  0  0  0  0  0  0  0  0  0
   -1.5943    4.3670    3.9780 H   0  0  0  0  0  0  0  0  0  0  0  0
   -0.9444    5.7019    3.0047 H   0  0  0  0  0  0  0  0  0  0  0  0
   -2.7047    5.5191    3.2050 H   0  0  0  0  0  0  0  0  0  0  0  0
  1  2  2  0  0  0  0
  1  3  1  0  0  0  0
  1  7  1  0  0  0  0
  3  4  1  0  0  0  0
  3  5  1  0  0  0  0
  3  6  1  0  0  0  0
  7  8  1  0  0  0  0
  7 12  1  0  0  0  0
  8  9  1  0  0  0  0
  8 11  1  0  0  0  0
  8 13  1  0  0  0  0
  9 10  2  0  0  0  0
  9 17  1  0  0  0  0
 11 14  1  0  0  0  0
 11 15  1  0  0  0  0
 11 16  1  0  0  0  0
 17 18  1  0  0  0  0
 17 25  1  0  0  0  0
 18 19  1  0  0  0  0
 18 21  1  0  0  0  0
 18 26  1  0  0  0  0
 19 20  2  0  0  0  0
 19 36  1  0  0  0  0
 21 22  1  0  0  0  0
 21 27  1  0  0  0  0
 21 28  1  0  0  0  0
 22 23  1  0  0  0  0
 22 24  1  0  0  0  0
 22 29  1  0  0  0  0
 23 30  1  0  0  0  0
 23 31  1  0  0  0  0
 23 32  1  0  0  0  0
 24 33  1  0  0  0  0
 24 34  1  0  0  0  0
 24 35  1  0  0  0  0
 36 37  1  0  0  0  0
 36 41  1  0  0  0  0
 37 38  1  0  0  0  0
 37 40  1  0  0  0  0
 37 42  1  0  0  0  0
 38 39  2  0  0  0  0
 38 46  1  0  0  0  0
 40 43  1  0  0  0  0
 40 44  1  0  0  0  0
 40 45  1  0  0  0  0
 46 47  1  0  0  0  0
 46 48  1  0  0  0  0
 47 49  1  0  0  0  0
 47 50  1  0  0  0  0
 47 51  1  0  0  0  0
M  END
$$$$

  -OEChem-05262216553D

 51 50  0     1  0  0  0  0  0999 V2000
    1.0746   -2.8585   -2.5970 C   0  0  0  0  0  0  0  0  0  0  0  0
    0.0249   -2.2678   -2.3967 O   0  0  0  0  0  0  0  0  0  0  0  0
    1.1736   -4.3431   -2.3026 C   0  0  0  0  0  0  0  0  0  0  0  0
    1.9055   -4.5192   -1.5103 H   0  0  0  0  0  0  0  0  0  0  0  0
    0.2034   -4.7295   -1.9771 H   0  0  0  0  0  0  0  0  0  0  0  0
    1.4821   -4.8835   -3.2011 H   0  0  0  0  0  0  0  0  0  0  0  0
    2.1915   -2.1789   -3.0460 N   0  0  0  0  0  0  0  0  0  0  0  0
    2.2686   -0.7556   -3.4380 C   0  0  2  0  0  0  0  0  0  0  0  0
    2.0578    0.2533   -2.2852 C   0  0  0  0  0  0  0  0  0  0  0  0
    2.7831    1.2331   -2.2102 O   0  0  0  0  0  0  0  0  0  0  0  0
    1.3216   -0.4581   -4.6093 C   0  0  0  0  0  0  0  0  0  0  0  0
    3.0298   -2.7410   -3.1680 H   0  0  0  0  0  0  0  0  0  0  0  0
    3.2876   -0.5810   -3.7997 H   0  0  0  0  0  0  0  0  0  0  0  0
    0.2737   -0.5378   -4.3058 H   0  0  0  0  0  0  0  0  0  0  0  0
    1.4926    0.5576   -4.9801 H   0  0  0  0  0  0  0  0  0  0  0  0
    1.5003   -1.1593   -5.4298 H   0  0  0  0  0  0  0  0  0  0  0  0
    0.9287    0.2281   -1.4961 N   0  0  0  0  0  0  0  0  0  0  0  0
    0.8063    0.5530   -0.0541 C   0  0  2  0  0  0  0  0  0  0  0  0
   -0.5804    1.1339    0.2820 C   0  0  0  0  0  0  0  0  0  0  0  0
   -1.0516    0.9978    1.4043 O   0  0  0  0  0  0  0  0  0  0  0  0
    1.9610    1.1336    0.8137 C   0  0  0  0  0  0  0  0  0  0  0  0
    3.2266    0.2742    1.1221 C   0  0  0  0  0  0  0  0  0  0  0  0
    4.2397    1.1600    1.8588 C   0  0  0  0  0  0  0  0  0  0  0  0
    3.9598   -0.4837    0.0140 C   0  0  0  0  0  0  0  0  0  0  0  0
    0.3149   -0.5404   -1.7868 H   0  0  0  0  0  0  0  0  0  0  0  0
    0.7216   -0.4483    0.3802 H   0  0  0  0  0  0  0  0  0  0  0  0
    1.5386    1.4274    1.7806 H   0  0  0  0  0  0  0  0  0  0  0  0
    2.2899    2.0546    0.3212 H   0  0  0  0  0  0  0  0  0  0  0  0
    2.8914   -0.4958    1.8252 H   0  0  0  0  0  0  0  0  0  0  0  0
    4.6199    1.9427    1.1943 H   0  0  0  0  0  0  0  0  0  0  0  0
    5.0865    0.5634    2.2126 H   0  0  0  0  0  0  0  0  0  0  0  0
    3.7740    1.6368    2.7272 H   0  0  0  0  0  0  0  0  0  0  0  0
    4.4199    0.2049   -0.6982 H   0  0  0  0  0  0  0  0  0  0  0  0
    4.7620   -1.0883    0.4482 H   0  0  0  0  0  0  0  0  0  0  0  0
    3.2824   -1.1680   -0.4999 H   0  0  0  0  0  0  0  0  0  0  0  0
   -1.2598    1.8556   -0.6840 N   0  0  0  0  0  0  0  0  0  0  0  0
   -2.5931    2.4819   -0.5741 C   0  0  2  0  0  0  0  0  0  0  0  0
   -2.6739    3.6754    0.4060 C   0  0  0  0  0  0  0  0  0  0  0  0
   -3.1891    4.7229    0.0371 O   0  0  0  0  0  0  0  0  0  0  0  0
   -3.6679    1.4353   -0.2484 C   0  0  0  0  0  0  0  0  0  0  0  0
   -0.7508    1.9719   -1.5579 H   0  0  0  0  0  0  0  0  0  0  0  0
   -2.8337    2.8877   -1.5621 H   0  0  0  0  0  0  0  0  0  0  0  0
   -3.5512    1.0491    0.7683 H   0  0  0  0  0  0  0  0  0  0  0  0
   -4.6633    1.8833   -0.3299 H   0  0  0  0  0  0  0  0  0  0  0  0
   -3.6075    0.5968   -0.9486 H   0  0  0  0  0  0  0  0  0  0  0  0
   -2.1887    3.5813    1.6950 N   0  0  0  0  0  0  0  0  0  0  0  0
   -2.2298    4.6643    2.6670 C   0  0  0  0  0  0  0  0  0  0  0  0
   -1.7745    2.6825    1.9563 H   0  0  0  0  0  0  0  0  0  0  0  0
   -3.2632    4.9770    2.8486 H   0  0  0  0  0  0  0  0  0  0  0  0
   -1.7961    4.3354    3.6163 H   0  0  0  0  0  0  0  0  0  0  0  0
   -1.6585    5.5255    2.3052 H   0  0  0  0  0  0  0  0  0  0  0  0
  1  2  2  0  0  0  0
  1  3  1  0  0  0  0
  1  7  1  0  0  0  0
  3  4  1  0  0  0  0
  3  5  1  0  0  0  0
  3  6  1  0  0  0  0
  7  8  1  0  0  0  0
  7 12  1  0  0  0  0
  8  9  1  0  0  0  0
  8 11  1  0  0  0  0
  8 13  1  0  0  0  0
  9 10  2  0  0  0  0
  9 17  1  0  0  0  0
 11 14  1  0  0  0  0
 11 15  1  0  0  0  0
 11 16  1  0  0  0  0
 17 18  1  0  0  0  0
 17 25  1  0  0  0  0
 18 19  1  0  0  0  0
 18 21  1  0  0  0  0
 18 26  1  0  0  0  0
 19 20  2  0  0  0  0
 19 36  1  0  0  0  0
 21 22  1  0  0  0  0
 21 27  1  0  0  0  0
 21 28  1  0  0  0  0
 22 23  1  0  0  0  0
 22 24  1  0  0  0  0
 22 29  1  0  0  0  0
 23 30  1  0  0  0  0
 23 31  1  0  0  0  0
 23 32  1  0  0  0  0
 24 33  1  0  0  0  0
 24 34  1  0  0  0  0
 24 35  1  0  0  0  0
 36 37  1  0  0  0  0
 36 41  1  0  0  0  0
 37 38  1  0  0  0  0
 37 40  1  0  0  0  0
 37 42  1  0  0  0  0
 38 39  2  0  0  0  0
 38 46  1  0  0  0  0
 40 43  1  0  0  0  0
 40 44  1  0  0  0  0
 40 45  1  0  0  0  0
 46 47  1  0  0  0  0
 46 48  1  0  0  0  0
 47 49  1  0  0  0  0
 47 50  1  0  0  0  0
 47 51  1  0  0  0  0
M  END
$$$$

  -OEChem-05262216553D

 51 50  0     1  0  0  0  0  0999 V2000
    0.9614   -2.8443   -2.6406 C   0  0  0  0  0  0  0  0  0  0  0  0
   -0.0637   -2.2095   -2.4476 O   0  0  0  0  0  0  0  0  0  0  0  0
    0.9807   -4.3398   -2.3863 C   0  0  0  0  0  0  0  0  0  0  0  0
    1.7183   -4.5798   -1.6163 H   0  0  0  0  0  0  0  0  0  0  0  0
   -0.0028   -4.6781   -2.0477 H   0  0  0  0  0  0  0  0  0  0  0  0
    1.2365   -4.8723   -3.3057 H   0  0  0  0  0  0  0  0  0  0  0  0
    2.1194   -2.2055   -3.0437 N   0  0  0  0  0  0  0  0  0  0  0  0
    2.2685   -0.7815   -3.4153 C   0  0  2  0  0  0  0  0  0  0  0  0
    2.0705    0.2297   -2.2617 C   0  0  0  0  0  0  0  0  0  0  0  0
    2.7985    1.2080   -2.1979 O   0  0  0  0  0  0  0  0  0  0  0  0
    1.3686   -0.4295   -4.6081 C   0  0  0  0  0  0  0  0  0  0  0  0
    2.9290   -2.8062   -3.1751 H   0  0  0  0  0  0  0  0  0  0  0  0
    3.3037   -0.6489   -3.7473 H   0  0  0  0  0  0  0  0  0  0  0  0
    0.3108   -0.4579   -4.3311 H   0  0  0  0  0  0  0  0  0  0  0  0
    1.5998    0.5793   -4.9653 H   0  0  0  0  0  0  0  0  0  0  0  0
    1.5327   -1.1327   -5.4300 H   0  0  0  0  0  0  0  0  0  0  0  0
    0.9459    0.2099   -1.4654 N   0  0  0  0  0  0  0  0  0  0  0  0
    0.8206    0.5561   -0.0270 C   0  0  2  0  0  0  0  0  0  0  0  0
   -0.5732    1.1316    0.3021 C   0  0  0  0  0  0  0  0  0  0  0  0
   -0.9577    1.1995    1.4631 O   0  0  0  0  0  0  0  0  0  0  0  0
    1.9812    1.1544    0.8245 C   0  0  0  0  0  0  0  0  0  0  0  0
    3.2499    0.3013    1.1389 C   0  0  0  0  0  0  0  0  0  0  0  0
    4.2672    1.2003    1.8537 C   0  0  0  0  0  0  0  0  0  0  0  0
    3.9761   -0.4779    0.0412 C   0  0  0  0  0  0  0  0  0  0  0  0
    0.3263   -0.5552   -1.7519 H   0  0  0  0  0  0  0  0  0  0  0  0
    0.7408   -0.4373    0.4253 H   0  0  0  0  0  0  0  0  0  0  0  0
    1.5699    1.4653    1.7907 H   0  0  0  0  0  0  0  0  0  0  0  0
    2.3049    2.0673    0.3136 H   0  0  0  0  0  0  0  0  0  0  0  0
    2.9195   -0.4558    1.8582 H   0  0  0  0  0  0  0  0  0  0  0  0
    4.6375    1.9753    1.1748 H   0  0  0  0  0  0  0  0  0  0  0  0
    5.1198    0.6117    2.2068 H   0  0  0  0  0  0  0  0  0  0  0  0
    3.8082    1.6869    2.7200 H   0  0  0  0  0  0  0  0  0  0  0  0
    4.4389    0.1971   -0.6821 H   0  0  0  0  0  0  0  0  0  0  0  0
    4.7757   -1.0801    0.4833 H   0  0  0  0  0  0  0  0  0  0  0  0
    3.2938   -1.1663   -0.4611 H   0  0  0  0  0  0  0  0  0  0  0  0
   -1.3951    1.5551   -0.7291 N   0  0  0  0  0  0  0  0  0  0  0  0
   -2.7726    2.0805   -0.6324 C   0  0  2  0  0  0  0  0  0  0  0  0
   -2.9002    3.4517    0.0702 C   0  0  0  0  0  0  0  0  0  0  0  0
   -3.5597    4.3388   -0.4561 O   0  0  0  0  0  0  0  0  0  0  0  0
   -3.7104    1.0494    0.0104 C   0  0  0  0  0  0  0  0  0  0  0  0
   -0.9590    1.5370   -1.6485 H   0  0  0  0  0  0  0  0  0  0  0  0
   -3.1246    2.2350   -1.6576 H   0  0  0  0  0  0  0  0  0  0  0  0
   -3.4839    0.9136    1.0719 H   0  0  0  0  0  0  0  0  0  0  0  0
   -4.7491    1.3835   -0.0752 H   0  0  0  0  0  0  0  0  0  0  0  0
   -3.6149    0.0828   -0.4933 H   0  0  0  0  0  0  0  0  0  0  0  0
   -2.2984    3.6919    1.2888 N   0  0  0  0  0  0  0  0  0  0  0  0
   -2.3897    4.9507    2.0135 C   0  0  0  0  0  0  0  0  0  0  0  0
   -1.7772    2.9108    1.6959 H   0  0  0  0  0  0  0  0  0  0  0  0
   -3.4319    5.1720    2.2655 H   0  0  0  0  0  0  0  0  0  0  0  0
   -1.8133    4.8929    2.9418 H   0  0  0  0  0  0  0  0  0  0  0  0
   -1.9902    5.7710    1.4082 H   0  0  0  0  0  0  0  0  0  0  0  0
  1  2  2  0  0  0  0
  1  3  1  0  0  0  0
  1  7  1  0  0  0  0
  3  4  1  0  0  0  0
  3  5  1  0  0  0  0
  3  6  1  0  0  0  0
  7  8  1  0  0  0  0
  7 12  1  0  0  0  0
  8  9  1  0  0  0  0
  8 11  1  0  0  0  0
  8 13  1  0  0  0  0
  9 10  2  0  0  0  0
  9 17  1  0  0  0  0
 11 14  1  0  0  0  0
 11 15  1  0  0  0  0
 11 16  1  0  0  0  0
 17 18  1  0  0  0  0
 17 25  1  0  0  0  0
 18 19  1  0  0  0  0
 18 21  1  0  0  0  0
 18 26  1  0  0  0  0
 19 20  2  0  0  0  0
 19 36  1  0  0  0  0
 21 22  1  0  0  0  0
 21 27  1  0  0  0  0
 21 28  1  0  0  0  0
 22 23  1  0  0  0  0
 22 24  1  0  0  0  0
 22 29  1  0  0  0  0
 23 30  1  0  0  0  0
 23 31  1  0  0  0  0
 23 32  1  0  0  0  0
 24 33  1  0  0  0  0
 24 34  1  0  0  0  0
 24 35  1  0  0  0  0
 36 37  1  0  0  0  0
 36 41  1  0  0  0  0
 37 38  1  0  0  0  0
 37 40  1  0  0  0  0
 37 42  1  0  0  0  0
 38 39  2  0  0  0  0
 38 46  1  0  0  0  0
 40 43  1  0  0  0  0
 40 44  1  0  0  0  0
 40 45  1  0  0  0  0
 46 47  1  0  0  0  0
 46 48  1  0  0  0  0
 47 49  1  0  0  0  0
 47 50  1  0  0  0  0
 47 51  1  0  0  0  0
M  END
$$$$

  -OEChem-05262216553D

 51 50  0     1  0  0  0  0  0999 V2000
    3.4625   -2.7878   -3.1383 C   0  0  0  0  0  0  0  0  0  0  0  0
    3.2328   -3.5464   -2.2125 O   0  0  0  0  0  0  0  0  0  0  0  0
    4.8604   -2.7499   -3.7274 C   0  0  0  0  0  0  0  0  0  0  0  0
    5.2598   -1.7341   -3.6756 H   0  0  0  0  0  0  0  0  0  0  0  0
    5.5238   -3.4163   -3.1687 H   0  0  0  0  0  0  0  0  0  0  0  0
    4.8354   -3.0723   -4.7712 H   0  0  0  0  0  0  0  0  0  0  0  0
    2.4952   -1.9573   -3.6749 N   0  0  0  0  0  0  0  0  0  0  0  0
    1.1582   -1.6473   -3.1240 C   0  0  2  0  0  0  0  0  0  0  0  0
    1.1733   -0.4228   -2.1746 C   0  0  0  0  0  0  0  0  0  0  0  0
    1.8383    0.5489   -2.5004 O   0  0  0  0  0  0  0  0  0  0  0  0
    0.4115   -2.8597   -2.5380 C   0  0  0  0  0  0  0  0  0  0  0  0
    2.8607   -1.2769   -4.3367 H   0  0  0  0  0  0  0  0  0  0  0  0
    0.5552   -1.3345   -3.9815 H   0  0  0  0  0  0  0  0  0  0  0  0
    0.8150   -3.1529   -1.5658 H   0  0  0  0  0  0  0  0  0  0  0  0
   -0.6479   -2.6224   -2.4042 H   0  0  0  0  0  0  0  0  0  0  0  0
    0.4878   -3.7146   -3.2170 H   0  0  0  0  0  0  0  0  0  0  0  0
    0.0282   -0.0304   -1.5366 N   0  0  0  0  0  0  0  0  0  0  0  0
   -0.1872    0.1503   -0.0751 C   0  0  2  0  0  0  0  0  0  0  0  0
   -1.2642    1.2555    0.1472 C   0  0  0  0  0  0  0  0  0  0  0  0
   -1.6016    1.5747    1.2796 O   0  0  0  0  0  0  0  0  0  0  0  0
    1.0091    0.4441    0.9028 C   0  0  0  0  0  0  0  0  0  0  0  0
    2.1546   -0.5608    1.2238 C   0  0  0  0  0  0  0  0  0  0  0  0
    3.1826    0.1753    2.0986 C   0  0  0  0  0  0  0  0  0  0  0  0
    2.9367   -1.2086    0.0896 C   0  0  0  0  0  0  0  0  0  0  0  0
   -0.1504    0.8636   -1.9840 H   0  0  0  0  0  0  0  0  0  0  0  0
   -0.6360   -0.7820    0.2817 H   0  0  0  0  0  0  0  0  0  0  0  0
    0.5847    0.6920    1.8810 H   0  0  0  0  0  0  0  0  0  0  0  0
    1.4828    1.3553    0.5211 H   0  0  0  0  0  0  0  0  0  0  0  0
    1.7150   -1.3737    1.8124 H   0  0  0  0  0  0  0  0  0  0  0  0
    3.6787    0.9680    1.5293 H   0  0  0  0  0  0  0  0  0  0  0  0
    3.9461   -0.5192    2.4630 H   0  0  0  0  0  0  0  0  0  0  0  0
    2.6956    0.6264    2.9688 H   0  0  0  0  0  0  0  0  0  0  0  0
    3.3378   -0.4563   -0.5946 H   0  0  0  0  0  0  0  0  0  0  0  0
    3.7792   -1.7851    0.4844 H   0  0  0  0  0  0  0  0  0  0  0  0
    2.2965   -1.9091   -0.4409 H   0  0  0  0  0  0  0  0  0  0  0  0
   -1.8646    1.9036   -0.9266 N   0  0  0  0  0  0  0  0  0  0  0  0
   -2.9243    2.9345   -0.8726 C   0  0  2  0  0  0  0  0  0  0  0  0
   -2.4935    4.2888   -0.2622 C   0  0  0  0  0  0  0  0  0  0  0  0
   -2.6576    5.3151   -0.9086 O   0  0  0  0  0  0  0  0  0  0  0  0
   -4.1901    2.4014   -0.1866 C   0  0  0  0  0  0  0  0  0  0  0  0
   -1.6673    1.5148   -1.8412 H   0  0  0  0  0  0  0  0  0  0  0  0
   -3.1984    3.1535   -1.9097 H   0  0  0  0  0  0  0  0  0  0  0  0
   -4.0327    2.2601    0.8866 H   0  0  0  0  0  0  0  0  0  0  0  0
   -5.0126    3.1117   -0.3174 H   0  0  0  0  0  0  0  0  0  0  0  0
   -4.4866    1.4437   -0.6247 H   0  0  0  0  0  0  0  0  0  0  0  0
   -1.9346    4.3661    0.9971 N   0  0  0  0  0  0  0  0  0  0  0  0
   -1.4775    5.6032    1.6138 C   0  0  0  0  0  0  0  0  0  0  0  0
   -1.7761    3.4751    1.4752 H   0  0  0  0  0  0  0  0  0  0  0  0
   -1.1508    5.4134    2.6407 H   0  0  0  0  0  0  0  0  0  0  0  0
   -0.6360    6.0217    1.0523 H   0  0  0  0  0  0  0  0  0  0  0  0
   -2.2862    6.3412    1.6403 H   0  0  0  0  0  0  0  0  0  0  0  0
  1  2  2  0  0  0  0
  1  3  1  0  0  0  0
  1  7  1  0  0  0  0
  3  4  1  0  0  0  0
  3  5  1  0  0  0  0
  3  6  1  0  0  0  0
  7  8  1  0  0  0  0
  7 12  1  0  0  0  0
  8  9  1  0  0  0  0
  8 11  1  0  0  0  0
  8 13  1  0  0  0  0
  9 10  2  0  0  0  0
  9 17  1  0  0  0  0
 11 14  1  0  0  0  0
 11 15  1  0  0  0  0
 11 16  1  0  0  0  0
 17 18  1  0  0  0  0
 17 25  1  0  0  0  0
 18 19  1  0  0  0  0
 18 21  1  0  0  0  0
 18 26  1  0  0  0  0
 19 20  2  0  0  0  0
 19 36  1  0  0  0  0
 21 22  1  0  0  0  0
 21 27  1  0  0  0  0
 21 28  1  0  0  0  0
 22 23  1  0  0  0  0
 22 24  1  0  0  0  0
 22 29  1  0  0  0  0
 23 30  1  0  0  0  0
 23 31  1  0  0  0  0
 23 32  1  0  0  0  0
 24 33  1  0  0  0  0
 24 34  1  0  0  0  0
 24 35  1  0  0  0  0
 36 37  1  0  0  0  0
 36 41  1  0  0  0  0
 37 38  1  0  0  0  0
 37 40  1  0  0  0  0
 37 42  1  0  0  0  0
 38 39  2  0  0  0  0
 38 46  1  0  0  0  0
 40 43  1  0  0  0  0
 40 44  1  0  0  0  0
 40 45  1  0  0  0  0
 46 47  1  0  0  0  0
 46 48  1  0  0  0  0
 47 49  1  0  0  0  0
 47 50  1  0  0  0  0
 47 51  1  0  0  0  0
M  END
$$$$

  -OEChem-05262216553D

 51 50  0     1  0  0  0  0  0999 V2000
    0.8254   -2.7273   -2.7502 C   0  0  0  0  0  0  0  0  0  0  0  0
   -0.1765   -2.0606   -2.5372 O   0  0  0  0  0  0  0  0  0  0  0  0
    0.7778   -4.2336   -2.5750 C   0  0  0  0  0  0  0  0  0  0  0  0
    1.4612   -4.5398   -1.7790 H   0  0  0  0  0  0  0  0  0  0  0  0
   -0.2349   -4.5523   -2.3109 H   0  0  0  0  0  0  0  0  0  0  0  0
    1.0683   -4.7286   -3.5049 H   0  0  0  0  0  0  0  0  0  0  0  0
    2.0212   -2.1195   -3.0879 N   0  0  0  0  0  0  0  0  0  0  0  0
    2.2471   -0.6866   -3.3822 C   0  0  2  0  0  0  0  0  0  0  0  0
    2.0737    0.2736   -2.1825 C   0  0  0  0  0  0  0  0  0  0  0  0
    2.8261    1.2286   -2.0709 O   0  0  0  0  0  0  0  0  0  0  0  0
    1.3858   -0.2309   -4.5686 C   0  0  0  0  0  0  0  0  0  0  0  0
    2.8053   -2.7497   -3.2359 H   0  0  0  0  0  0  0  0  0  0  0  0
    3.2937   -0.5870   -3.6896 H   0  0  0  0  0  0  0  0  0  0  0  0
    0.3242   -0.2145   -4.3053 H   0  0  0  0  0  0  0  0  0  0  0  0
    1.6754    0.7795   -4.8754 H   0  0  0  0  0  0  0  0  0  0  0  0
    1.5232   -0.9028   -5.4211 H   0  0  0  0  0  0  0  0  0  0  0  0
    0.9457    0.2215   -1.3923 N   0  0  0  0  0  0  0  0  0  0  0  0
    0.7878    0.5527    0.0452 C   0  0  2  0  0  0  0  0  0  0  0  0
   -0.6328    1.0885    0.3527 C   0  0  0  0  0  0  0  0  0  0  0  0
   -0.8951    1.6118    1.4283 O   0  0  0  0  0  0  0  0  0  0  0  0
    1.9458    1.1297    0.9179 C   0  0  0  0  0  0  0  0  0  0  0  0
    3.1955    0.2494    1.2374 C   0  0  0  0  0  0  0  0  0  0  0  0
    4.2219    1.1210    1.9731 C   0  0  0  0  0  0  0  0  0  0  0  0
    3.9186   -0.5389    0.1427 C   0  0  0  0  0  0  0  0  0  0  0  0
    0.3392   -0.5396   -1.7073 H   0  0  0  0  0  0  0  0  0  0  0  0
    0.7092   -0.4461    0.4846 H   0  0  0  0  0  0  0  0  0  0  0  0
    1.5337    1.4335    1.8852 H   0  0  0  0  0  0  0  0  0  0  0  0
    2.2878    2.0443    0.4225 H   0  0  0  0  0  0  0  0  0  0  0  0
    2.8408   -0.5068    1.9460 H   0  0  0  0  0  0  0  0  0  0  0  0
    4.6147    1.8953    1.3062 H   0  0  0  0  0  0  0  0  0  0  0  0
    5.0591    0.5129    2.3300 H   0  0  0  0  0  0  0  0  0  0  0  0
    3.7622    1.6082    2.8388 H   0  0  0  0  0  0  0  0  0  0  0  0
    4.4130    0.1290   -0.5659 H   0  0  0  0  0  0  0  0  0  0  0  0
    4.6939   -1.1668    0.5922 H   0  0  0  0  0  0  0  0  0  0  0  0
    3.2267   -1.2029   -0.3791 H   0  0  0  0  0  0  0  0  0  0  0  0
   -1.6449    0.9135   -0.5795 N   0  0  0  0  0  0  0  0  0  0  0  0
   -3.0728    1.2702   -0.4450 C   0  0  2  0  0  0  0  0  0  0  0  0
   -3.3658    2.7868   -0.3758 C   0  0  0  0  0  0  0  0  0  0  0  0
   -4.2531    3.2586   -1.0754 O   0  0  0  0  0  0  0  0  0  0  0  0
   -3.7189    0.5362    0.7379 C   0  0  0  0  0  0  0  0  0  0  0  0
   -1.3407    0.5503   -1.4790 H   0  0  0  0  0  0  0  0  0  0  0  0
   -3.5719    0.9104   -1.3507 H   0  0  0  0  0  0  0  0  0  0  0  0
   -3.3507    0.9209    1.6933 H   0  0  0  0  0  0  0  0  0  0  0  0
   -4.8047    0.6716    0.7129 H   0  0  0  0  0  0  0  0  0  0  0  0
   -3.5023   -0.5349    0.6853 H   0  0  0  0  0  0  0  0  0  0  0  0
   -2.6566    3.6194    0.4662 N   0  0  0  0  0  0  0  0  0  0  0  0
   -2.8844    5.0523    0.5834 C   0  0  0  0  0  0  0  0  0  0  0  0
   -1.9461    3.1706    1.0509 H   0  0  0  0  0  0  0  0  0  0  0  0
   -3.8948    5.2501    0.9554 H   0  0  0  0  0  0  0  0  0  0  0  0
   -2.1653    5.4921    1.2809 H   0  0  0  0  0  0  0  0  0  0  0  0
   -2.7640    5.5390   -0.3900 H   0  0  0  0  0  0  0  0  0  0  0  0
  1  2  2  0  0  0  0
  1  3  1  0  0  0  0
  1  7  1  0  0  0  0
  3  4  1  0  0  0  0
  3  5  1  0  0  0  0
  3  6  1  0  0  0  0
  7  8  1  0  0  0  0
  7 12  1  0  0  0  0
  8  9  1  0  0  0  0
  8 11  1  0  0  0  0
  8 13  1  0  0  0  0
  9 10  2  0  0  0  0
  9 17  1  0  0  0  0
 11 14  1  0  0  0  0
 11 15  1  0  0  0  0
 11 16  1  0  0  0  0
 17 18  1  0  0  0  0
 17 25  1  0  0  0  0
 18 19  1  0  0  0  0
 18 21  1  0  0  0  0
 18 26  1  0  0  0  0
 19 20  2  0  0  0  0
 19 36  1  0  0  0  0
 21 22  1  0  0  0  0
 21 27  1  0  0  0  0
 21 28  1  0  0  0  0
 22 23  1  0  0  0  0
 22 24  1  0  0  0  0
 22 29  1  0  0  0  0
 23 30  1  0  0  0  0
 23 31  1  0  0  0  0
 23 32  1  0  0  0  0
 24 33  1  0  0  0  0
 24 34  1  0  0  0  0
 24 35  1  0  0  0  0
 36 37  1  0  0  0  0
 36 41  1  0  0  0  0
 37 38  1  0  0  0  0
 37 40  1  0  0  0  0
 37 42  1  0  0  0  0
 38 39  2  0  0  0  0
 38 46  1  0  0  0  0
 40 43  1  0  0  0  0
 40 44  1  0  0  0  0
 40 45  1  0  0  0  0
 46 47  1  0  0  0  0
 46 48  1  0  0  0  0
 47 49  1  0  0  0  0
 47 50  1  0  0  0  0
 47 51  1  0  0  0  0
M  END
$$$$

  -OEChem-05262216553D

 51 50  0     1  0  0  0  0  0999 V2000
    0.6833   -2.6044   -2.8447 C   0  0  0  0  0  0  0  0  0  0  0  0
   -0.2769   -1.9063   -2.5492 O   0  0  0  0  0  0  0  0  0  0  0  0
    0.5418   -4.1147   -2.8285 C   0  0  0  0  0  0  0  0  0  0  0  0
    1.1969   -4.5434   -2.0660 H   0  0  0  0  0  0  0  0  0  0  0  0
   -0.4911   -4.3964   -2.6033 H   0  0  0  0  0  0  0  0  0  0  0  0
    0.8115   -4.5265   -3.8042 H   0  0  0  0  0  0  0  0  0  0  0  0
    1.9162   -2.0439   -3.1317 N   0  0  0  0  0  0  0  0  0  0  0  0
    2.2355   -0.6095   -3.3189 C   0  0  2  0  0  0  0  0  0  0  0  0
    2.1183    0.2761   -2.0561 C   0  0  0  0  0  0  0  0  0  0  0  0
    2.8948    1.2053   -1.9040 O   0  0  0  0  0  0  0  0  0  0  0  0
    1.4076   -0.0195   -4.4693 C   0  0  0  0  0  0  0  0  0  0  0  0
    2.6518   -2.7084   -3.3585 H   0  0  0  0  0  0  0  0  0  0  0  0
    3.2876   -0.5538   -3.6183 H   0  0  0  0  0  0  0  0  0  0  0  0
    0.3465    0.0323   -4.2082 H   0  0  0  0  0  0  0  0  0  0  0  0
    1.7518    0.9946   -4.6972 H   0  0  0  0  0  0  0  0  0  0  0  0
    1.5162   -0.6304   -5.3704 H   0  0  0  0  0  0  0  0  0  0  0  0
    0.9952    0.1955   -1.2638 N   0  0  0  0  0  0  0  0  0  0  0  0
    0.7887    0.5133    0.1674 C   0  0  2  0  0  0  0  0  0  0  0  0
   -0.6611    0.9954    0.4223 C   0  0  0  0  0  0  0  0  0  0  0  0
   -0.9243    1.7646    1.3379 O   0  0  0  0  0  0  0  0  0  0  0  0
    1.9002    1.1230    1.0748 C   0  0  0  0  0  0  0  0  0  0  0  0
    3.1675    0.2804    1.4241 C   0  0  0  0  0  0  0  0  0  0  0  0
    4.1455    1.1781    2.1924 C   0  0  0  0  0  0  0  0  0  0  0  0
    3.9416   -0.4853    0.3485 C   0  0  0  0  0  0  0  0  0  0  0  0
    0.3646   -0.5175   -1.6302 H   0  0  0  0  0  0  0  0  0  0  0  0
    0.7345   -0.4887    0.6029 H   0  0  0  0  0  0  0  0  0  0  0  0
    1.4479    1.4059    2.0309 H   0  0  0  0  0  0  0  0  0  0  0  0
    2.2259    2.0513    0.5942 H   0  0  0  0  0  0  0  0  0  0  0  0
    2.8161   -0.4881    2.1207 H   0  0  0  0  0  0  0  0  0  0  0  0
    4.5390    1.9629    1.5382 H   0  0  0  0  0  0  0  0  0  0  0  0
    4.9863    0.5913    2.5751 H   0  0  0  0  0  0  0  0  0  0  0  0
    3.6459    1.6527    3.0427 H   0  0  0  0  0  0  0  0  0  0  0  0
    4.4573    0.1977   -0.3299 H   0  0  0  0  0  0  0  0  0  0  0  0
    4.7047   -1.1118    0.8206 H   0  0  0  0  0  0  0  0  0  0  0  0
    3.2793   -1.1488   -0.2112 H   0  0  0  0  0  0  0  0  0  0  0  0
   -1.6893    0.5207   -0.3823 N   0  0  0  0  0  0  0  0  0  0  0  0
   -3.1320    0.8260   -0.2756 C   0  0  2  0  0  0  0  0  0  0  0  0
   -3.5195    2.2907   -0.5868 C   0  0  0  0  0  0  0  0  0  0  0  0
   -4.4693    2.5156   -1.3262 O   0  0  0  0  0  0  0  0  0  0  0  0
   -3.6927    0.3925    1.0860 C   0  0  0  0  0  0  0  0  0  0  0  0
   -1.4024   -0.0706   -1.1595 H   0  0  0  0  0  0  0  0  0  0  0  0
   -3.6363    0.2180   -1.0337 H   0  0  0  0  0  0  0  0  0  0  0  0
   -3.3174    1.0305    1.8914 H   0  0  0  0  0  0  0  0  0  0  0  0
   -4.7851    0.4616    1.0795 H   0  0  0  0  0  0  0  0  0  0  0  0
   -3.4123   -0.6428    1.3010 H   0  0  0  0  0  0  0  0  0  0  0  0
   -2.8310    3.3514   -0.0335 N   0  0  0  0  0  0  0  0  0  0  0  0
   -3.1651    4.7510   -0.2548 C   0  0  0  0  0  0  0  0  0  0  0  0
   -2.0731    3.1090    0.6107 H   0  0  0  0  0  0  0  0  0  0  0  0
   -2.4560    5.3952    0.2739 H   0  0  0  0  0  0  0  0  0  0  0  0
   -3.1211    4.9912   -1.3221 H   0  0  0  0  0  0  0  0  0  0  0  0
   -4.1726    4.9663    0.1153 H   0  0  0  0  0  0  0  0  0  0  0  0
  1  2  2  0  0  0  0
  1  3  1  0  0  0  0
  1  7  1  0  0  0  0
  3  4  1  0  0  0  0
  3  5  1  0  0  0  0
  3  6  1  0  0  0  0
  7  8  1  0  0  0  0
  7 12  1  0  0  0  0
  8  9  1  0  0  0  0
  8 11  1  0  0  0  0
  8 13  1  0  0  0  0
  9 10  2  0  0  0  0
  9 17  1  0  0  0  0
 11 14  1  0  0  0  0
 11 15  1  0  0  0  0
 11 16  1  0  0  0  0
 17 18  1  0  0  0  0
 17 25  1  0  0  0  0
 18 19  1  0  0  0  0
 18 21  1  0  0  0  0
 18 26  1  0  0  0  0
 19 20  2  0  0  0  0
 19 36  1  0  0  0  0
 21 22  1  0  0  0  0
 21 27  1  0  0  0  0
 21 28  1  0  0  0  0
 22 23  1  0  0  0  0
 22 24  1  0  0  0  0
 22 29  1  0  0  0  0
 23 30  1  0  0  0  0
 23 31  1  0  0  0  0
 23 32  1  0  0  0  0
 24 33  1  0  0  0  0
 24 34  1  0  0  0  0
 24 35  1  0  0  0  0
 36 37  1  0  0  0  0
 36 41  1  0  0  0  0
 37 38  1  0  0  0  0
 37 40  1  0  0  0  0
 37 42  1  0  0  0  0
 38 39  2  0  0  0  0
 38 46  1  0  0  0  0
 40 43  1  0  0  0  0
 40 44  1  0  0  0  0
 40 45  1  0  0  0  0
 46 47  1  0  0  0  0
 46 48  1  0  0  0  0
 47 49  1  0  0  0  0
 47 50  1  0  0  0  0
 47 51  1  0  0  0  0
M  END
$$$$

  -OEChem-05262216553D

 51 50  0     1  0  0  0  0  0999 V2000
    0.7245   -2.5534   -2.8375 C   0  0  0  0  0  0  0  0  0  0  0  0
   -0.2509   -1.9096   -2.4745 O   0  0  0  0  0  0  0  0  0  0  0  0
    0.6476   -4.0681   -2.8624 C   0  0  0  0  0  0  0  0  0  0  0  0
    1.3630   -4.4914   -2.1528 H   0  0  0  0  0  0  0  0  0  0  0  0
   -0.3577   -4.4003   -2.5881 H   0  0  0  0  0  0  0  0  0  0  0  0
    0.8759   -4.4382   -3.8650 H   0  0  0  0  0  0  0  0  0  0  0  0
    1.9165   -1.9323   -3.1712 N   0  0  0  0  0  0  0  0  0  0  0  0
    2.1702   -0.4810   -3.3268 C   0  0  2  0  0  0  0  0  0  0  0  0
    2.0723    0.3581   -2.0318 C   0  0  0  0  0  0  0  0  0  0  0  0
    2.8587    1.2724   -1.8458 O   0  0  0  0  0  0  0  0  0  0  0  0
    1.2657    0.1069   -4.4185 C   0  0  0  0  0  0  0  0  0  0  0  0
    2.6687   -2.5590   -3.4459 H   0  0  0  0  0  0  0  0  0  0  0  0
    3.2043   -0.3719   -3.6708 H   0  0  0  0  0  0  0  0  0  0  0  0
    0.2162    0.1027   -4.1094 H   0  0  0  0  0  0  0  0  0  0  0  0
    1.5546    1.1422   -4.6259 H   0  0  0  0  0  0  0  0  0  0  0  0
    1.3596   -0.4694   -5.3438 H   0  0  0  0  0  0  0  0  0  0  0  0
    0.9538    0.2475   -1.2387 N   0  0  0  0  0  0  0  0  0  0  0  0
    0.7434    0.4946    0.2039 C   0  0  2  0  0  0  0  0  0  0  0  0
   -0.7065    0.9664    0.4567 C   0  0  0  0  0  0  0  0  0  0  0  0
   -0.9535    1.8876    1.2243 O   0  0  0  0  0  0  0  0  0  0  0  0
    1.8371    1.0763    1.1478 C   0  0  0  0  0  0  0  0  0  0  0  0
    3.1170    0.2419    1.4680 C   0  0  0  0  0  0  0  0  0  0  0  0
    4.0707    1.1205    2.2873 C   0  0  0  0  0  0  0  0  0  0  0  0
    3.9163   -0.4494    0.3616 C   0  0  0  0  0  0  0  0  0  0  0  0
    0.3049   -0.4253   -1.6478 H   0  0  0  0  0  0  0  0  0  0  0  0
    0.6947   -0.5256    0.5958 H   0  0  0  0  0  0  0  0  0  0  0  0
    1.3680    1.3068    2.1101 H   0  0  0  0  0  0  0  0  0  0  0  0
    2.1514    2.0305    0.7120 H   0  0  0  0  0  0  0  0  0  0  0  0
    2.7763   -0.5680    2.1216 H   0  0  0  0  0  0  0  0  0  0  0  0
    4.4438    1.9506    1.6787 H   0  0  0  0  0  0  0  0  0  0  0  0
    4.9266    0.5360    2.6385 H   0  0  0  0  0  0  0  0  0  0  0  0
    3.5582    1.5336    3.1617 H   0  0  0  0  0  0  0  0  0  0  0  0
    4.4231    0.2805   -0.2736 H   0  0  0  0  0  0  0  0  0  0  0  0
    4.6887   -1.0838    0.8069 H   0  0  0  0  0  0  0  0  0  0  0  0
    3.2733   -1.0957   -0.2390 H   0  0  0  0  0  0  0  0  0  0  0  0
   -1.7484    0.2974   -0.1731 N   0  0  0  0  0  0  0  0  0  0  0  0
   -3.1980    0.5399   -0.0151 C   0  0  2  0  0  0  0  0  0  0  0  0
   -3.7062    1.8994   -0.5509 C   0  0  0  0  0  0  0  0  0  0  0  0
   -4.7316    1.9335   -1.2193 O   0  0  0  0  0  0  0  0  0  0  0  0
   -3.6355    0.3312    1.4411 C   0  0  0  0  0  0  0  0  0  0  0  0
   -1.4731   -0.4203   -0.8414 H   0  0  0  0  0  0  0  0  0  0  0  0
   -3.7082   -0.2234   -0.6120 H   0  0  0  0  0  0  0  0  0  0  0  0
   -3.2411    1.1178    2.0907 H   0  0  0  0  0  0  0  0  0  0  0  0
   -4.7277    0.3502    1.5096 H   0  0  0  0  0  0  0  0  0  0  0  0
   -3.2820   -0.6364    1.8097 H   0  0  0  0  0  0  0  0  0  0  0  0
   -3.0442    3.0784   -0.2736 N   0  0  0  0  0  0  0  0  0  0  0  0
   -3.5011    4.3935   -0.6991 C   0  0  0  0  0  0  0  0  0  0  0  0
   -2.2246    3.0026    0.3353 H   0  0  0  0  0  0  0  0  0  0  0  0
   -2.7949    5.1617   -0.3699 H   0  0  0  0  0  0  0  0  0  0  0  0
   -3.5763    4.4387   -1.7906 H   0  0  0  0  0  0  0  0  0  0  0  0
   -4.4824    4.6156   -0.2670 H   0  0  0  0  0  0  0  0  0  0  0  0
  1  2  2  0  0  0  0
  1  3  1  0  0  0  0
  1  7  1  0  0  0  0
  3  4  1  0  0  0  0
  3  5  1  0  0  0  0
  3  6  1  0  0  0  0
  7  8  1  0  0  0  0
  7 12  1  0  0  0  0
  8  9  1  0  0  0  0
  8 11  1  0  0  0  0
  8 13  1  0  0  0  0
  9 10  2  0  0  0  0
  9 17  1  0  0  0  0
 11 14  1  0  0  0  0
 11 15  1  0  0  0  0
 11 16  1  0  0  0  0
 17 18  1  0  0  0  0
 17 25  1  0  0  0  0
 18 19  1  0  0  0  0
 18 21  1  0  0  0  0
 18 26  1  0  0  0  0
 19 20  2  0  0  0  0
 19 36  1  0  0  0  0
 21 22  1  0  0  0  0
 21 27  1  0  0  0  0
 21 28  1  0  0  0  0
 22 23  1  0  0  0  0
 22 24  1  0  0  0  0
 22 29  1  0  0  0  0
 23 30  1  0  0  0  0
 23 31  1  0  0  0  0
 23 32  1  0  0  0  0
 24 33  1  0  0  0  0
 24 34  1  0  0  0  0
 24 35  1  0  0  0  0
 36 37  1  0  0  0  0
 36 41  1  0  0  0  0
 37 38  1  0  0  0  0
 37 40  1  0  0  0  0
 37 42  1  0  0  0  0
 38 39  2  0  0  0  0
 38 46  1  0  0  0  0
 40 43  1  0  0  0  0
 40 44  1  0  0  0  0
 40 45  1  0  0  0  0
 46 47  1  0  0  0  0
 46 48  1  0  0  0  0
 47 49  1  0  0  0  0
 47 50  1  0  0  0  0
 47 51  1  0  0  0  0
M  END
$$$$

  -OEChem-05262216553D

 51 50  0     1  0  0  0  0  0999 V2000
    0.7792   -2.5711   -2.8013 C   0  0  0  0  0  0  0  0  0  0  0  0
   -0.2066   -1.9927   -2.3647 O   0  0  0  0  0  0  0  0  0  0  0  0
    0.7901   -4.0872   -2.8523 C   0  0  0  0  0  0  0  0  0  0  0  0
    1.5641   -4.4794   -2.1879 H   0  0  0  0  0  0  0  0  0  0  0  0
   -0.1791   -4.4838   -2.5362 H   0  0  0  0  0  0  0  0  0  0  0  0
    0.9898   -4.4253   -3.8721 H   0  0  0  0  0  0  0  0  0  0  0  0
    1.9062   -1.8752   -3.2050 N   0  0  0  0  0  0  0  0  0  0  0  0
    2.0632   -0.4093   -3.3453 C   0  0  2  0  0  0  0  0  0  0  0  0
    1.9893    0.3980   -2.0286 C   0  0  0  0  0  0  0  0  0  0  0  0
    2.7821    1.3046   -1.8330 O   0  0  0  0  0  0  0  0  0  0  0  0
    1.0639    0.1408   -4.3726 C   0  0  0  0  0  0  0  0  0  0  0  0
    2.6750   -2.4510   -3.5383 H   0  0  0  0  0  0  0  0  0  0  0  0
    3.0671   -0.2313   -3.7452 H   0  0  0  0  0  0  0  0  0  0  0  0
    0.0342    0.0510   -4.0135 H   0  0  0  0  0  0  0  0  0  0  0  0
    1.2675    1.1997   -4.5621 H   0  0  0  0  0  0  0  0  0  0  0  0
    1.1512   -0.4020   -5.3186 H   0  0  0  0  0  0  0  0  0  0  0  0
    0.8825    0.2721   -1.2219 N   0  0  0  0  0  0  0  0  0  0  0  0
    0.6948    0.4807    0.2288 C   0  0  2  0  0  0  0  0  0  0  0  0
   -0.7471    0.9514    0.5056 C   0  0  0  0  0  0  0  0  0  0  0  0
   -0.9730    1.9966    1.1018 O   0  0  0  0  0  0  0  0  0  0  0  0
    1.7841    1.0540    1.1802 C   0  0  0  0  0  0  0  0  0  0  0  0
    3.0828    0.2402    1.4733 C   0  0  0  0  0  0  0  0  0  0  0  0
    4.0211    1.1187    2.3112 C   0  0  0  0  0  0  0  0  0  0  0  0
    3.8915   -0.4034    0.3458 C   0  0  0  0  0  0  0  0  0  0  0  0
    0.2266   -0.3942   -1.6341 H   0  0  0  0  0  0  0  0  0  0  0  0
    0.6594   -0.5484    0.5975 H   0  0  0  0  0  0  0  0  0  0  0  0
    1.3124    1.2544    2.1481 H   0  0  0  0  0  0  0  0  0  0  0  0
    2.0783    2.0238    0.7651 H   0  0  0  0  0  0  0  0  0  0  0  0
    2.7633   -0.5937    2.1071 H   0  0  0  0  0  0  0  0  0  0  0  0
    4.3782    1.9695    1.7216 H   0  0  0  0  0  0  0  0  0  0  0  0
    4.8880    0.5423    2.6490 H   0  0  0  0  0  0  0  0  0  0  0  0
    3.5020    1.5025    3.1952 H   0  0  0  0  0  0  0  0  0  0  0  0
    4.3791    0.3542   -0.2718 H   0  0  0  0  0  0  0  0  0  0  0  0
    4.6799   -1.0318    0.7715 H   0  0  0  0  0  0  0  0  0  0  0  0
    3.2604   -1.0476   -0.2697 H   0  0  0  0  0  0  0  0  0  0  0  0
   -1.7970    0.1247    0.1297 N   0  0  0  0  0  0  0  0  0  0  0  0
   -3.2395    0.3505    0.3581 C   0  0  2  0  0  0  0  0  0  0  0  0
   -3.8445    1.5529   -0.4037 C   0  0  0  0  0  0  0  0  0  0  0  0
   -4.8739    1.3979   -1.0482 O   0  0  0  0  0  0  0  0  0  0  0  0
   -3.5519    0.4418    1.8581 C   0  0  0  0  0  0  0  0  0  0  0  0
   -1.5405   -0.6856   -0.4316 H   0  0  0  0  0  0  0  0  0  0  0  0
   -3.7598   -0.5354   -0.0204 H   0  0  0  0  0  0  0  0  0  0  0  0
   -3.1501    1.3619    2.2924 H   0  0  0  0  0  0  0  0  0  0  0  0
   -4.6349    0.4367    2.0158 H   0  0  0  0  0  0  0  0  0  0  0  0
   -3.1204   -0.4119    2.3890 H   0  0  0  0  0  0  0  0  0  0  0  0
   -3.2607    2.8027   -0.3575 N   0  0  0  0  0  0  0  0  0  0  0  0
   -3.7899    3.9813   -1.0282 C   0  0  0  0  0  0  0  0  0  0  0  0
   -2.4061    2.8814    0.2012 H   0  0  0  0  0  0  0  0  0  0  0  0
   -3.1674    4.8529   -0.8036 H   0  0  0  0  0  0  0  0  0  0  0  0
   -3.8005    3.8321   -2.1128 H   0  0  0  0  0  0  0  0  0  0  0  0
   -4.8103    4.1891   -0.6897 H   0  0  0  0  0  0  0  0  0  0  0  0
  1  2  2  0  0  0  0
  1  3  1  0  0  0  0
  1  7  1  0  0  0  0
  3  4  1  0  0  0  0
  3  5  1  0  0  0  0
  3  6  1  0  0  0  0
  7  8  1  0  0  0  0
  7 12  1  0  0  0  0
  8  9  1  0  0  0  0
  8 11  1  0  0  0  0
  8 13  1  0  0  0  0
  9 10  2  0  0  0  0
  9 17  1  0  0  0  0
 11 14  1  0  0  0  0
 11 15  1  0  0  0  0
 11 16  1  0  0  0  0
 17 18  1  0  0  0  0
 17 25  1  0  0  0  0
 18 19  1  0  0  0  0
 18 21  1  0  0  0  0
 18 26  1  0  0  0  0
 19 20  2  0  0  0  0
 19 36  1  0  0  0  0
 21 22  1  0  0  0  0
 21 27  1  0  0  0  0
 21 28  1  0  0  0  0
 22 23  1  0  0  0  0
 22 24  1  0  0  0  0
 22 29  1  0  0  0  0
 23 30  1  0  0  0  0
 23 31  1  0  0  0  0
 23 32  1  0  0  0  0
 24 33  1  0  0  0  0
 24 34  1  0  0  0  0
 24 35  1  0  0  0  0
 36 37  1  0  0  0  0
 36 41  1  0  0  0  0
 37 38  1  0  0  0  0
 37 40  1  0  0  0  0
 37 42  1  0  0  0  0
 38 39  2  0  0  0  0
 38 46  1  0  0  0  0
 40 43  1  0  0  0  0
 40 44  1  0  0  0  0
 40 45  1  0  0  0  0
 46 47  1  0  0  0  0
 46 48  1  0  0  0  0
 47 49  1  0  0  0  0
 47 50  1  0  0  0  0
 47 51  1  0  0  0  0
M  END
$$$$

  -OEChem-05262216553D

 51 50  0     1  0  0  0  0  0999 V2000
    0.9048   -2.5185   -2.8068 C   0  0  0  0  0  0  0  0  0  0  0  0
   -0.1147   -2.0149   -2.3569 O   0  0  0  0  0  0  0  0  0  0  0  0
    1.0219   -4.0294   -2.8741 C   0  0  0  0  0  0  0  0  0  0  0  0
    1.8376   -4.3708   -2.2318 H   0  0  0  0  0  0  0  0  0  0  0  0
    0.0912   -4.4966   -2.5392 H   0  0  0  0  0  0  0  0  0  0  0  0
    1.2204   -4.3437   -3.9019 H   0  0  0  0  0  0  0  0  0  0  0  0
    1.9727   -1.7388   -3.2156 N   0  0  0  0  0  0  0  0  0  0  0  0
    2.0207   -0.2634   -3.3205 C   0  0  2  0  0  0  0  0  0  0  0  0
    1.9045    0.4967   -1.9792 C   0  0  0  0  0  0  0  0  0  0  0  0
    2.6870    1.3999   -1.7315 O   0  0  0  0  0  0  0  0  0  0  0  0
    0.9741    0.2384   -4.3256 C   0  0  0  0  0  0  0  0  0  0  0  0
    2.7807   -2.2503   -3.5607 H   0  0  0  0  0  0  0  0  0  0  0  0
    3.0045   -0.0019   -3.7242 H   0  0  0  0  0  0  0  0  0  0  0  0
   -0.0429    0.0645   -3.9620 H   0  0  0  0  0  0  0  0  0  0  0  0
    1.0979    1.3139   -4.4896 H   0  0  0  0  0  0  0  0  0  0  0  0
    1.0923   -0.2729   -5.2856 H   0  0  0  0  0  0  0  0  0  0  0  0
    0.7875    0.3295   -1.1935 N   0  0  0  0  0  0  0  0  0  0  0  0
    0.6084    0.4434    0.2689 C   0  0  2  0  0  0  0  0  0  0  0  0
   -0.8227    0.9162    0.5907 C   0  0  0  0  0  0  0  0  0  0  0  0
   -1.0309    2.0439    1.0190 O   0  0  0  0  0  0  0  0  0  0  0  0
    1.7002    0.9519    1.2531 C   0  0  0  0  0  0  0  0  0  0  0  0
    3.0014    0.1243    1.4929 C   0  0  0  0  0  0  0  0  0  0  0  0
    3.9367    0.9515    2.3847 C   0  0  0  0  0  0  0  0  0  0  0  0
    3.8117   -0.4468    0.3279 C   0  0  0  0  0  0  0  0  0  0  0  0
    0.1514   -0.3401   -1.6336 H   0  0  0  0  0  0  0  0  0  0  0  0
    0.5725   -0.6079    0.5684 H   0  0  0  0  0  0  0  0  0  0  0  0
    1.2265    1.0898    2.2311 H   0  0  0  0  0  0  0  0  0  0  0  0
    1.9937    1.9469    0.9014 H   0  0  0  0  0  0  0  0  0  0  0  0
    2.6843   -0.7485    2.0734 H   0  0  0  0  0  0  0  0  0  0  0  0
    4.2910    1.8383    1.8491 H   0  0  0  0  0  0  0  0  0  0  0  0
    4.8056    0.3584    2.6866 H   0  0  0  0  0  0  0  0  0  0  0  0
    3.4158    1.2780    3.2902 H   0  0  0  0  0  0  0  0  0  0  0  0
    4.2967    0.3485   -0.2426 H   0  0  0  0  0  0  0  0  0  0  0  0
    4.6022   -1.0979    0.7140 H   0  0  0  0  0  0  0  0  0  0  0  0
    3.1818   -1.0541   -0.3250 H   0  0  0  0  0  0  0  0  0  0  0  0
   -1.8714    0.0166    0.4638 N   0  0  0  0  0  0  0  0  0  0  0  0
   -3.2992    0.2669    0.7533 C   0  0  2  0  0  0  0  0  0  0  0  0
   -3.9804    1.2958   -0.1790 C   0  0  0  0  0  0  0  0  0  0  0  0
   -5.0277    0.9969   -0.7382 O   0  0  0  0  0  0  0  0  0  0  0  0
   -3.5112    0.6395    2.2274 C   0  0  0  0  0  0  0  0  0  0  0  0
   -1.6419   -0.8597   -0.0001 H   0  0  0  0  0  0  0  0  0  0  0  0
   -3.8244   -0.6797    0.5892 H   0  0  0  0  0  0  0  0  0  0  0  0
   -3.1064    1.6310    2.4502 H   0  0  0  0  0  0  0  0  0  0  0  0
   -4.5807    0.6500    2.4600 H   0  0  0  0  0  0  0  0  0  0  0  0
   -3.0224   -0.0912    2.8785 H   0  0  0  0  0  0  0  0  0  0  0  0
   -3.4328    2.5440   -0.3962 N   0  0  0  0  0  0  0  0  0  0  0  0
   -4.0090    3.5490   -1.2777 C   0  0  0  0  0  0  0  0  0  0  0  0
   -2.5491    2.7400    0.0835 H   0  0  0  0  0  0  0  0  0  0  0  0
   -3.3934    4.4536   -1.2705 H   0  0  0  0  0  0  0  0  0  0  0  0
   -4.0604    3.1725   -2.3045 H   0  0  0  0  0  0  0  0  0  0  0  0
   -5.0185    3.8146   -0.9475 H   0  0  0  0  0  0  0  0  0  0  0  0
  1  2  2  0  0  0  0
  1  3  1  0  0  0  0
  1  7  1  0  0  0  0
  3  4  1  0  0  0  0
  3  5  1  0  0  0  0
  3  6  1  0  0  0  0
  7  8  1  0  0  0  0
  7 12  1  0  0  0  0
  8  9  1  0  0  0  0
  8 11  1  0  0  0  0
  8 13  1  0  0  0  0
  9 10  2  0  0  0  0
  9 17  1  0  0  0  0
 11 14  1  0  0  0  0
 11 15  1  0  0  0  0
 11 16  1  0  0  0  0
 17 18  1  0  0  0  0
 17 25  1  0  0  0  0
 18 19  1  0  0  0  0
 18 21  1  0  0  0  0
 18 26  1  0  0  0  0
 19 20  2  0  0  0  0
 19 36  1  0  0  0  0
 21 22  1  0  0  0  0
 21 27  1  0  0  0  0
 21 28  1  0  0  0  0
 22 23  1  0  0  0  0
 22 24  1  0  0  0  0
 22 29  1  0  0  0  0
 23 30  1  0  0  0  0
 23 31  1  0  0  0  0
 23 32  1  0  0  0  0
 24 33  1  0  0  0  0
 24 34  1  0  0  0  0
 24 35  1  0  0  0  0
 36 37  1  0  0  0  0
 36 41  1  0  0  0  0
 37 38  1  0  0  0  0
 37 40  1  0  0  0  0
 37 42  1  0  0  0  0
 38 39  2  0  0  0  0
 38 46  1  0  0  0  0
 40 43  1  0  0  0  0
 40 44  1  0  0  0  0
 40 45  1  0  0  0  0
 46 47  1  0  0  0  0
 46 48  1  0  0  0  0
 47 49  1  0  0  0  0
 47 50  1  0  0  0  0
 47 51  1  0  0  0  0
M  END
$$$$

  -OEChem-05262216553D

 51 50  0     1  0  0  0  0  0999 V2000
    1.0340   -2.4789   -2.7937 C   0  0  0  0  0  0  0  0  0  0  0  0
   -0.0120   -2.0359   -2.3420 O   0  0  0  0  0  0  0  0  0  0  0  0
    1.2533   -3.9792   -2.8411 C   0  0  0  0  0  0  0  0  0  0  0  0
    2.0423   -4.2633   -2.1404 H   0  0  0  0  0  0  0  0  0  0  0  0
    0.3336   -4.5049   -2.5692 H   0  0  0  0  0  0  0  0  0  0  0  0
    1.5440   -4.2836   -3.8497 H   0  0  0  0  0  0  0  0  0  0  0  0
    2.0435   -1.6356   -3.2212 N   0  0  0  0  0  0  0  0  0  0  0  0
    1.9956   -0.1609   -3.3141 C   0  0  2  0  0  0  0  0  0  0  0  0
    1.8501    0.5701   -1.9599 C   0  0  0  0  0  0  0  0  0  0  0  0
    2.6376    1.4582   -1.6746 O   0  0  0  0  0  0  0  0  0  0  0  0
    0.9080    0.2840   -4.3027 C   0  0  0  0  0  0  0  0  0  0  0  0
    2.8872   -2.0930   -3.5564 H   0  0  0  0  0  0  0  0  0  0  0  0
    2.9558    0.1667   -3.7268 H   0  0  0  0  0  0  0  0  0  0  0  0
   -0.0925    0.0392   -3.9339 H   0  0  0  0  0  0  0  0  0  0  0  0
    0.9598    1.3670   -4.4537 H   0  0  0  0  0  0  0  0  0  0  0  0
    1.0508   -0.2061   -5.2703 H   0  0  0  0  0  0  0  0  0  0  0  0
    0.7229    0.3872   -1.1901 N   0  0  0  0  0  0  0  0  0  0  0  0
    0.5526    0.4595    0.2768 C   0  0  2  0  0  0  0  0  0  0  0  0
   -0.8663    0.9369    0.6450 C   0  0  0  0  0  0  0  0  0  0  0  0
   -1.0885    2.1243    0.8404 O   0  0  0  0  0  0  0  0  0  0  0  0
    1.6553    0.9120    1.2745 C   0  0  0  0  0  0  0  0  0  0  0  0
    2.9378    0.0465    1.4835 C   0  0  0  0  0  0  0  0  0  0  0  0
    3.8942    0.8211    2.3998 C   0  0  0  0  0  0  0  0  0  0  0  0
    3.7321   -0.5052    0.2977 C   0  0  0  0  0  0  0  0  0  0  0  0
    0.1002   -0.2892   -1.6403 H   0  0  0  0  0  0  0  0  0  0  0  0
    0.5097   -0.6025    0.5333 H   0  0  0  0  0  0  0  0  0  0  0  0
    1.1855    1.0301    2.2569 H   0  0  0  0  0  0  0  0  0  0  0  0
    1.9701    1.9111    0.9547 H   0  0  0  0  0  0  0  0  0  0  0  0
    2.6016   -0.8374    2.0361 H   0  0  0  0  0  0  0  0  0  0  0  0
    4.2694    1.7161    1.8928 H   0  0  0  0  0  0  0  0  0  0  0  0
    4.7486    0.1973    2.6804 H   0  0  0  0  0  0  0  0  0  0  0  0
    3.3829    1.1302    3.3167 H   0  0  0  0  0  0  0  0  0  0  0  0
    4.2303    0.2964   -0.2518 H   0  0  0  0  0  0  0  0  0  0  0  0
    4.5110   -1.1831    0.6602 H   0  0  0  0  0  0  0  0  0  0  0  0
    3.0870   -1.0801   -0.3694 H   0  0  0  0  0  0  0  0  0  0  0  0
   -1.8805    0.0060    0.8188 N   0  0  0  0  0  0  0  0  0  0  0  0
   -3.2811    0.2753    1.2098 C   0  0  2  0  0  0  0  0  0  0  0  0
   -4.1102    1.0640    0.1695 C   0  0  0  0  0  0  0  0  0  0  0  0
   -5.2153    0.6491   -0.1553 O   0  0  0  0  0  0  0  0  0  0  0  0
   -3.3556    0.9488    2.5873 C   0  0  0  0  0  0  0  0  0  0  0  0
   -1.6541   -0.9462    0.5436 H   0  0  0  0  0  0  0  0  0  0  0  0
   -3.7725   -0.6980    1.3079 H   0  0  0  0  0  0  0  0  0  0  0  0
   -2.9822    1.9763    2.5489 H   0  0  0  0  0  0  0  0  0  0  0  0
   -4.3936    0.9783    2.9332 H   0  0  0  0  0  0  0  0  0  0  0  0
   -2.7630    0.3897    3.3173 H   0  0  0  0  0  0  0  0  0  0  0  0
   -3.6345    2.2300   -0.3957 N   0  0  0  0  0  0  0  0  0  0  0  0
   -4.3709    3.0329   -1.3609 C   0  0  0  0  0  0  0  0  0  0  0  0
   -2.7161    2.5475   -0.0712 H   0  0  0  0  0  0  0  0  0  0  0  0
   -3.7691    3.8924   -1.6719 H   0  0  0  0  0  0  0  0  0  0  0  0
   -4.6105    2.4393   -2.2491 H   0  0  0  0  0  0  0  0  0  0  0  0
   -5.3026    3.4019   -0.9198 H   0  0  0  0  0  0  0  0  0  0  0  0
  1  2  2  0  0  0  0
  1  3  1  0  0  0  0
  1  7  1  0  0  0  0
  3  4  1  0  0  0  0
  3  5  1  0  0  0  0
  3  6  1  0  0  0  0
  7  8  1  0  0  0  0
  7 12  1  0  0  0  0
  8  9  1  0  0  0  0
  8 11  1  0  0  0  0
  8 13  1  0  0  0  0
  9 10  2  0  0  0  0
  9 17  1  0  0  0  0
 11 14  1  0  0  0  0
 11 15  1  0  0  0  0
 11 16  1  0  0  0  0
 17 18  1  0  0  0  0
 17 25  1  0  0  0  0
 18 19  1  0  0  0  0
 18 21  1  0  0  0  0
 18 26  1  0  0  0  0
 19 20  2  0  0  0  0
 19 36  1  0  0  0  0
 21 22  1  0  0  0  0
 21 27  1  0  0  0  0
 21 28  1  0  0  0  0
 22 23  1  0  0  0  0
 22 24  1  0  0  0  0
 22 29  1  0  0  0  0
 23 30  1  0  0  0  0
 23 31  1  0  0  0  0
 23 32  1  0  0  0  0
 24 33  1  0  0  0  0
 24 34  1  0  0  0  0
 24 35  1  0  0  0  0
 36 37  1  0  0  0  0
 36 41  1  0  0  0  0
 37 38  1  0  0  0  0
 37 40  1  0  0  0  0
 37 42  1  0  0  0  0
 38 39  2  0  0  0  0
 38 46  1  0  0  0  0
 40 43  1  0  0  0  0
 40 44  1  0  0  0  0
 40 45  1  0  0  0  0
 46 47  1  0  0  0  0
 46 48  1  0  0  0  0
 47 49  1  0  0  0  0
 47 50  1  0  0  0  0
 47 51  1  0  0  0  0
M  END
$$$$

  -OEChem-05262216553D

 51 50  0     1  0  0  0  0  0999 V2000
    3.1346   -2.2252   -3.4642 C   0  0  0  0  0  0  0  0  0  0  0  0
    3.0153   -3.1504   -2.6788 O   0  0  0  0  0  0  0  0  0  0  0  0
    4.4665   -2.0214   -4.1621 C   0  0  0  0  0  0  0  0  0  0  0  0
    4.8787   -1.0440   -3.8992 H   0  0  0  0  0  0  0  0  0  0  0  0
    5.1760   -2.7958   -3.8570 H   0  0  0  0  0  0  0  0  0  0  0  0
    4.3332   -2.0742   -5.2453 H   0  0  0  0  0  0  0  0  0  0  0  0
    2.1021   -1.3481   -3.7429 N   0  0  0  0  0  0  0  0  0  0  0  0
    0.8371   -1.1732   -2.9972 C   0  0  2  0  0  0  0  0  0  0  0  0
    0.9580   -0.1256   -1.8626 C   0  0  0  0  0  0  0  0  0  0  0  0
    1.6200    0.8793   -2.0755 O   0  0  0  0  0  0  0  0  0  0  0  0
    0.1812   -2.4865   -2.5341 C   0  0  0  0  0  0  0  0  0  0  0  0
    2.3895   -0.5433   -4.2943 H   0  0  0  0  0  0  0  0  0  0  0  0
    0.1310   -0.7398   -3.7119 H   0  0  0  0  0  0  0  0  0  0  0  0
    0.6974   -2.9098   -1.6687 H   0  0  0  0  0  0  0  0  0  0  0  0
   -0.8609   -2.3092   -2.2521 H   0  0  0  0  0  0  0  0  0  0  0  0
    0.1972   -3.2232   -3.3431 H   0  0  0  0  0  0  0  0  0  0  0  0
   -0.1024    0.0999   -1.0245 N   0  0  0  0  0  0  0  0  0  0  0  0
   -0.1408   -0.0356    0.4493 C   0  0  2  0  0  0  0  0  0  0  0  0
   -1.1798    0.9881    0.9561 C   0  0  0  0  0  0  0  0  0  0  0  0
   -0.9701    2.1858    0.8153 O   0  0  0  0  0  0  0  0  0  0  0  0
    1.1143    0.1084    1.3710 C   0  0  0  0  0  0  0  0  0  0  0  0
    2.3132   -0.8825    1.3728 C   0  0  0  0  0  0  0  0  0  0  0  0
    3.3909   -0.3050    2.3044 C   0  0  0  0  0  0  0  0  0  0  0  0
    3.0039   -1.2142    0.0567 C   0  0  0  0  0  0  0  0  0  0  0  0
   -0.4149    1.0446   -1.2539 H   0  0  0  0  0  0  0  0  0  0  0  0
   -0.5329   -1.0369    0.6490 H   0  0  0  0  0  0  0  0  0  0  0  0
    0.7480    0.1428    2.4031 H   0  0  0  0  0  0  0  0  0  0  0  0
    1.5311    1.0975    1.1481 H   0  0  0  0  0  0  0  0  0  0  0  0
    1.9571   -1.8275    1.7963 H   0  0  0  0  0  0  0  0  0  0  0  0
    3.8003    0.6244    1.8947 H   0  0  0  0  0  0  0  0  0  0  0  0
    4.2117   -1.0181    2.4325 H   0  0  0  0  0  0  0  0  0  0  0  0
    2.9716   -0.0930    3.2930 H   0  0  0  0  0  0  0  0  0  0  0  0
    3.3004   -0.3050   -0.4733 H   0  0  0  0  0  0  0  0  0  0  0  0
    3.9052   -1.8095    0.2342 H   0  0  0  0  0  0  0  0  0  0  0  0
    2.3437   -1.8188   -0.5604 H   0  0  0  0  0  0  0  0  0  0  0  0
   -2.4243    0.5492    1.3804 N   0  0  0  0  0  0  0  0  0  0  0  0
   -3.5914    1.3871    1.7277 C   0  0  2  0  0  0  0  0  0  0  0  0
   -4.2034    2.1526    0.5316 C   0  0  0  0  0  0  0  0  0  0  0  0
   -5.3596    1.9250    0.2015 O   0  0  0  0  0  0  0  0  0  0  0  0
   -3.2752    2.3384    2.8907 C   0  0  0  0  0  0  0  0  0  0  0  0
   -2.5747   -0.4552    1.3465 H   0  0  0  0  0  0  0  0  0  0  0  0
   -4.3744    0.7091    2.0833 H   0  0  0  0  0  0  0  0  0  0  0  0
   -2.5645    3.1143    2.5920 H   0  0  0  0  0  0  0  0  0  0  0  0
   -4.1922    2.8310    3.2293 H   0  0  0  0  0  0  0  0  0  0  0  0
   -2.8505    1.7823    3.7316 H   0  0  0  0  0  0  0  0  0  0  0  0
   -3.4591    3.0625   -0.1924 N   0  0  0  0  0  0  0  0  0  0  0  0
   -3.9475    3.7615   -1.3724 C   0  0  0  0  0  0  0  0  0  0  0  0
   -2.4724    3.1449    0.0688 H   0  0  0  0  0  0  0  0  0  0  0  0
   -3.1746    4.4331   -1.7584 H   0  0  0  0  0  0  0  0  0  0  0  0
   -4.2115    3.0469   -2.1589 H   0  0  0  0  0  0  0  0  0  0  0  0
   -4.8318    4.3580   -1.1247 H   0  0  0  0  0  0  0  0  0  0  0  0
  1  2  2  0  0  0  0
  1  3  1  0  0  0  0
  1  7  1  0  0  0  0
  3  4  1  0  0  0  0
  3  5  1  0  0  0  0
  3  6  1  0  0  0  0
  7  8  1  0  0  0  0
  7 12  1  0  0  0  0
  8  9  1  0  0  0  0
  8 11  1  0  0  0  0
  8 13  1  0  0  0  0
  9 10  2  0  0  0  0
  9 17  1  0  0  0  0
 11 14  1  0  0  0  0
 11 15  1  0  0  0  0
 11 16  1  0  0  0  0
 17 18  1  0  0  0  0
 17 25  1  0  0  0  0
 18 19  1  0  0  0  0
 18 21  1  0  0  0  0
 18 26  1  0  0  0  0
 19 20  2  0  0  0  0
 19 36  1  0  0  0  0
 21 22  1  0  0  0  0
 21 27  1  0  0  0  0
 21 28  1  0  0  0  0
 22 23  1  0  0  0  0
 22 24  1  0  0  0  0
 22 29  1  0  0  0  0
 23 30  1  0  0  0  0
 23 31  1  0  0  0  0
 23 32  1  0  0  0  0
 24 33  1  0  0  0  0
 24 34  1  0  0  0  0
 24 35  1  0  0  0  0
 36 37  1  0  0  0  0
 36 41  1  0  0  0  0
 37 38  1  0  0  0  0
 37 40  1  0  0  0  0
 37 42  1  0  0  0  0
 38 39  2  0  0  0  0
 38 46  1  0  0  0  0
 40 43  1  0  0  0  0
 40 44  1  0  0  0  0
 40 45  1  0  0  0  0
 46 47  1  0  0  0  0
 46 48  1  0  0  0  0
 47 49  1  0  0  0  0
 47 50  1  0  0  0  0
 47 51  1  0  0  0  0
M  END
$$$$

  -OEChem-05262216553D

 51 50  0     1  0  0  0  0  0999 V2000
    3.1008   -2.2740   -3.4550 C   0  0  0  0  0  0  0  0  0  0  0  0
    2.9414   -3.1977   -2.6750 O   0  0  0  0  0  0  0  0  0  0  0  0
    4.4459   -2.1164   -4.1393 C   0  0  0  0  0  0  0  0  0  0  0  0
    4.8787   -1.1440   -3.8911 H   0  0  0  0  0  0  0  0  0  0  0  0
    5.1324   -2.9008   -3.8084 H   0  0  0  0  0  0  0  0  0  0  0  0
    4.3253   -2.1889   -5.2229 H   0  0  0  0  0  0  0  0  0  0  0  0
    2.1041   -1.3580   -3.7394 N   0  0  0  0  0  0  0  0  0  0  0  0
    0.8377   -1.1391   -3.0071 C   0  0  2  0  0  0  0  0  0  0  0  0
    0.9825   -0.0881   -1.8784 C   0  0  0  0  0  0  0  0  0  0  0  0
    1.6749    0.8961   -2.0928 O   0  0  0  0  0  0  0  0  0  0  0  0
    0.1357   -2.4277   -2.5422 C   0  0  0  0  0  0  0  0  0  0  0  0
    2.4276   -0.5605   -4.2813 H   0  0  0  0  0  0  0  0  0  0  0  0
    0.1520   -0.6877   -3.7303 H   0  0  0  0  0  0  0  0  0  0  0  0
    0.6355   -2.8660   -1.6747 H   0  0  0  0  0  0  0  0  0  0  0  0
   -0.9004   -2.2145   -2.2626 H   0  0  0  0  0  0  0  0  0  0  0  0
    0.1275   -3.1657   -3.3501 H   0  0  0  0  0  0  0  0  0  0  0  0
   -0.0687    0.1623   -1.0357 N   0  0  0  0  0  0  0  0  0  0  0  0
   -0.1086    0.0183    0.4369 C   0  0  2  0  0  0  0  0  0  0  0  0
   -1.1145    1.0649    0.9630 C   0  0  0  0  0  0  0  0  0  0  0  0
   -1.0120    2.2319    0.6059 O   0  0  0  0  0  0  0  0  0  0  0  0
    1.1484    0.1291    1.3584 C   0  0  0  0  0  0  0  0  0  0  0  0
    2.3249   -0.8877    1.3526 C   0  0  0  0  0  0  0  0  0  0  0  0
    3.4150   -0.3399    2.2872 C   0  0  0  0  0  0  0  0  0  0  0  0
    3.0080   -1.2227    0.0340 C   0  0  0  0  0  0  0  0  0  0  0  0
   -0.3576    1.1184   -1.2526 H   0  0  0  0  0  0  0  0  0  0  0  0
   -0.5273   -0.9740    0.6273 H   0  0  0  0  0  0  0  0  0  0  0  0
    0.7851    0.1633    2.3917 H   0  0  0  0  0  0  0  0  0  0  0  0
    1.5845    1.1115    1.1419 H   0  0  0  0  0  0  0  0  0  0  0  0
    1.9487   -1.8284    1.7688 H   0  0  0  0  0  0  0  0  0  0  0  0
    3.8482    0.5793    1.8791 H   0  0  0  0  0  0  0  0  0  0  0  0
    4.2177   -1.0735    2.4141 H   0  0  0  0  0  0  0  0  0  0  0  0
    3.0001   -0.1191    3.2757 H   0  0  0  0  0  0  0  0  0  0  0  0
    3.3191   -0.3152   -0.4903 H   0  0  0  0  0  0  0  0  0  0  0  0
    3.8997   -1.8336    0.2066 H   0  0  0  0  0  0  0  0  0  0  0  0
    2.3363   -1.8118   -0.5857 H   0  0  0  0  0  0  0  0  0  0  0  0
   -2.2309    0.6533    1.6740 N   0  0  0  0  0  0  0  0  0  0  0  0
   -3.3474    1.4988    2.1469 C   0  0  2  0  0  0  0  0  0  0  0  0
   -4.2337    2.0763    1.0195 C   0  0  0  0  0  0  0  0  0  0  0  0
   -5.4199    1.7787    0.9763 O   0  0  0  0  0  0  0  0  0  0  0  0
   -2.8497    2.6083    3.0846 C   0  0  0  0  0  0  0  0  0  0  0  0
   -2.3108   -0.3465    1.8370 H   0  0  0  0  0  0  0  0  0  0  0  0
   -4.0019    0.8551    2.7440 H   0  0  0  0  0  0  0  0  0  0  0  0
   -2.2656    3.3580    2.5429 H   0  0  0  0  0  0  0  0  0  0  0  0
   -3.7016    3.1135    3.5507 H   0  0  0  0  0  0  0  0  0  0  0  0
   -2.2236    2.1850    3.8758 H   0  0  0  0  0  0  0  0  0  0  0  0
   -3.7047    2.8950    0.0421 N   0  0  0  0  0  0  0  0  0  0  0  0
   -4.4608    3.3974   -1.0961 C   0  0  0  0  0  0  0  0  0  0  0  0
   -2.6902    3.0285    0.0699 H   0  0  0  0  0  0  0  0  0  0  0  0
   -3.8390    4.0708   -1.6938 H   0  0  0  0  0  0  0  0  0  0  0  0
   -4.7882    2.5691   -1.7325 H   0  0  0  0  0  0  0  0  0  0  0  0
   -5.3417    3.9523   -0.7568 H   0  0  0  0  0  0  0  0  0  0  0  0
  1  2  2  0  0  0  0
  1  3  1  0  0  0  0
  1  7  1  0  0  0  0
  3  4  1  0  0  0  0
  3  5  1  0  0  0  0
  3  6  1  0  0  0  0
  7  8  1  0  0  0  0
  7 12  1  0  0  0  0
  8  9  1  0  0  0  0
  8 11  1  0  0  0  0
  8 13  1  0  0  0  0
  9 10  2  0  0  0  0
  9 17  1  0  0  0  0
 11 14  1  0  0  0  0
 11 15  1  0  0  0  0
 11 16  1  0  0  0  0
 17 18  1  0  0  0  0
 17 25  1  0  0  0  0
 18 19  1  0  0  0  0
 18 21  1  0  0  0  0
 18 26  1  0  0  0  0
 19 20  2  0  0  0  0
 19 36  1  0  0  0  0
 21 22  1  0  0  0  0
 21 27  1  0  0  0  0
 21 28  1  0  0  0  0
 22 23  1  0  0  0  0
 22 24  1  0  0  0  0
 22 29  1  0  0  0  0
 23 30  1  0  0  0  0
 23 31  1  0  0  0  0
 23 32  1  0  0  0  0
 24 33  1  0  0  0  0
 24 34  1  0  0  0  0
 24 35  1  0  0  0  0
 36 37  1  0  0  0  0
 36 41  1  0  0  0  0
 37 38  1  0  0  0  0
 37 40  1  0  0  0  0
 37 42  1  0  0  0  0
 38 39  2  0  0  0  0
 38 46  1  0  0  0  0
 40 43  1  0  0  0  0
 40 44  1  0  0  0  0
 40 45  1  0  0  0  0
 46 47  1  0  0  0  0
 46 48  1  0  0  0  0
 47 49  1  0  0  0  0
 47 50  1  0  0  0  0
 47 51  1  0  0  0  0
M  END
$$$$

  -OEChem-05262216553D

 51 50  0     1  0  0  0  0  0999 V2000
    3.0655   -2.2697   -3.4796 C   0  0  0  0  0  0  0  0  0  0  0  0
    2.8920   -3.1764   -2.6830 O   0  0  0  0  0  0  0  0  0  0  0  0
    4.4079   -2.1507   -4.1765 C   0  0  0  0  0  0  0  0  0  0  0  0
    4.8758   -1.1967   -3.9208 H   0  0  0  0  0  0  0  0  0  0  0  0
    5.0708   -2.9623   -3.8629 H   0  0  0  0  0  0  0  0  0  0  0  0
    4.2731   -2.2055   -5.2595 H   0  0  0  0  0  0  0  0  0  0  0  0
    2.0849   -1.3394   -3.7720 N   0  0  0  0  0  0  0  0  0  0  0  0
    0.8350   -1.0874   -3.0234 C   0  0  2  0  0  0  0  0  0  0  0  0
    1.0321   -0.0898   -1.8552 C   0  0  0  0  0  0  0  0  0  0  0  0
    1.7987    0.8490   -2.0167 O   0  0  0  0  0  0  0  0  0  0  0  0
    0.0845   -2.3627   -2.6003 C   0  0  0  0  0  0  0  0  0  0  0  0
    2.4211   -0.5548   -4.3244 H   0  0  0  0  0  0  0  0  0  0  0  0
    0.1653   -0.5801   -3.7238 H   0  0  0  0  0  0  0  0  0  0  0  0
    0.5631   -2.8439   -1.7434 H   0  0  0  0  0  0  0  0  0  0  0  0
   -0.9445   -2.1199   -2.3188 H   0  0  0  0  0  0  0  0  0  0  0  0
    0.0542   -3.0763   -3.4294 H   0  0  0  0  0  0  0  0  0  0  0  0
   -0.0137    0.1972   -1.0165 N   0  0  0  0  0  0  0  0  0  0  0  0
   -0.0530    0.0973    0.4602 C   0  0  2  0  0  0  0  0  0  0  0  0
   -1.0407    1.1678    0.9745 C   0  0  0  0  0  0  0  0  0  0  0  0
   -1.0964    2.2562    0.4135 O   0  0  0  0  0  0  0  0  0  0  0  0
    1.2124    0.1732    1.3724 C   0  0  0  0  0  0  0  0  0  0  0  0
    2.3338   -0.9051    1.3857 C   0  0  0  0  0  0  0  0  0  0  0  0
    3.4610   -0.3934    2.2960 C   0  0  0  0  0  0  0  0  0  0  0  0
    2.9787   -1.3338    0.0748 C   0  0  0  0  0  0  0  0  0  0  0  0
   -0.3208    1.1406   -1.2649 H   0  0  0  0  0  0  0  0  0  0  0  0
   -0.5012   -0.8785    0.6680 H   0  0  0  0  0  0  0  0  0  0  0  0
    0.8605    0.2552    2.4067 H   0  0  0  0  0  0  0  0  0  0  0  0
    1.6946    1.1260    1.1243 H   0  0  0  0  0  0  0  0  0  0  0  0
    1.9086   -1.8079    1.8373 H   0  0  0  0  0  0  0  0  0  0  0  0
    3.9357    0.4927    1.8621 H   0  0  0  0  0  0  0  0  0  0  0  0
    4.2264   -1.1638    2.4323 H   0  0  0  0  0  0  0  0  0  0  0  0
    3.0692   -0.1299    3.2832 H   0  0  0  0  0  0  0  0  0  0  0  0
    3.3673   -0.4720   -0.4738 H   0  0  0  0  0  0  0  0  0  0  0  0
    3.8138   -2.0159    0.2630 H   0  0  0  0  0  0  0  0  0  0  0  0
    2.2553   -1.8788   -0.5283 H   0  0  0  0  0  0  0  0  0  0  0  0
   -1.9696    0.8417    1.9505 N   0  0  0  0  0  0  0  0  0  0  0  0
   -3.0306    1.7142    2.4964 C   0  0  2  0  0  0  0  0  0  0  0  0
   -4.1586    2.0600    1.4968 C   0  0  0  0  0  0  0  0  0  0  0  0
   -5.3123    1.7519    1.7638 O   0  0  0  0  0  0  0  0  0  0  0  0
   -2.4392    2.9864    3.1211 C   0  0  0  0  0  0  0  0  0  0  0  0
   -1.9223   -0.1070    2.3118 H   0  0  0  0  0  0  0  0  0  0  0  0
   -3.5106    1.1582    3.3085 H   0  0  0  0  0  0  0  0  0  0  0  0
   -2.0244    3.6506    2.3573 H   0  0  0  0  0  0  0  0  0  0  0  0
   -3.2182    3.5347    3.6603 H   0  0  0  0  0  0  0  0  0  0  0  0
   -1.6445    2.7296    3.8279 H   0  0  0  0  0  0  0  0  0  0  0  0
   -3.8871    2.6932    0.3008 N   0  0  0  0  0  0  0  0  0  0  0  0
   -4.8900    2.9926   -0.7113 C   0  0  0  0  0  0  0  0  0  0  0  0
   -2.8979    2.8545    0.0930 H   0  0  0  0  0  0  0  0  0  0  0  0
   -4.4343    3.5418   -1.5409 H   0  0  0  0  0  0  0  0  0  0  0  0
   -5.3265    2.0684   -1.1037 H   0  0  0  0  0  0  0  0  0  0  0  0
   -5.6898    3.6088   -0.2874 H   0  0  0  0  0  0  0  0  0  0  0  0
  1  2  2  0  0  0  0
  1  3  1  0  0  0  0
  1  7  1  0  0  0  0
  3  4  1  0  0  0  0
  3  5  1  0  0  0  0
  3  6  1  0  0  0  0
  7  8  1  0  0  0  0
  7 12  1  0  0  0  0
  8  9  1  0  0  0  0
  8 11  1  0  0  0  0
  8 13  1  0  0  0  0
  9 10  2  0  0  0  0
  9 17  1  0  0  0  0
 11 14  1  0  0  0  0
 11 15  1  0  0  0  0
 11 16  1  0  0  0  0
 17 18  1  0  0  0  0
 17 25  1  0  0  0  0
 18 19  1  0  0  0  0
 18 21  1  0  0  0  0
 18 26  1  0  0  0  0
 19 20  2  0  0  0  0
 19 36  1  0  0  0  0
 21 22  1  0  0  0  0
 21 27  1  0  0  0  0
 21 28  1  0  0  0  0
 22 23  1  0  0  0  0
 22 24  1  0  0  0  0
 22 29  1  0  0  0  0
 23 30  1  0  0  0  0
 23 31  1  0  0  0  0
 23 32  1  0  0  0  0
 24 33  1  0  0  0  0
 24 34  1  0  0  0  0
 24 35  1  0  0  0  0
 36 37  1  0  0  0  0
 36 41  1  0  0  0  0
 37 38  1  0  0  0  0
 37 40  1  0  0  0  0
 37 42  1  0  0  0  0
 38 39  2  0  0  0  0
 38 46  1  0  0  0  0
 40 43  1  0  0  0  0
 40 44  1  0  0  0  0
 40 45  1  0  0  0  0
 46 47  1  0  0  0  0
 46 48  1  0  0  0  0
 47 49  1  0  0  0  0
 47 50  1  0  0  0  0
 47 51  1  0  0  0  0
M  END
$$$$

  -OEChem-05262216553D

 51 50  0     1  0  0  0  0  0999 V2000
    0.7869   -2.2930   -2.8148 C   0  0  0  0  0  0  0  0  0  0  0  0
   -0.2043   -1.7543   -2.3477 O   0  0  0  0  0  0  0  0  0  0  0  0
    0.8536   -3.8066   -2.8914 C   0  0  0  0  0  0  0  0  0  0  0  0
    1.6323   -4.1800   -2.2219 H   0  0  0  0  0  0  0  0  0  0  0  0
   -0.1048   -4.2424   -2.5949 H   0  0  0  0  0  0  0  0  0  0  0  0
    1.0797   -4.1210   -3.9134 H   0  0  0  0  0  0  0  0  0  0  0  0
    1.8703   -1.5456   -3.2373 N   0  0  0  0  0  0  0  0  0  0  0  0
    1.9720   -0.0718   -3.2664 C   0  0  2  0  0  0  0  0  0  0  0  0
    1.9349    0.6046   -1.8766 C   0  0  0  0  0  0  0  0  0  0  0  0
    2.8478    1.3530   -1.5606 O   0  0  0  0  0  0  0  0  0  0  0  0
    0.9177    0.5321   -4.2057 C   0  0  0  0  0  0  0  0  0  0  0  0
    2.6631   -2.0742   -3.5903 H   0  0  0  0  0  0  0  0  0  0  0  0
    2.9516    0.1718   -3.6908 H   0  0  0  0  0  0  0  0  0  0  0  0
   -0.0943    0.3924   -3.8143 H   0  0  0  0  0  0  0  0  0  0  0  0
    1.0920    1.6066   -4.3210 H   0  0  0  0  0  0  0  0  0  0  0  0
    0.9757    0.0650   -5.1931 H   0  0  0  0  0  0  0  0  0  0  0  0
    0.8047    0.5430   -1.0894 N   0  0  0  0  0  0  0  0  0  0  0  0
    0.6645    0.6399    0.3808 C   0  0  2  0  0  0  0  0  0  0  0  0
   -0.6799    1.2605    0.8268 C   0  0  0  0  0  0  0  0  0  0  0  0
   -1.3076    2.0023    0.0818 O   0  0  0  0  0  0  0  0  0  0  0  0
    1.8506    0.9057    1.3529 C   0  0  0  0  0  0  0  0  0  0  0  0
    2.9707   -0.1686    1.5259 C   0  0  0  0  0  0  0  0  0  0  0  0
    4.0728    0.4217    2.4150 C   0  0  0  0  0  0  0  0  0  0  0  0
    3.6215   -0.8439    0.3162 C   0  0  0  0  0  0  0  0  0  0  0  0
    0.0712   -0.0115   -1.5402 H   0  0  0  0  0  0  0  0  0  0  0  0
    0.4745   -0.4124    0.6118 H   0  0  0  0  0  0  0  0  0  0  0  0
    1.4428    1.1035    2.3491 H   0  0  0  0  0  0  0  0  0  0  0  0
    2.3223    1.8363    1.0197 H   0  0  0  0  0  0  0  0  0  0  0  0
    2.5026   -0.9847    2.0864 H   0  0  0  0  0  0  0  0  0  0  0  0
    4.5795    1.2445    1.9002 H   0  0  0  0  0  0  0  0  0  0  0  0
    4.8165   -0.3418    2.6635 H   0  0  0  0  0  0  0  0  0  0  0  0
    3.6513    0.8037    3.3498 H   0  0  0  0  0  0  0  0  0  0  0  0
    4.2433   -0.1408   -0.2423 H   0  0  0  0  0  0  0  0  0  0  0  0
    4.2727   -1.6556    0.6544 H   0  0  0  0  0  0  0  0  0  0  0  0
    2.8668   -1.2853   -0.3379 H   0  0  0  0  0  0  0  0  0  0  0  0
   -1.2419    0.8810    2.0379 N   0  0  0  0  0  0  0  0  0  0  0  0
   -2.5109    1.3607    2.6265 C   0  0  2  0  0  0  0  0  0  0  0  0
   -3.7893    0.9055    1.8844 C   0  0  0  0  0  0  0  0  0  0  0  0
   -4.6803    0.3491    2.5134 O   0  0  0  0  0  0  0  0  0  0  0  0
   -2.4967    2.8851    2.8087 C   0  0  0  0  0  0  0  0  0  0  0  0
   -0.7032    0.2157    2.5841 H   0  0  0  0  0  0  0  0  0  0  0  0
   -2.5776    0.9248    3.6287 H   0  0  0  0  0  0  0  0  0  0  0  0
   -2.5385    3.4016    1.8453 H   0  0  0  0  0  0  0  0  0  0  0  0
   -3.3626    3.1995    3.3998 H   0  0  0  0  0  0  0  0  0  0  0  0
   -1.5882    3.1972    3.3324 H   0  0  0  0  0  0  0  0  0  0  0  0
   -3.9475    1.1127    0.5292 N   0  0  0  0  0  0  0  0  0  0  0  0
   -5.1144    0.6933   -0.2332 C   0  0  0  0  0  0  0  0  0  0  0  0
   -3.1592    1.5529    0.0452 H   0  0  0  0  0  0  0  0  0  0  0  0
   -5.0000    0.9783   -1.2834 H   0  0  0  0  0  0  0  0  0  0  0  0
   -5.2360   -0.3934   -0.1799 H   0  0  0  0  0  0  0  0  0  0  0  0
   -6.0186    1.1706    0.1585 H   0  0  0  0  0  0  0  0  0  0  0  0
  1  2  2  0  0  0  0
  1  3  1  0  0  0  0
  1  7  1  0  0  0  0
  3  4  1  0  0  0  0
  3  5  1  0  0  0  0
  3  6  1  0  0  0  0
  7  8  1  0  0  0  0
  7 12  1  0  0  0  0
  8  9  1  0  0  0  0
  8 11  1  0  0  0  0
  8 13  1  0  0  0  0
  9 10  2  0  0  0  0
  9 17  1  0  0  0  0
 11 14  1  0  0  0  0
 11 15  1  0  0  0  0
 11 16  1  0  0  0  0
 17 18  1  0  0  0  0
 17 25  1  0  0  0  0
 18 19  1  0  0  0  0
 18 21  1  0  0  0  0
 18 26  1  0  0  0  0
 19 20  2  0  0  0  0
 19 36  1  0  0  0  0
 21 22  1  0  0  0  0
 21 27  1  0  0  0  0
 21 28  1  0  0  0  0
 22 23  1  0  0  0  0
 22 24  1  0  0  0  0
 22 29  1  0  0  0  0
 23 30  1  0  0  0  0
 23 31  1  0  0  0  0
 23 32  1  0  0  0  0
 24 33  1  0  0  0  0
 24 34  1  0  0  0  0
 24 35  1  0  0  0  0
 36 37  1  0  0  0  0
 36 41  1  0  0  0  0
 37 38  1  0  0  0  0
 37 40  1  0  0  0  0
 37 42  1  0  0  0  0
 38 39  2  0  0  0  0
 38 46  1  0  0  0  0
 40 43  1  0  0  0  0
 40 44  1  0  0  0  0
 40 45  1  0  0  0  0
 46 47  1  0  0  0  0
 46 48  1  0  0  0  0
 47 49  1  0  0  0  0
 47 50  1  0  0  0  0
 47 51  1  0  0  0  0
M  END
$$$$

  -OEChem-05262216553D

 51 50  0     1  0  0  0  0  0999 V2000
    0.6914   -2.2434   -2.8268 C   0  0  0  0  0  0  0  0  0  0  0  0
   -0.2723   -1.6648   -2.3507 O   0  0  0  0  0  0  0  0  0  0  0  0
    0.6926   -3.7585   -2.9035 C   0  0  0  0  0  0  0  0  0  0  0  0
    1.5487   -4.1607   -2.3560 H   0  0  0  0  0  0  0  0  0  0  0  0
   -0.2251   -4.1595   -2.4637 H   0  0  0  0  0  0  0  0  0  0  0  0
    0.7514   -4.0793   -3.9463 H   0  0  0  0  0  0  0  0  0  0  0  0
    1.8021   -1.5420   -3.2583 N   0  0  0  0  0  0  0  0  0  0  0  0
    1.9726   -0.0743   -3.2715 C   0  0  2  0  0  0  0  0  0  0  0  0
    1.9882    0.5836   -1.8727 C   0  0  0  0  0  0  0  0  0  0  0  0
    2.9372    1.2884   -1.5622 O   0  0  0  0  0  0  0  0  0  0  0  0
    0.9331    0.5920   -4.1848 C   0  0  0  0  0  0  0  0  0  0  0  0
    2.5700   -2.1035   -3.6154 H   0  0  0  0  0  0  0  0  0  0  0  0
    2.9556    0.1298   -3.7088 H   0  0  0  0  0  0  0  0  0  0  0  0
   -0.0789    0.4885   -3.7826 H   0  0  0  0  0  0  0  0  0  0  0  0
    1.1515    1.6603   -4.2817 H   0  0  0  0  0  0  0  0  0  0  0  0
    0.9585    0.1421   -5.1816 H   0  0  0  0  0  0  0  0  0  0  0  0
    0.8655    0.5676   -1.0732 N   0  0  0  0  0  0  0  0  0  0  0  0
    0.7332    0.6806    0.3963 C   0  0  2  0  0  0  0  0  0  0  0  0
   -0.5935    1.3518    0.8288 C   0  0  0  0  0  0  0  0  0  0  0  0
   -1.3367    1.8562   -0.0042 O   0  0  0  0  0  0  0  0  0  0  0  0
    1.9417    0.9027    1.3551 C   0  0  0  0  0  0  0  0  0  0  0  0
    3.0150   -0.2194    1.5240 C   0  0  0  0  0  0  0  0  0  0  0  0
    4.1516    0.3281    2.3963 C   0  0  0  0  0  0  0  0  0  0  0  0
    3.6229   -0.9346    0.3150 C   0  0  0  0  0  0  0  0  0  0  0  0
    0.0945    0.0623   -1.5203 H   0  0  0  0  0  0  0  0  0  0  0  0
    0.5000   -0.3598    0.6413 H   0  0  0  0  0  0  0  0  0  0  0  0
    1.5619    1.1268    2.3557 H   0  0  0  0  0  0  0  0  0  0  0  0
    2.4509    1.8080    1.0076 H   0  0  0  0  0  0  0  0  0  0  0  0
    2.5165   -1.0089    2.0964 H   0  0  0  0  0  0  0  0  0  0  0  0
    4.6919    1.1193    1.8666 H   0  0  0  0  0  0  0  0  0  0  0  0
    4.8603   -0.4669    2.6484 H   0  0  0  0  0  0  0  0  0  0  0  0
    3.7570    0.7408    3.3299 H   0  0  0  0  0  0  0  0  0  0  0  0
    4.2750   -0.2675   -0.2532 H   0  0  0  0  0  0  0  0  0  0  0  0
    4.2358   -1.7750    0.6549 H   0  0  0  0  0  0  0  0  0  0  0  0
    2.8422   -1.3427   -0.3301 H   0  0  0  0  0  0  0  0  0  0  0  0
   -1.0239    1.2611    2.1451 N   0  0  0  0  0  0  0  0  0  0  0  0
   -2.2683    1.8134    2.7232 C   0  0  2  0  0  0  0  0  0  0  0  0
   -3.5704    1.1229    2.2545 C   0  0  0  0  0  0  0  0  0  0  0  0
   -4.3893    0.7599    3.0891 O   0  0  0  0  0  0  0  0  0  0  0  0
   -2.3524    3.3328    2.5198 C   0  0  0  0  0  0  0  0  0  0  0  0
   -0.3977    0.7751    2.7797 H   0  0  0  0  0  0  0  0  0  0  0  0
   -2.2143    1.6441    3.8035 H   0  0  0  0  0  0  0  0  0  0  0  0
   -2.5270    3.5849    1.4698 H   0  0  0  0  0  0  0  0  0  0  0  0
   -3.1783    3.7438    3.1089 H   0  0  0  0  0  0  0  0  0  0  0  0
   -1.4242    3.8125    2.8439 H   0  0  0  0  0  0  0  0  0  0  0  0
   -3.8270    0.8997    0.9170 N   0  0  0  0  0  0  0  0  0  0  0  0
   -5.0315    0.2604    0.4079 C   0  0  0  0  0  0  0  0  0  0  0  0
   -3.1199    1.2408    0.2591 H   0  0  0  0  0  0  0  0  0  0  0  0
   -4.9627    0.1399   -0.6775 H   0  0  0  0  0  0  0  0  0  0  0  0
   -5.1594   -0.7296    0.8579 H   0  0  0  0  0  0  0  0  0  0  0  0
   -5.9125    0.8691    0.6354 H   0  0  0  0  0  0  0  0  0  0  0  0
  1  2  2  0  0  0  0
  1  3  1  0  0  0  0
  1  7  1  0  0  0  0
  3  4  1  0  0  0  0
  3  5  1  0  0  0  0
  3  6  1  0  0  0  0
  7  8  1  0  0  0  0
  7 12  1  0  0  0  0
  8  9  1  0  0  0  0
  8 11  1  0  0  0  0
  8 13  1  0  0  0  0
  9 10  2  0  0  0  0
  9 17  1  0  0  0  0
 11 14  1  0  0  0  0
 11 15  1  0  0  0  0
 11 16  1  0  0  0  0
 17 18  1  0  0  0  0
 17 25  1  0  0  0  0
 18 19  1  0  0  0  0
 18 21  1  0  0  0  0
 18 26  1  0  0  0  0
 19 20  2  0  0  0  0
 19 36  1  0  0  0  0
 21 22  1  0  0  0  0
 21 27  1  0  0  0  0
 21 28  1  0  0  0  0
 22 23  1  0  0  0  0
 22 24  1  0  0  0  0
 22 29  1  0  0  0  0
 23 30  1  0  0  0  0
 23 31  1  0  0  0  0
 23 32  1  0  0  0  0
 24 33  1  0  0  0  0
 24 34  1  0  0  0  0
 24 35  1  0  0  0  0
 36 37  1  0  0  0  0
 36 41  1  0  0  0  0
 37 38  1  0  0  0  0
 37 40  1  0  0  0  0
 37 42  1  0  0  0  0
 38 39  2  0  0  0  0
 38 46  1  0  0  0  0
 40 43  1  0  0  0  0
 40 44  1  0  0  0  0
 40 45  1  0  0  0  0
 46 47  1  0  0  0  0
 46 48  1  0  0  0  0
 47 49  1  0  0  0  0
 47 50  1  0  0  0  0
 47 51  1  0  0  0  0
M  END
$$$$

  -OEChem-05262216553D

 51 50  0     1  0  0  0  0  0999 V2000
    0.3470   -2.2118   -2.6655 C   0  0  0  0  0  0  0  0  0  0  0  0
   -0.5713   -1.5317   -2.2389 O   0  0  0  0  0  0  0  0  0  0  0  0
    0.2355   -3.7245   -2.6335 C   0  0  0  0  0  0  0  0  0  0  0  0
    0.9438   -4.1363   -1.9103 H   0  0  0  0  0  0  0  0  0  0  0  0
   -0.7770   -4.0215   -2.3445 H   0  0  0  0  0  0  0  0  0  0  0  0
    0.4520   -4.1376   -3.6216 H   0  0  0  0  0  0  0  0  0  0  0  0
    1.5046   -1.6249   -3.1420 N   0  0  0  0  0  0  0  0  0  0  0  0
    1.7658   -0.1781   -3.2936 C   0  0  2  0  0  0  0  0  0  0  0  0
    1.8384    0.6097   -1.9654 C   0  0  0  0  0  0  0  0  0  0  0  0
    2.7692    1.3797   -1.7868 O   0  0  0  0  0  0  0  0  0  0  0  0
    0.7617    0.4646   -4.2620 C   0  0  0  0  0  0  0  0  0  0  0  0
    2.2243   -2.2651   -3.4652 H   0  0  0  0  0  0  0  0  0  0  0  0
    2.7556   -0.0800   -3.7519 H   0  0  0  0  0  0  0  0  0  0  0  0
   -0.2483    0.4765   -3.8413 H   0  0  0  0  0  0  0  0  0  0  0  0
    1.0541    1.4985   -4.4712 H   0  0  0  0  0  0  0  0  0  0  0  0
    0.7381   -0.0857   -5.2072 H   0  0  0  0  0  0  0  0  0  0  0  0
    0.7540    0.6942   -1.1234 N   0  0  0  0  0  0  0  0  0  0  0  0
    0.6569    0.7634    0.3526 C   0  0  2  0  0  0  0  0  0  0  0  0
   -0.7514    1.2348    0.8036 C   0  0  0  0  0  0  0  0  0  0  0  0
   -1.6434    1.3740   -0.0250 O   0  0  0  0  0  0  0  0  0  0  0  0
    1.8432    1.1391    1.2994 C   0  0  0  0  0  0  0  0  0  0  0  0
    3.0898    0.2093    1.4597 C   0  0  0  0  0  0  0  0  0  0  0  0
    4.1210    0.9388    2.3317 C   0  0  0  0  0  0  0  0  0  0  0  0
    3.8195   -0.4113    0.2684 C   0  0  0  0  0  0  0  0  0  0  0  0
   -0.0603    0.2269   -1.5369 H   0  0  0  0  0  0  0  0  0  0  0  0
    0.5760   -0.3014    0.5904 H   0  0  0  0  0  0  0  0  0  0  0  0
    1.4568    1.2998    2.3081 H   0  0  0  0  0  0  0  0  0  0  0  0
    2.2046    2.1106    0.9451 H   0  0  0  0  0  0  0  0  0  0  0  0
    2.7264   -0.6481    2.0361 H   0  0  0  0  0  0  0  0  0  0  0  0
    4.5252    1.8068    1.8006 H   0  0  0  0  0  0  0  0  0  0  0  0
    4.9506    0.2714    2.5861 H   0  0  0  0  0  0  0  0  0  0  0  0
    3.6646    1.2833    3.2649 H   0  0  0  0  0  0  0  0  0  0  0  0
    4.5576   -1.1355    0.6268 H   0  0  0  0  0  0  0  0  0  0  0  0
    4.3622    0.3470   -0.3007 H   0  0  0  0  0  0  0  0  0  0  0  0
    3.1260   -0.9536   -0.3765 H   0  0  0  0  0  0  0  0  0  0  0  0
   -1.0671    1.3715    2.1485 N   0  0  0  0  0  0  0  0  0  0  0  0
   -2.3814    1.7169    2.7315 C   0  0  2  0  0  0  0  0  0  0  0  0
   -3.4704    0.6329    2.5555 C   0  0  0  0  0  0  0  0  0  0  0  0
   -4.0362    0.1854    3.5447 O   0  0  0  0  0  0  0  0  0  0  0  0
   -2.8766    3.0808    2.2298 C   0  0  0  0  0  0  0  0  0  0  0  0
   -0.3125    1.1787    2.7996 H   0  0  0  0  0  0  0  0  0  0  0  0
   -2.2304    1.8167    3.8113 H   0  0  0  0  0  0  0  0  0  0  0  0
   -3.1622    3.0381    1.1747 H   0  0  0  0  0  0  0  0  0  0  0  0
   -3.7526    3.3950    2.8057 H   0  0  0  0  0  0  0  0  0  0  0  0
   -2.0946    3.8366    2.3486 H   0  0  0  0  0  0  0  0  0  0  0  0
   -3.8053    0.1458    1.3084 N   0  0  0  0  0  0  0  0  0  0  0  0
   -4.7808   -0.9093    1.0762 C   0  0  0  0  0  0  0  0  0  0  0  0
   -3.2579    0.5081    0.5218 H   0  0  0  0  0  0  0  0  0  0  0  0
   -4.8792   -1.1011    0.0033 H   0  0  0  0  0  0  0  0  0  0  0  0
   -4.4659   -1.8356    1.5675 H   0  0  0  0  0  0  0  0  0  0  0  0
   -5.7612   -0.6169    1.4666 H   0  0  0  0  0  0  0  0  0  0  0  0
  1  2  2  0  0  0  0
  1  3  1  0  0  0  0
  1  7  1  0  0  0  0
  3  4  1  0  0  0  0
  3  5  1  0  0  0  0
  3  6  1  0  0  0  0
  7  8  1  0  0  0  0
  7 12  1  0  0  0  0
  8  9  1  0  0  0  0
  8 11  1  0  0  0  0
  8 13  1  0  0  0  0
  9 10  2  0  0  0  0
  9 17  1  0  0  0  0
 11 14  1  0  0  0  0
 11 15  1  0  0  0  0
 11 16  1  0  0  0  0
 17 18  1  0  0  0  0
 17 25  1  0  0  0  0
 18 19  1  0  0  0  0
 18 21  1  0  0  0  0
 18 26  1  0  0  0  0
 19 20  2  0  0  0  0
 19 36  1  0  0  0  0
 21 22  1  0  0  0  0
 21 27  1  0  0  0  0
 21 28  1  0  0  0  0
 22 23  1  0  0  0  0
 22 24  1  0  0  0  0
 22 29  1  0  0  0  0
 23 30  1  0  0  0  0
 23 31  1  0  0  0  0
 23 32  1  0  0  0  0
 24 33  1  0  0  0  0
 24 34  1  0  0  0  0
 24 35  1  0  0  0  0
 36 37  1  0  0  0  0
 36 41  1  0  0  0  0
 37 38  1  0  0  0  0
 37 40  1  0  0  0  0
 37 42  1  0  0  0  0
 38 39  2  0  0  0  0
 38 46  1  0  0  0  0
 40 43  1  0  0  0  0
 40 44  1  0  0  0  0
 40 45  1  0  0  0  0
 46 47  1  0  0  0  0
 46 48  1  0  0  0  0
 47 49  1  0  0  0  0
 47 50  1  0  0  0  0
 47 51  1  0  0  0  0
M  END
$$$$

  -OEChem-05262216553D

 51 50  0     1  0  0  0  0  0999 V2000
    2.4559   -2.4631   -3.3198 C   0  0  0  0  0  0  0  0  0  0  0  0
    1.7798   -3.0116   -2.4645 O   0  0  0  0  0  0  0  0  0  0  0  0
    3.7522   -3.1065   -3.7747 C   0  0  0  0  0  0  0  0  0  0  0  0
    4.5949   -2.4521   -3.5381 H   0  0  0  0  0  0  0  0  0  0  0  0
    3.8969   -4.0640   -3.2664 H   0  0  0  0  0  0  0  0  0  0  0  0
    3.7256   -3.2811   -4.8530 H   0  0  0  0  0  0  0  0  0  0  0  0
    2.0798   -1.2499   -3.8646 N   0  0  0  0  0  0  0  0  0  0  0  0
    1.0102   -0.3869   -3.3300 C   0  0  2  0  0  0  0  0  0  0  0  0
    1.3458    0.1623   -1.9222 C   0  0  0  0  0  0  0  0  0  0  0  0
    2.4523    0.6480   -1.7412 O   0  0  0  0  0  0  0  0  0  0  0  0
   -0.3613   -1.0822   -3.4019 C   0  0  0  0  0  0  0  0  0  0  0  0
    2.7989   -0.7922   -4.4173 H   0  0  0  0  0  0  0  0  0  0  0  0
    0.9485    0.4886   -3.9834 H   0  0  0  0  0  0  0  0  0  0  0  0
   -0.4600   -1.8476   -2.6263 H   0  0  0  0  0  0  0  0  0  0  0  0
   -1.1662   -0.3532   -3.2675 H   0  0  0  0  0  0  0  0  0  0  0  0
   -0.4927   -1.5590   -4.3782 H   0  0  0  0  0  0  0  0  0  0  0  0
    0.3451    0.5166   -1.0433 N   0  0  0  0  0  0  0  0  0  0  0  0
    0.2992    0.6306    0.4339 C   0  0  2  0  0  0  0  0  0  0  0  0
   -0.9581    1.4392    0.8497 C   0  0  0  0  0  0  0  0  0  0  0  0
   -1.8975    1.5088    0.0619 O   0  0  0  0  0  0  0  0  0  0  0  0
    1.5463    0.7434    1.3726 C   0  0  0  0  0  0  0  0  0  0  0  0
    2.5551   -0.4368    1.5504 C   0  0  0  0  0  0  0  0  0  0  0  0
    3.7284    0.0569    2.4084 C   0  0  0  0  0  0  0  0  0  0  0  0
    3.1173   -1.2224    0.3689 C   0  0  0  0  0  0  0  0  0  0  0  0
   -0.5839    0.4111   -1.4475 H   0  0  0  0  0  0  0  0  0  0  0  0
   -0.0224   -0.3800    0.7050 H   0  0  0  0  0  0  0  0  0  0  0  0
    1.2057    0.9860    2.3813 H   0  0  0  0  0  0  0  0  0  0  0  0
    2.1135    1.6074    1.0103 H   0  0  0  0  0  0  0  0  0  0  0  0
    2.0126   -1.1824    2.1417 H   0  0  0  0  0  0  0  0  0  0  0  0
    4.3144    0.8034    1.8624 H   0  0  0  0  0  0  0  0  0  0  0  0
    4.3884   -0.7756    2.6721 H   0  0  0  0  0  0  0  0  0  0  0  0
    3.3658    0.5092    3.3366 H   0  0  0  0  0  0  0  0  0  0  0  0
    3.6660   -2.0964    0.7331 H   0  0  0  0  0  0  0  0  0  0  0  0
    3.8183   -0.6180   -0.2113 H   0  0  0  0  0  0  0  0  0  0  0  0
    2.3107   -1.5921   -0.2650 H   0  0  0  0  0  0  0  0  0  0  0  0
   -1.1089    1.9670    2.1239 N   0  0  0  0  0  0  0  0  0  0  0  0
   -2.2474    2.7553    2.6429 C   0  0  2  0  0  0  0  0  0  0  0  0
   -3.5584    1.9594    2.8372 C   0  0  0  0  0  0  0  0  0  0  0  0
   -4.1200    1.9845    3.9243 O   0  0  0  0  0  0  0  0  0  0  0  0
   -2.4888    4.0124    1.7952 C   0  0  0  0  0  0  0  0  0  0  0  0
   -0.3119    1.8529    2.7430 H   0  0  0  0  0  0  0  0  0  0  0  0
   -1.9588    3.1016    3.6407 H   0  0  0  0  0  0  0  0  0  0  0  0
   -2.8922    3.7585    0.8105 H   0  0  0  0  0  0  0  0  0  0  0  0
   -3.2066    4.6689    2.2971 H   0  0  0  0  0  0  0  0  0  0  0  0
   -1.5539    4.5637    1.6574 H   0  0  0  0  0  0  0  0  0  0  0  0
   -4.1074    1.2168    1.8116 N   0  0  0  0  0  0  0  0  0  0  0  0
   -5.3246    0.4270    1.9355 C   0  0  0  0  0  0  0  0  0  0  0  0
   -3.5870    1.2113    0.9306 H   0  0  0  0  0  0  0  0  0  0  0  0
   -5.5707   -0.0394    0.9769 H   0  0  0  0  0  0  0  0  0  0  0  0
   -5.1942   -0.3629    2.6825 H   0  0  0  0  0  0  0  0  0  0  0  0
   -6.1644    1.0620    2.2363 H   0  0  0  0  0  0  0  0  0  0  0  0
  1  2  2  0  0  0  0
  1  3  1  0  0  0  0
  1  7  1  0  0  0  0
  3  4  1  0  0  0  0
  3  5  1  0  0  0  0
  3  6  1  0  0  0  0
  7  8  1  0  0  0  0
  7 12  1  0  0  0  0
  8  9  1  0  0  0  0
  8 11  1  0  0  0  0
  8 13  1  0  0  0  0
  9 10  2  0  0  0  0
  9 17  1  0  0  0  0
 11 14  1  0  0  0  0
 11 15  1  0  0  0  0
 11 16  1  0  0  0  0
 17 18  1  0  0  0  0
 17 25  1  0  0  0  0
 18 19  1  0  0  0  0
 18 21  1  0  0  0  0
 18 26  1  0  0  0  0
 19 20  2  0  0  0  0
 19 36  1  0  0  0  0
 21 22  1  0  0  0  0
 21 27  1  0  0  0  0
 21 28  1  0  0  0  0
 22 23  1  0  0  0  0
 22 24  1  0  0  0  0
 22 29  1  0  0  0  0
 23 30  1  0  0  0  0
 23 31  1  0  0  0  0
 23 32  1  0  0  0  0
 24 33  1  0  0  0  0
 24 34  1  0  0  0  0
 24 35  1  0  0  0  0
 36 37  1  0  0  0  0
 36 41  1  0  0  0  0
 37 38  1  0  0  0  0
 37 40  1  0  0  0  0
 37 42  1  0  0  0  0
 38 39  2  0  0  0  0
 38 46  1  0  0  0  0
 40 43  1  0  0  0  0
 40 44  1  0  0  0  0
 40 45  1  0  0  0  0
 46 47  1  0  0  0  0
 46 48  1  0  0  0  0
 47 49  1  0  0  0  0
 47 50  1  0  0  0  0
 47 51  1  0  0  0  0
M  END
$$$$

  -OEChem-05262216553D

 51 50  0     1  0  0  0  0  0999 V2000
    0.6194   -2.3340   -2.5793 C   0  0  0  0  0  0  0  0  0  0  0  0
   -0.3488   -1.6891   -2.2141 O   0  0  0  0  0  0  0  0  0  0  0  0
    0.6172   -3.8436   -2.4303 C   0  0  0  0  0  0  0  0  0  0  0  0
    1.3721   -4.1474   -1.7009 H   0  0  0  0  0  0  0  0  0  0  0  0
   -0.3629   -4.1872   -2.0872 H   0  0  0  0  0  0  0  0  0  0  0  0
    0.8369   -4.3156   -3.3910 H   0  0  0  0  0  0  0  0  0  0  0  0
    1.7389   -1.7023   -3.0868 N   0  0  0  0  0  0  0  0  0  0  0  0
    1.9051   -0.2521   -3.3120 C   0  0  2  0  0  0  0  0  0  0  0  0
    1.9022    0.6006   -2.0224 C   0  0  0  0  0  0  0  0  0  0  0  0
    2.8112    1.3959   -1.8382 O   0  0  0  0  0  0  0  0  0  0  0  0
    0.8798    0.2710   -4.3284 C   0  0  0  0  0  0  0  0  0  0  0  0
    2.5118   -2.3084   -3.3471 H   0  0  0  0  0  0  0  0  0  0  0  0
    2.8945   -0.1110   -3.7599 H   0  0  0  0  0  0  0  0  0  0  0  0
   -0.1365    0.2371   -3.9251 H   0  0  0  0  0  0  0  0  0  0  0  0
    1.1078    1.3096   -4.5883 H   0  0  0  0  0  0  0  0  0  0  0  0
    0.9112   -0.3295   -5.2423 H   0  0  0  0  0  0  0  0  0  0  0  0
    0.7882    0.7102   -1.2224 N   0  0  0  0  0  0  0  0  0  0  0  0
    0.6759    0.7904    0.2513 C   0  0  2  0  0  0  0  0  0  0  0  0
   -0.7323    1.2925    0.6612 C   0  0  0  0  0  0  0  0  0  0  0  0
   -1.6995    0.9831   -0.0240 O   0  0  0  0  0  0  0  0  0  0  0  0
    1.8530    1.1377    1.2201 C   0  0  0  0  0  0  0  0  0  0  0  0
    3.0704    0.1750    1.4050 C   0  0  0  0  0  0  0  0  0  0  0  0
    4.1034    0.8794    2.2957 C   0  0  0  0  0  0  0  0  0  0  0  0
    3.8087   -0.4551    0.2236 C   0  0  0  0  0  0  0  0  0  0  0  0
    0.0060    0.1818   -1.6257 H   0  0  0  0  0  0  0  0  0  0  0  0
    0.5668   -0.2707    0.4963 H   0  0  0  0  0  0  0  0  0  0  0  0
    1.4452    1.2809    2.2238 H   0  0  0  0  0  0  0  0  0  0  0  0
    2.2427    2.1059    0.8876 H   0  0  0  0  0  0  0  0  0  0  0  0
    2.6752   -0.6747    1.9721 H   0  0  0  0  0  0  0  0  0  0  0  0
    4.5435    1.7332    1.7703 H   0  0  0  0  0  0  0  0  0  0  0  0
    4.9077    0.1897    2.5706 H   0  0  0  0  0  0  0  0  0  0  0  0
    3.6372    1.2409    3.2176 H   0  0  0  0  0  0  0  0  0  0  0  0
    4.5403   -1.1807    0.5920 H   0  0  0  0  0  0  0  0  0  0  0  0
    4.3594    0.2980   -0.3446 H   0  0  0  0  0  0  0  0  0  0  0  0
    3.1184   -0.9978   -0.4245 H   0  0  0  0  0  0  0  0  0  0  0  0
   -0.9384    2.0224    1.8233 N   0  0  0  0  0  0  0  0  0  0  0  0
   -2.2119    2.5897    2.3159 C   0  0  2  0  0  0  0  0  0  0  0  0
   -3.2637    1.5504    2.7702 C   0  0  0  0  0  0  0  0  0  0  0  0
   -3.7723    1.6583    3.8788 O   0  0  0  0  0  0  0  0  0  0  0  0
   -2.8140    3.5687    1.2982 C   0  0  0  0  0  0  0  0  0  0  0  0
   -0.0978    2.2697    2.3360 H   0  0  0  0  0  0  0  0  0  0  0  0
   -1.9695    3.1741    3.2095 H   0  0  0  0  0  0  0  0  0  0  0  0
   -3.1676    3.0467    0.4043 H   0  0  0  0  0  0  0  0  0  0  0  0
   -3.6647    4.0945    1.7431 H   0  0  0  0  0  0  0  0  0  0  0  0
   -2.0679    4.3100    0.9967 H   0  0  0  0  0  0  0  0  0  0  0  0
   -3.6445    0.5042    1.9546 N   0  0  0  0  0  0  0  0  0  0  0  0
   -4.6294   -0.5038    2.3199 C   0  0  0  0  0  0  0  0  0  0  0  0
   -3.1824    0.4530    1.0417 H   0  0  0  0  0  0  0  0  0  0  0  0
   -5.5994   -0.0362    2.5175 H   0  0  0  0  0  0  0  0  0  0  0  0
   -4.7511   -1.2236    1.5049 H   0  0  0  0  0  0  0  0  0  0  0  0
   -4.3094   -1.0455    3.2159 H   0  0  0  0  0  0  0  0  0  0  0  0
  1  2  2  0  0  0  0
  1  3  1  0  0  0  0
  1  7  1  0  0  0  0
  3  4  1  0  0  0  0
  3  5  1  0  0  0  0
  3  6  1  0  0  0  0
  7  8  1  0  0  0  0
  7 12  1  0  0  0  0
  8  9  1  0  0  0  0
  8 11  1  0  0  0  0
  8 13  1  0  0  0  0
  9 10  2  0  0  0  0
  9 17  1  0  0  0  0
 11 14  1  0  0  0  0
 11 15  1  0  0  0  0
 11 16  1  0  0  0  0
 17 18  1  0  0  0  0
 17 25  1  0  0  0  0
 18 19  1  0  0  0  0
 18 21  1  0  0  0  0
 18 26  1  0  0  0  0
 19 20  2  0  0  0  0
 19 36  1  0  0  0  0
 21 22  1  0  0  0  0
 21 27  1  0  0  0  0
 21 28  1  0  0  0  0
 22 23  1  0  0  0  0
 22 24  1  0  0  0  0
 22 29  1  0  0  0  0
 23 30  1  0  0  0  0
 23 31  1  0  0  0  0
 23 32  1  0  0  0  0
 24 33  1  0  0  0  0
 24 34  1  0  0  0  0
 24 35  1  0  0  0  0
 36 37  1  0  0  0  0
 36 41  1  0  0  0  0
 37 38  1  0  0  0  0
 37 40  1  0  0  0  0
 37 42  1  0  0  0  0
 38 39  2  0  0  0  0
 38 46  1  0  0  0  0
 40 43  1  0  0  0  0
 40 44  1  0  0  0  0
 40 45  1  0  0  0  0
 46 47  1  0  0  0  0
 46 48  1  0  0  0  0
 47 49  1  0  0  0  0
 47 50  1  0  0  0  0
 47 51  1  0  0  0  0
M  END
$$$$

  -OEChem-05262216553D

 51 50  0     1  0  0  0  0  0999 V2000
    2.6066   -2.5371   -3.2781 C   0  0  0  0  0  0  0  0  0  0  0  0
    1.9582   -3.1194   -2.4241 O   0  0  0  0  0  0  0  0  0  0  0  0
    3.9572   -3.0892   -3.6939 C   0  0  0  0  0  0  0  0  0  0  0  0
    4.7463   -2.3830   -3.4235 H   0  0  0  0  0  0  0  0  0  0  0  0
    4.1483   -4.0402   -3.1887 H   0  0  0  0  0  0  0  0  0  0  0  0
    3.9782   -3.2544   -4.7737 H   0  0  0  0  0  0  0  0  0  0  0  0
    2.1516   -1.3660   -3.8551 N   0  0  0  0  0  0  0  0  0  0  0  0
    1.0270   -0.5581   -3.3457 C   0  0  2  0  0  0  0  0  0  0  0  0
    1.3428    0.0883   -1.9754 C   0  0  0  0  0  0  0  0  0  0  0  0
    2.4370    0.6090   -1.8153 O   0  0  0  0  0  0  0  0  0  0  0  0
   -0.2942   -1.3485   -3.3524 C   0  0  0  0  0  0  0  0  0  0  0  0
    2.8467   -0.8725   -4.4081 H   0  0  0  0  0  0  0  0  0  0  0  0
    0.8912    0.2741   -4.0431 H   0  0  0  0  0  0  0  0  0  0  0  0
   -0.3287   -2.0739   -2.5341 H   0  0  0  0  0  0  0  0  0  0  0  0
   -1.1456   -0.6702   -3.2418 H   0  0  0  0  0  0  0  0  0  0  0  0
   -0.4075   -1.8870   -4.2984 H   0  0  0  0  0  0  0  0  0  0  0  0
    0.3318    0.4930   -1.1317 N   0  0  0  0  0  0  0  0  0  0  0  0
    0.2801    0.6334    0.3417 C   0  0  2  0  0  0  0  0  0  0  0  0
   -0.9514    1.4869    0.7191 C   0  0  0  0  0  0  0  0  0  0  0  0
   -2.0176    1.2437    0.1631 O   0  0  0  0  0  0  0  0  0  0  0  0
    1.5080    0.7536    1.3009 C   0  0  0  0  0  0  0  0  0  0  0  0
    2.5052   -0.4290    1.5178 C   0  0  0  0  0  0  0  0  0  0  0  0
    3.6634    0.0732    2.3905 C   0  0  0  0  0  0  0  0  0  0  0  0
    3.0933   -1.2216    0.3542 C   0  0  0  0  0  0  0  0  0  0  0  0
   -0.5896    0.3102   -1.5255 H   0  0  0  0  0  0  0  0  0  0  0  0
   -0.0648   -0.3642    0.6332 H   0  0  0  0  0  0  0  0  0  0  0  0
    1.1346    1.0083    2.2976 H   0  0  0  0  0  0  0  0  0  0  0  0
    2.0882    1.6102    0.9413 H   0  0  0  0  0  0  0  0  0  0  0  0
    1.9488   -1.1675    2.1051 H   0  0  0  0  0  0  0  0  0  0  0  0
    4.2643    0.8069    1.8435 H   0  0  0  0  0  0  0  0  0  0  0  0
    4.3126   -0.7585    2.6824 H   0  0  0  0  0  0  0  0  0  0  0  0
    3.2844    0.5437    3.3029 H   0  0  0  0  0  0  0  0  0  0  0  0
    3.6559   -2.0788    0.7365 H   0  0  0  0  0  0  0  0  0  0  0  0
    3.7867   -0.6129   -0.2304 H   0  0  0  0  0  0  0  0  0  0  0  0
    2.2990   -1.6170   -0.2793 H   0  0  0  0  0  0  0  0  0  0  0  0
   -0.8740    2.5080    1.6543 N   0  0  0  0  0  0  0  0  0  0  0  0
   -1.9400    3.4596    2.0355 C   0  0  2  0  0  0  0  0  0  0  0  0
   -3.1323    2.8403    2.8009 C   0  0  0  0  0  0  0  0  0  0  0  0
   -3.5213    3.3688    3.8340 O   0  0  0  0  0  0  0  0  0  0  0  0
   -2.4296    4.2574    0.8191 C   0  0  0  0  0  0  0  0  0  0  0  0
    0.0521    2.6765    2.0377 H   0  0  0  0  0  0  0  0  0  0  0  0
   -1.4867    4.1798    2.7246 H   0  0  0  0  0  0  0  0  0  0  0  0
   -2.9978    3.6242    0.1316 H   0  0  0  0  0  0  0  0  0  0  0  0
   -3.0809    5.0744    1.1449 H   0  0  0  0  0  0  0  0  0  0  0  0
   -1.5807    4.6864    0.2784 H   0  0  0  0  0  0  0  0  0  0  0  0
   -3.7760    1.7101    2.3388 N   0  0  0  0  0  0  0  0  0  0  0  0
   -4.9270    1.1014    2.9906 C   0  0  0  0  0  0  0  0  0  0  0  0
   -3.4323    1.3237    1.4557 H   0  0  0  0  0  0  0  0  0  0  0  0
   -5.2599    0.2256    2.4253 H   0  0  0  0  0  0  0  0  0  0  0  0
   -4.6682    0.7809    4.0052 H   0  0  0  0  0  0  0  0  0  0  0  0
   -5.7562    1.8143    3.0464 H   0  0  0  0  0  0  0  0  0  0  0  0
  1  2  2  0  0  0  0
  1  3  1  0  0  0  0
  1  7  1  0  0  0  0
  3  4  1  0  0  0  0
  3  5  1  0  0  0  0
  3  6  1  0  0  0  0
  7  8  1  0  0  0  0
  7 12  1  0  0  0  0
  8  9  1  0  0  0  0
  8 11  1  0  0  0  0
  8 13  1  0  0  0  0
  9 10  2  0  0  0  0
  9 17  1  0  0  0  0
 11 14  1  0  0  0  0
 11 15  1  0  0  0  0
 11 16  1  0  0  0  0
 17 18  1  0  0  0  0
 17 25  1  0  0  0  0
 18 19  1  0  0  0  0
 18 21  1  0  0  0  0
 18 26  1  0  0  0  0
 19 20  2  0  0  0  0
 19 36  1  0  0  0  0
 21 22  1  0  0  0  0
 21 27  1  0  0  0  0
 21 28  1  0  0  0  0
 22 23  1  0  0  0  0
 22 24  1  0  0  0  0
 22 29  1  0  0  0  0
 23 30  1  0  0  0  0
 23 31  1  0  0  0  0
 23 32  1  0  0  0  0
 24 33  1  0  0  0  0
 24 34  1  0  0  0  0
 24 35  1  0  0  0  0
 36 37  1  0  0  0  0
 36 41  1  0  0  0  0
 37 38  1  0  0  0  0
 37 40  1  0  0  0  0
 37 42  1  0  0  0  0
 38 39  2  0  0  0  0
 38 46  1  0  0  0  0
 40 43  1  0  0  0  0
 40 44  1  0  0  0  0
 40 45  1  0  0  0  0
 46 47  1  0  0  0  0
 46 48  1  0  0  0  0
 47 49  1  0  0  0  0
 47 50  1  0  0  0  0
 47 51  1  0  0  0  0
M  END
$$$$

  -OEChem-05262216553D

 51 50  0     1  0  0  0  0  0999 V2000
    2.5089   -2.6412   -3.1814 C   0  0  0  0  0  0  0  0  0  0  0  0
    1.8140   -3.1042   -2.2915 O   0  0  0  0  0  0  0  0  0  0  0  0
    3.7961   -3.3441   -3.5688 C   0  0  0  0  0  0  0  0  0  0  0  0
    4.6526   -2.7084   -3.3309 H   0  0  0  0  0  0  0  0  0  0  0  0
    3.8925   -4.2849   -3.0197 H   0  0  0  0  0  0  0  0  0  0  0  0
    3.7972   -3.5611   -4.6396 H   0  0  0  0  0  0  0  0  0  0  0  0
    2.1607   -1.4691   -3.8259 N   0  0  0  0  0  0  0  0  0  0  0  0
    1.0861   -0.5573   -3.3912 C   0  0  2  0  0  0  0  0  0  0  0  0
    1.3920    0.1084   -2.0272 C   0  0  0  0  0  0  0  0  0  0  0  0
    2.4743    0.6555   -1.8805 O   0  0  0  0  0  0  0  0  0  0  0  0
   -0.2895   -1.2480   -3.4402 C   0  0  0  0  0  0  0  0  0  0  0  0
    2.8881   -1.0715   -4.4136 H   0  0  0  0  0  0  0  0  0  0  0  0
    1.0470    0.2605   -4.1172 H   0  0  0  0  0  0  0  0  0  0  0  0
   -0.4145   -1.9464   -2.6072 H   0  0  0  0  0  0  0  0  0  0  0  0
   -1.0912   -0.5053   -3.3874 H   0  0  0  0  0  0  0  0  0  0  0  0
   -0.4004   -1.8031   -4.3768 H   0  0  0  0  0  0  0  0  0  0  0  0
    0.3753    0.4941   -1.1817 N   0  0  0  0  0  0  0  0  0  0  0  0
    0.3110    0.6129    0.2927 C   0  0  2  0  0  0  0  0  0  0  0  0
   -0.9300    1.4522    0.6581 C   0  0  0  0  0  0  0  0  0  0  0  0
   -2.0260    1.0840    0.2503 O   0  0  0  0  0  0  0  0  0  0  0  0
    1.5126    0.7911    1.2744 C   0  0  0  0  0  0  0  0  0  0  0  0
    2.5814   -0.3226    1.5047 C   0  0  0  0  0  0  0  0  0  0  0  0
    3.6808    0.2551    2.4076 C   0  0  0  0  0  0  0  0  0  0  0  0
    3.2603   -1.0399    0.3425 C   0  0  0  0  0  0  0  0  0  0  0  0
   -0.5373    0.2731   -1.5755 H   0  0  0  0  0  0  0  0  0  0  0  0
   -0.0069   -0.3955    0.5782 H   0  0  0  0  0  0  0  0  0  0  0  0
    1.0995    1.0158    2.2636 H   0  0  0  0  0  0  0  0  0  0  0  0
    2.0464    1.6844    0.9329 H   0  0  0  0  0  0  0  0  0  0  0  0
    2.0671   -1.1099    2.0667 H   0  0  0  0  0  0  0  0  0  0  0  0
    4.2336    1.0435    1.8864 H   0  0  0  0  0  0  0  0  0  0  0  0
    4.3878   -0.5274    2.7012 H   0  0  0  0  0  0  0  0  0  0  0  0
    3.2468    0.6780    3.3191 H   0  0  0  0  0  0  0  0  0  0  0  0
    3.8889   -1.8512    0.7222 H   0  0  0  0  0  0  0  0  0  0  0  0
    3.9074   -0.3594   -0.2160 H   0  0  0  0  0  0  0  0  0  0  0  0
    2.5175   -1.4912   -0.3149 H   0  0  0  0  0  0  0  0  0  0  0  0
   -0.8069    2.6413    1.3595 N   0  0  0  0  0  0  0  0  0  0  0  0
   -1.8705    3.6245    1.6553 C   0  0  2  0  0  0  0  0  0  0  0  0
   -2.9692    3.1361    2.6277 C   0  0  0  0  0  0  0  0  0  0  0  0
   -3.2852    3.8403    3.5776 O   0  0  0  0  0  0  0  0  0  0  0  0
   -2.4937    4.1680    0.3626 C   0  0  0  0  0  0  0  0  0  0  0  0
    0.1458    2.9072    1.5944 H   0  0  0  0  0  0  0  0  0  0  0  0
   -1.3862    4.4700    2.1549 H   0  0  0  0  0  0  0  0  0  0  0  0
   -3.0905    3.4031   -0.1425 H   0  0  0  0  0  0  0  0  0  0  0  0
   -3.1487    5.0146    0.5915 H   0  0  0  0  0  0  0  0  0  0  0  0
   -1.7124    4.5100   -0.3226 H   0  0  0  0  0  0  0  0  0  0  0  0
   -3.6155    1.9313    2.4380 N   0  0  0  0  0  0  0  0  0  0  0  0
   -4.6872    1.4365    3.2902 C   0  0  0  0  0  0  0  0  0  0  0  0
   -3.3392    1.3954    1.6110 H   0  0  0  0  0  0  0  0  0  0  0  0
   -4.9939    0.4371    2.9674 H   0  0  0  0  0  0  0  0  0  0  0  0
   -4.3523    1.3763    4.3309 H   0  0  0  0  0  0  0  0  0  0  0  0
   -5.5555    2.1012    3.2368 H   0  0  0  0  0  0  0  0  0  0  0  0
  1  2  2  0  0  0  0
  1  3  1  0  0  0  0
  1  7  1  0  0  0  0
  3  4  1  0  0  0  0
  3  5  1  0  0  0  0
  3  6  1  0  0  0  0
  7  8  1  0  0  0  0
  7 12  1  0  0  0  0
  8  9  1  0  0  0  0
  8 11  1  0  0  0  0
  8 13  1  0  0  0  0
  9 10  2  0  0  0  0
  9 17  1  0  0  0  0
 11 14  1  0  0  0  0
 11 15  1  0  0  0  0
 11 16  1  0  0  0  0
 17 18  1  0  0  0  0
 17 25  1  0  0  0  0
 18 19  1  0  0  0  0
 18 21  1  0  0  0  0
 18 26  1  0  0  0  0
 19 20  2  0  0  0  0
 19 36  1  0  0  0  0
 21 22  1  0  0  0  0
 21 27  1  0  0  0  0
 21 28  1  0  0  0  0
 22 23  1  0  0  0  0
 22 24  1  0  0  0  0
 22 29  1  0  0  0  0
 23 30  1  0  0  0  0
 23 31  1  0  0  0  0
 23 32  1  0  0  0  0
 24 33  1  0  0  0  0
 24 34  1  0  0  0  0
 24 35  1  0  0  0  0
 36 37  1  0  0  0  0
 36 41  1  0  0  0  0
 37 38  1  0  0  0  0
 37 40  1  0  0  0  0
 37 42  1  0  0  0  0
 38 39  2  0  0  0  0
 38 46  1  0  0  0  0
 40 43  1  0  0  0  0
 40 44  1  0  0  0  0
 40 45  1  0  0  0  0
 46 47  1  0  0  0  0
 46 48  1  0  0  0  0
 47 49  1  0  0  0  0
 47 50  1  0  0  0  0
 47 51  1  0  0  0  0
M  END
$$$$

  -OEChem-05262216553D

 51 50  0     1  0  0  0  0  0999 V2000
    2.5010   -2.7069   -3.0989 C   0  0  0  0  0  0  0  0  0  0  0  0
    1.7783   -3.1114   -2.2026 O   0  0  0  0  0  0  0  0  0  0  0  0
    3.7822   -3.4522   -3.4226 C   0  0  0  0  0  0  0  0  0  0  0  0
    4.6458   -2.8176   -3.2079 H   0  0  0  0  0  0  0  0  0  0  0  0
    3.8535   -4.3602   -2.8171 H   0  0  0  0  0  0  0  0  0  0  0  0
    3.7966   -3.7320   -4.4788 H   0  0  0  0  0  0  0  0  0  0  0  0
    2.1901   -1.5598   -3.8047 N   0  0  0  0  0  0  0  0  0  0  0  0
    1.1256   -0.6085   -3.4362 C   0  0  2  0  0  0  0  0  0  0  0  0
    1.4081    0.0978   -2.0876 C   0  0  0  0  0  0  0  0  0  0  0  0
    2.4772    0.6720   -1.9515 O   0  0  0  0  0  0  0  0  0  0  0  0
   -0.2634   -1.2704   -3.5047 C   0  0  0  0  0  0  0  0  0  0  0  0
    2.9327   -1.2084   -4.4025 H   0  0  0  0  0  0  0  0  0  0  0  0
    1.1275    0.1838   -4.1911 H   0  0  0  0  0  0  0  0  0  0  0  0
   -0.4212   -1.9566   -2.6671 H   0  0  0  0  0  0  0  0  0  0  0  0
   -1.0504   -0.5105   -3.4771 H   0  0  0  0  0  0  0  0  0  0  0  0
   -0.3671   -1.8339   -4.4372 H   0  0  0  0  0  0  0  0  0  0  0  0
    0.3803    0.4867   -1.2573 N   0  0  0  0  0  0  0  0  0  0  0  0
    0.2998    0.5965    0.2173 C   0  0  2  0  0  0  0  0  0  0  0  0
   -0.9382    1.4413    0.5695 C   0  0  0  0  0  0  0  0  0  0  0  0
   -2.0515    0.9766    0.3568 O   0  0  0  0  0  0  0  0  0  0  0  0
    1.4796    0.8104    1.2176 C   0  0  0  0  0  0  0  0  0  0  0  0
    2.5882   -0.2587    1.4670 C   0  0  0  0  0  0  0  0  0  0  0  0
    3.6448    0.3652    2.3907 C   0  0  0  0  0  0  0  0  0  0  0  0
    3.3264   -0.9306    0.3147 C   0  0  0  0  0  0  0  0  0  0  0  0
   -0.5207    0.2307   -1.6557 H   0  0  0  0  0  0  0  0  0  0  0  0
   -0.0094   -0.4154    0.5006 H   0  0  0  0  0  0  0  0  0  0  0  0
    1.0380    1.0206    2.1982 H   0  0  0  0  0  0  0  0  0  0  0  0
    1.9867    1.7232    0.8878 H   0  0  0  0  0  0  0  0  0  0  0  0
    2.0991   -1.0721    2.0137 H   0  0  0  0  0  0  0  0  0  0  0  0
    4.1687    1.1806    1.8812 H   0  0  0  0  0  0  0  0  0  0  0  0
    4.3823   -0.3850    2.6933 H   0  0  0  0  0  0  0  0  0  0  0  0
    3.1776    0.7640    3.2967 H   0  0  0  0  0  0  0  0  0  0  0  0
    3.9956   -1.7053    0.7016 H   0  0  0  0  0  0  0  0  0  0  0  0
    3.9402   -0.2101   -0.2312 H   0  0  0  0  0  0  0  0  0  0  0  0
    2.6217   -1.4217   -0.3554 H   0  0  0  0  0  0  0  0  0  0  0  0
   -0.7913    2.7516    0.9950 N   0  0  0  0  0  0  0  0  0  0  0  0
   -1.8581    3.7513    1.2115 C   0  0  2  0  0  0  0  0  0  0  0  0
   -2.8278    3.4423    2.3764 C   0  0  0  0  0  0  0  0  0  0  0  0
   -3.0917    4.3218    3.1856 O   0  0  0  0  0  0  0  0  0  0  0  0
   -2.6322    4.0159   -0.0870 C   0  0  0  0  0  0  0  0  0  0  0  0
    0.1698    3.0774    1.0614 H   0  0  0  0  0  0  0  0  0  0  0  0
   -1.3601    4.6884    1.4811 H   0  0  0  0  0  0  0  0  0  0  0  0
   -3.2508    3.1568   -0.3624 H   0  0  0  0  0  0  0  0  0  0  0  0
   -3.2895    4.8820    0.0396 H   0  0  0  0  0  0  0  0  0  0  0  0
   -1.9393    4.2251   -0.9075 H   0  0  0  0  0  0  0  0  0  0  0  0
   -3.4169    2.2014    2.5154 N   0  0  0  0  0  0  0  0  0  0  0  0
   -4.3850    1.8666    3.5504 C   0  0  0  0  0  0  0  0  0  0  0  0
   -3.2011    1.5156    1.7871 H   0  0  0  0  0  0  0  0  0  0  0  0
   -4.6466    0.8057    3.4916 H   0  0  0  0  0  0  0  0  0  0  0  0
   -3.9694    2.0646    4.5439 H   0  0  0  0  0  0  0  0  0  0  0  0
   -5.2983    2.4573    3.4254 H   0  0  0  0  0  0  0  0  0  0  0  0
  1  2  2  0  0  0  0
  1  3  1  0  0  0  0
  1  7  1  0  0  0  0
  3  4  1  0  0  0  0
  3  5  1  0  0  0  0
  3  6  1  0  0  0  0
  7  8  1  0  0  0  0
  7 12  1  0  0  0  0
  8  9  1  0  0  0  0
  8 11  1  0  0  0  0
  8 13  1  0  0  0  0
  9 10  2  0  0  0  0
  9 17  1  0  0  0  0
 11 14  1  0  0  0  0
 11 15  1  0  0  0  0
 11 16  1  0  0  0  0
 17 18  1  0  0  0  0
 17 25  1  0  0  0  0
 18 19  1  0  0  0  0
 18 21  1  0  0  0  0
 18 26  1  0  0  0  0
 19 20  2  0  0  0  0
 19 36  1  0  0  0  0
 21 22  1  0  0  0  0
 21 27  1  0  0  0  0
 21 28  1  0  0  0  0
 22 23  1  0  0  0  0
 22 24  1  0  0  0  0
 22 29  1  0  0  0  0
 23 30  1  0  0  0  0
 23 31  1  0  0  0  0
 23 32  1  0  0  0  0
 24 33  1  0  0  0  0
 24 34  1  0  0  0  0
 24 35  1  0  0  0  0
 36 37  1  0  0  0  0
 36 41  1  0  0  0  0
 37 38  1  0  0  0  0
 37 40  1  0  0  0  0
 37 42  1  0  0  0  0
 38 39  2  0  0  0  0
 38 46  1  0  0  0  0
 40 43  1  0  0  0  0
 40 44  1  0  0  0  0
 40 45  1  0  0  0  0
 46 47  1  0  0  0  0
 46 48  1  0  0  0  0
 47 49  1  0  0  0  0
 47 50  1  0  0  0  0
 47 51  1  0  0  0  0
M  END
$$$$

  -OEChem-05262216553D

 51 50  0     1  0  0  0  0  0999 V2000
    0.3848   -2.4097   -2.7905 C   0  0  0  0  0  0  0  0  0  0  0  0
   -0.5005   -1.5726   -2.7350 O   0  0  0  0  0  0  0  0  0  0  0  0
    0.0550   -3.8728   -2.5629 C   0  0  0  0  0  0  0  0  0  0  0  0
    0.5798   -4.2418   -1.6782 H   0  0  0  0  0  0  0  0  0  0  0  0
   -1.0211   -3.9970   -2.4102 H   0  0  0  0  0  0  0  0  0  0  0  0
    0.3560   -4.4647   -3.4306 H   0  0  0  0  0  0  0  0  0  0  0  0
    1.6960   -2.0295   -3.0082 N   0  0  0  0  0  0  0  0  0  0  0  0
    2.1843   -0.6677   -3.3174 C   0  0  2  0  0  0  0  0  0  0  0  0
    2.0589    0.3590   -2.1675 C   0  0  0  0  0  0  0  0  0  0  0  0
    2.8566    1.2812   -2.1072 O   0  0  0  0  0  0  0  0  0  0  0  0
    1.5406   -0.1270   -4.6022 C   0  0  0  0  0  0  0  0  0  0  0  0
    2.3742   -2.7858   -3.0371 H   0  0  0  0  0  0  0  0  0  0  0  0
    3.2579   -0.7555   -3.5135 H   0  0  0  0  0  0  0  0  0  0  0  0
    0.4772    0.0833   -4.4554 H   0  0  0  0  0  0  0  0  0  0  0  0
    2.0316    0.8040   -4.9032 H   0  0  0  0  0  0  0  0  0  0  0  0
    1.6448   -0.8512   -5.4154 H   0  0  0  0  0  0  0  0  0  0  0  0
    0.9235    0.4697   -1.4004 N   0  0  0  0  0  0  0  0  0  0  0  0
    0.7813    0.6612    0.0597 C   0  0  2  0  0  0  0  0  0  0  0  0
   -0.6512    1.1100    0.3957 C   0  0  0  0  0  0  0  0  0  0  0  0
   -1.5020    0.2774    0.6825 O   0  0  0  0  0  0  0  0  0  0  0  0
    1.8448    1.2699    1.0228 C   0  0  0  0  0  0  0  0  0  0  0  0
    3.1998    0.5582    1.3330 C   0  0  0  0  0  0  0  0  0  0  0  0
    4.0470    1.5107    2.1895 C   0  0  0  0  0  0  0  0  0  0  0  0
    4.0949    0.0009    0.2275 C   0  0  0  0  0  0  0  0  0  0  0  0
    0.1811   -0.1229   -1.7889 H   0  0  0  0  0  0  0  0  0  0  0  0
    0.7851   -0.3766    0.4091 H   0  0  0  0  0  0  0  0  0  0  0  0
    1.3531    1.4320    1.9885 H   0  0  0  0  0  0  0  0  0  0  0  0
    2.0856    2.2575    0.6159 H   0  0  0  0  0  0  0  0  0  0  0  0
    2.9394   -0.3046    1.9554 H   0  0  0  0  0  0  0  0  0  0  0  0
    4.3474    2.3875    1.6067 H   0  0  0  0  0  0  0  0  0  0  0  0
    4.9508    1.0068    2.5465 H   0  0  0  0  0  0  0  0  0  0  0  0
    3.4818    1.8508    3.0630 H   0  0  0  0  0  0  0  0  0  0  0  0
    4.9462   -0.5250    0.6707 H   0  0  0  0  0  0  0  0  0  0  0  0
    4.4979    0.8047   -0.3931 H   0  0  0  0  0  0  0  0  0  0  0  0
    3.5545   -0.7238   -0.3834 H   0  0  0  0  0  0  0  0  0  0  0  0
   -0.9443    2.4629    0.4223 N   0  0  0  0  0  0  0  0  0  0  0  0
   -2.2661    3.0886    0.6327 C   0  0  2  0  0  0  0  0  0  0  0  0
   -2.8554    2.9250    2.0535 C   0  0  0  0  0  0  0  0  0  0  0  0
   -3.2640    3.9119    2.6518 O   0  0  0  0  0  0  0  0  0  0  0  0
   -3.2680    2.6183   -0.4306 C   0  0  0  0  0  0  0  0  0  0  0  0
   -0.1848    3.0692    0.1217 H   0  0  0  0  0  0  0  0  0  0  0  0
   -2.1314    4.1656    0.4881 H   0  0  0  0  0  0  0  0  0  0  0  0
   -3.5220    1.5627   -0.2974 H   0  0  0  0  0  0  0  0  0  0  0  0
   -4.1908    3.2026   -0.3601 H   0  0  0  0  0  0  0  0  0  0  0  0
   -2.8493    2.7518   -1.4325 H   0  0  0  0  0  0  0  0  0  0  0  0
   -2.9506    1.6871    2.6569 N   0  0  0  0  0  0  0  0  0  0  0  0
   -3.5302    1.4595    3.9731 C   0  0  0  0  0  0  0  0  0  0  0  0
   -2.6016    0.8929    2.1132 H   0  0  0  0  0  0  0  0  0  0  0  0
   -3.4989    0.3939    4.2197 H   0  0  0  0  0  0  0  0  0  0  0  0
   -2.9714    2.0090    4.7376 H   0  0  0  0  0  0  0  0  0  0  0  0
   -4.5743    1.7886    3.9941 H   0  0  0  0  0  0  0  0  0  0  0  0
  1  2  2  0  0  0  0
  1  3  1  0  0  0  0
  1  7  1  0  0  0  0
  3  4  1  0  0  0  0
  3  5  1  0  0  0  0
  3  6  1  0  0  0  0
  7  8  1  0  0  0  0
  7 12  1  0  0  0  0
  8  9  1  0  0  0  0
  8 11  1  0  0  0  0
  8 13  1  0  0  0  0
  9 10  2  0  0  0  0
  9 17  1  0  0  0  0
 11 14  1  0  0  0  0
 11 15  1  0  0  0  0
 11 16  1  0  0  0  0
 17 18  1  0  0  0  0
 17 25  1  0  0  0  0
 18 19  1  0  0  0  0
 18 21  1  0  0  0  0
 18 26  1  0  0  0  0
 19 20  2  0  0  0  0
 19 36  1  0  0  0  0
 21 22  1  0  0  0  0
 21 27  1  0  0  0  0
 21 28  1  0  0  0  0
 22 23  1  0  0  0  0
 22 24  1  0  0  0  0
 22 29  1  0  0  0  0
 23 30  1  0  0  0  0
 23 31  1  0  0  0  0
 23 32  1  0  0  0  0
 24 33  1  0  0  0  0
 24 34  1  0  0  0  0
 24 35  1  0  0  0  0
 36 37  1  0  0  0  0
 36 41  1  0  0  0  0
 37 38  1  0  0  0  0
 37 40  1  0  0  0  0
 37 42  1  0  0  0  0
 38 39  2  0  0  0  0
 38 46  1  0  0  0  0
 40 43  1  0  0  0  0
 40 44  1  0  0  0  0
 40 45  1  0  0  0  0
 46 47  1  0  0  0  0
 46 48  1  0  0  0  0
 47 49  1  0  0  0  0
 47 50  1  0  0  0  0
 47 51  1  0  0  0  0
M  END
$$$$

  -OEChem-05262216553D

 51 50  0     1  0  0  0  0  0999 V2000
    0.3525   -2.4460   -2.8292 C   0  0  0  0  0  0  0  0  0  0  0  0
   -0.5164   -1.5916   -2.7688 O   0  0  0  0  0  0  0  0  0  0  0  0
   -0.0125   -3.9071   -2.6472 C   0  0  0  0  0  0  0  0  0  0  0  0
    0.4972   -4.3143   -1.7705 H   0  0  0  0  0  0  0  0  0  0  0  0
   -1.0922   -4.0113   -2.5053 H   0  0  0  0  0  0  0  0  0  0  0  0
    0.2820   -4.4785   -3.5309 H   0  0  0  0  0  0  0  0  0  0  0  0
    1.6755   -2.0899   -3.0170 N   0  0  0  0  0  0  0  0  0  0  0  0
    2.1948   -0.7394   -3.3273 C   0  0  2  0  0  0  0  0  0  0  0  0
    2.0661    0.3062   -2.1941 C   0  0  0  0  0  0  0  0  0  0  0  0
    2.8304    1.2574   -2.1750 O   0  0  0  0  0  0  0  0  0  0  0  0
    1.5860   -0.2083   -4.6331 C   0  0  0  0  0  0  0  0  0  0  0  0
    2.3340   -2.8627   -3.0636 H   0  0  0  0  0  0  0  0  0  0  0  0
    3.2706   -0.8479   -3.4986 H   0  0  0  0  0  0  0  0  0  0  0  0
    0.5243    0.0242   -4.5094 H   0  0  0  0  0  0  0  0  0  0  0  0
    2.1008    0.7075   -4.9412 H   0  0  0  0  0  0  0  0  0  0  0  0
    1.6913   -0.9484   -5.4321 H   0  0  0  0  0  0  0  0  0  0  0  0
    0.9426    0.3962   -1.4078 N   0  0  0  0  0  0  0  0  0  0  0  0
    0.8061    0.6120    0.0496 C   0  0  2  0  0  0  0  0  0  0  0  0
   -0.6411    1.0170    0.3735 C   0  0  0  0  0  0  0  0  0  0  0  0
   -1.3802    0.2374    0.9613 O   0  0  0  0  0  0  0  0  0  0  0  0
    1.8378    1.3031    0.9907 C   0  0  0  0  0  0  0  0  0  0  0  0
    3.2360    0.6830    1.3043 C   0  0  0  0  0  0  0  0  0  0  0  0
    4.0272    1.7043    2.1346 C   0  0  0  0  0  0  0  0  0  0  0  0
    4.1586    0.1714    0.1999 C   0  0  0  0  0  0  0  0  0  0  0  0
    0.2089   -0.2147   -1.7824 H   0  0  0  0  0  0  0  0  0  0  0  0
    0.8577   -0.4153    0.4253 H   0  0  0  0  0  0  0  0  0  0  0  0
    1.3427    1.4540    1.9565 H   0  0  0  0  0  0  0  0  0  0  0  0
    2.0139    2.2959    0.5635 H   0  0  0  0  0  0  0  0  0  0  0  0
    3.0360   -0.1845    1.9423 H   0  0  0  0  0  0  0  0  0  0  0  0
    4.2657    2.5875    1.5331 H   0  0  0  0  0  0  0  0  0  0  0  0
    4.9640    1.2660    2.4930 H   0  0  0  0  0  0  0  0  0  0  0  0
    3.4475    2.0237    3.0064 H   0  0  0  0  0  0  0  0  0  0  0  0
    5.0480   -0.2867    0.6436 H   0  0  0  0  0  0  0  0  0  0  0  0
    4.4988    0.9919   -0.4366 H   0  0  0  0  0  0  0  0  0  0  0  0
    3.6653   -0.5987   -0.3949 H   0  0  0  0  0  0  0  0  0  0  0  0
   -1.0579    2.3003    0.0666 N   0  0  0  0  0  0  0  0  0  0  0  0
   -2.4223    2.8521    0.1964 C   0  0  2  0  0  0  0  0  0  0  0  0
   -2.9132    3.0611    1.6476 C   0  0  0  0  0  0  0  0  0  0  0  0
   -3.4351    4.1239    1.9592 O   0  0  0  0  0  0  0  0  0  0  0  0
   -3.4295    2.0140   -0.6036 C   0  0  0  0  0  0  0  0  0  0  0  0
   -0.3783    2.8523   -0.4525 H   0  0  0  0  0  0  0  0  0  0  0  0
   -2.4035    3.8478   -0.2583 H   0  0  0  0  0  0  0  0  0  0  0  0
   -3.5798    1.0316   -0.1466 H   0  0  0  0  0  0  0  0  0  0  0  0
   -4.3969    2.5245   -0.6392 H   0  0  0  0  0  0  0  0  0  0  0  0
   -3.0762    1.8708   -1.6293 H   0  0  0  0  0  0  0  0  0  0  0  0
   -2.7929    2.0672    2.5977 N   0  0  0  0  0  0  0  0  0  0  0  0
   -3.2697    2.1835    3.9683 C   0  0  0  0  0  0  0  0  0  0  0  0
   -2.3863    1.1845    2.2762 H   0  0  0  0  0  0  0  0  0  0  0  0
   -3.0329    1.2734    4.5278 H   0  0  0  0  0  0  0  0  0  0  0  0
   -2.7915    3.0316    4.4693 H   0  0  0  0  0  0  0  0  0  0  0  0
   -4.3547    2.3294    3.9848 H   0  0  0  0  0  0  0  0  0  0  0  0
  1  2  2  0  0  0  0
  1  3  1  0  0  0  0
  1  7  1  0  0  0  0
  3  4  1  0  0  0  0
  3  5  1  0  0  0  0
  3  6  1  0  0  0  0
  7  8  1  0  0  0  0
  7 12  1  0  0  0  0
  8  9  1  0  0  0  0
  8 11  1  0  0  0  0
  8 13  1  0  0  0  0
  9 10  2  0  0  0  0
  9 17  1  0  0  0  0
 11 14  1  0  0  0  0
 11 15  1  0  0  0  0
 11 16  1  0  0  0  0
 17 18  1  0  0  0  0
 17 25  1  0  0  0  0
 18 19  1  0  0  0  0
 18 21  1  0  0  0  0
 18 26  1  0  0  0  0
 19 20  2  0  0  0  0
 19 36  1  0  0  0  0
 21 22  1  0  0  0  0
 21 27  1  0  0  0  0
 21 28  1  0  0  0  0
 22 23  1  0  0  0  0
 22 24  1  0  0  0  0
 22 29  1  0  0  0  0
 23 30  1  0  0  0  0
 23 31  1  0  0  0  0
 23 32  1  0  0  0  0
 24 33  1  0  0  0  0
 24 34  1  0  0  0  0
 24 35  1  0  0  0  0
 36 37  1  0  0  0  0
 36 41  1  0  0  0  0
 37 38  1  0  0  0  0
 37 40  1  0  0  0  0
 37 42  1  0  0  0  0
 38 39  2  0  0  0  0
 38 46  1  0  0  0  0
 40 43  1  0  0  0  0
 40 44  1  0  0  0  0
 40 45  1  0  0  0  0
 46 47  1  0  0  0  0
 46 48  1  0  0  0  0
 47 49  1  0  0  0  0
 47 50  1  0  0  0  0
 47 51  1  0  0  0  0
M  END
$$$$

  -OEChem-05262216553D

 51 50  0     1  0  0  0  0  0999 V2000
    2.9828   -2.7442   -3.0564 C   0  0  0  0  0  0  0  0  0  0  0  0
    2.2896   -3.2925   -2.2154 O   0  0  0  0  0  0  0  0  0  0  0  0
    4.4078   -3.2168   -3.2749 C   0  0  0  0  0  0  0  0  0  0  0  0
    5.1084   -2.4230   -3.0036 H   0  0  0  0  0  0  0  0  0  0  0  0
    4.6148   -4.0946   -2.6561 H   0  0  0  0  0  0  0  0  0  0  0  0
    4.5573   -3.4833   -4.3241 H   0  0  0  0  0  0  0  0  0  0  0  0
    2.5069   -1.6785   -3.7974 N   0  0  0  0  0  0  0  0  0  0  0  0
    1.2673   -0.9322   -3.5104 C   0  0  2  0  0  0  0  0  0  0  0  0
    1.3745   -0.0946   -2.2134 C   0  0  0  0  0  0  0  0  0  0  0  0
    2.3741    0.5870   -2.0469 O   0  0  0  0  0  0  0  0  0  0  0  0
    0.0267   -1.8433   -3.5433 C   0  0  0  0  0  0  0  0  0  0  0  0
    3.2198   -1.1829   -4.3255 H   0  0  0  0  0  0  0  0  0  0  0  0
    1.1390   -0.2099   -4.3225 H   0  0  0  0  0  0  0  0  0  0  0  0
   -0.0475   -2.4485   -2.6346 H   0  0  0  0  0  0  0  0  0  0  0  0
   -0.8850   -1.2451   -3.6301 H   0  0  0  0  0  0  0  0  0  0  0  0
    0.0760   -2.5165   -4.4048 H   0  0  0  0  0  0  0  0  0  0  0  0
    0.2501    0.3127   -1.5296 N   0  0  0  0  0  0  0  0  0  0  0  0
    0.0294    0.4938   -0.0728 C   0  0  2  0  0  0  0  0  0  0  0  0
   -1.2458    1.3230    0.1516 C   0  0  0  0  0  0  0  0  0  0  0  0
   -2.1686    0.8702    0.8152 O   0  0  0  0  0  0  0  0  0  0  0  0
    1.1055    0.8077    1.0112 C   0  0  0  0  0  0  0  0  0  0  0  0
    2.2254   -0.2021    1.4112 C   0  0  0  0  0  0  0  0  0  0  0  0
    3.1743    0.5080    2.3867 C   0  0  0  0  0  0  0  0  0  0  0  0
    3.0810   -0.9073    0.3644 C   0  0  0  0  0  0  0  0  0  0  0  0
   -0.5843   -0.0379   -1.9925 H   0  0  0  0  0  0  0  0  0  0  0  0
   -0.2717   -0.5140    0.2335 H   0  0  0  0  0  0  0  0  0  0  0  0
    0.5705    1.0531    1.9357 H   0  0  0  0  0  0  0  0  0  0  0  0
    1.6039    1.7241    0.6781 H   0  0  0  0  0  0  0  0  0  0  0  0
    1.7180   -1.0029    1.9598 H   0  0  0  0  0  0  0  0  0  0  0  0
    3.7190    1.3103    1.8787 H   0  0  0  0  0  0  0  0  0  0  0  0
    3.9015   -0.1993    2.7977 H   0  0  0  0  0  0  0  0  0  0  0  0
    2.6150    0.9416    3.2216 H   0  0  0  0  0  0  0  0  0  0  0  0
    3.7513   -1.6228    0.8508 H   0  0  0  0  0  0  0  0  0  0  0  0
    3.7041   -0.1943   -0.1805 H   0  0  0  0  0  0  0  0  0  0  0  0
    2.4526   -1.4739   -0.3218 H   0  0  0  0  0  0  0  0  0  0  0  0
   -1.3081    2.6011   -0.3759 N   0  0  0  0  0  0  0  0  0  0  0  0
   -2.4121    3.5751   -0.2479 C   0  0  2  0  0  0  0  0  0  0  0  0
   -2.6341    4.1130    1.1842 C   0  0  0  0  0  0  0  0  0  0  0  0
   -2.7270    5.3198    1.3650 O   0  0  0  0  0  0  0  0  0  0  0  0
   -3.7185    3.0166   -0.8291 C   0  0  0  0  0  0  0  0  0  0  0  0
   -0.4692    2.9014   -0.8689 H   0  0  0  0  0  0  0  0  0  0  0  0
   -2.1398    4.4437   -0.8568 H   0  0  0  0  0  0  0  0  0  0  0  0
   -4.1129    2.2031   -0.2133 H   0  0  0  0  0  0  0  0  0  0  0  0
   -4.4755    3.8061   -0.8729 H   0  0  0  0  0  0  0  0  0  0  0  0
   -3.5532    2.6390   -1.8423 H   0  0  0  0  0  0  0  0  0  0  0  0
   -2.7272    3.2588    2.2647 N   0  0  0  0  0  0  0  0  0  0  0  0
   -2.9301    3.6974    3.6378 C   0  0  0  0  0  0  0  0  0  0  0  0
   -2.6667    2.2584    2.0580 H   0  0  0  0  0  0  0  0  0  0  0  0
   -2.9698    2.8328    4.3074 H   0  0  0  0  0  0  0  0  0  0  0  0
   -2.1078    4.3457    3.9581 H   0  0  0  0  0  0  0  0  0  0  0  0
   -3.8713    4.2497    3.7277 H   0  0  0  0  0  0  0  0  0  0  0  0
  1  2  2  0  0  0  0
  1  3  1  0  0  0  0
  1  7  1  0  0  0  0
  3  4  1  0  0  0  0
  3  5  1  0  0  0  0
  3  6  1  0  0  0  0
  7  8  1  0  0  0  0
  7 12  1  0  0  0  0
  8  9  1  0  0  0  0
  8 11  1  0  0  0  0
  8 13  1  0  0  0  0
  9 10  2  0  0  0  0
  9 17  1  0  0  0  0
 11 14  1  0  0  0  0
 11 15  1  0  0  0  0
 11 16  1  0  0  0  0
 17 18  1  0  0  0  0
 17 25  1  0  0  0  0
 18 19  1  0  0  0  0
 18 21  1  0  0  0  0
 18 26  1  0  0  0  0
 19 20  2  0  0  0  0
 19 36  1  0  0  0  0
 21 22  1  0  0  0  0
 21 27  1  0  0  0  0
 21 28  1  0  0  0  0
 22 23  1  0  0  0  0
 22 24  1  0  0  0  0
 22 29  1  0  0  0  0
 23 30  1  0  0  0  0
 23 31  1  0  0  0  0
 23 32  1  0  0  0  0
 24 33  1  0  0  0  0
 24 34  1  0  0  0  0
 24 35  1  0  0  0  0
 36 37  1  0  0  0  0
 36 41  1  0  0  0  0
 37 38  1  0  0  0  0
 37 40  1  0  0  0  0
 37 42  1  0  0  0  0
 38 39  2  0  0  0  0
 38 46  1  0  0  0  0
 40 43  1  0  0  0  0
 40 44  1  0  0  0  0
 40 45  1  0  0  0  0
 46 47  1  0  0  0  0
 46 48  1  0  0  0  0
 47 49  1  0  0  0  0
 47 50  1  0  0  0  0
 47 51  1  0  0  0  0
M  END
$$$$

  -OEChem-05262216553D

 51 50  0     1  0  0  0  0  0999 V2000
    0.5265   -2.5283   -2.7808 C   0  0  0  0  0  0  0  0  0  0  0  0
   -0.3982   -1.7338   -2.7190 O   0  0  0  0  0  0  0  0  0  0  0  0
    0.2641   -4.0057   -2.5592 C   0  0  0  0  0  0  0  0  0  0  0  0
    0.7912   -4.3503   -1.6659 H   0  0  0  0  0  0  0  0  0  0  0  0
   -0.8072   -4.1827   -2.4249 H   0  0  0  0  0  0  0  0  0  0  0  0
    0.6080   -4.5808   -3.4226 H   0  0  0  0  0  0  0  0  0  0  0  0
    1.8191   -2.0887   -3.0022 N   0  0  0  0  0  0  0  0  0  0  0  0
    2.2434   -0.7153   -3.3552 C   0  0  2  0  0  0  0  0  0  0  0  0
    2.0628    0.3467   -2.2451 C   0  0  0  0  0  0  0  0  0  0  0  0
    2.7697    1.3410   -2.2514 O   0  0  0  0  0  0  0  0  0  0  0  0
    1.5771   -0.2584   -4.6610 C   0  0  0  0  0  0  0  0  0  0  0  0
    2.5285   -2.8162   -3.0357 H   0  0  0  0  0  0  0  0  0  0  0  0
    3.3213   -0.7559   -3.5439 H   0  0  0  0  0  0  0  0  0  0  0  0
    0.5028   -0.1023   -4.5248 H   0  0  0  0  0  0  0  0  0  0  0  0
    2.0177    0.6862   -4.9956 H   0  0  0  0  0  0  0  0  0  0  0  0
    1.7253   -1.0051   -5.4467 H   0  0  0  0  0  0  0  0  0  0  0  0
    0.9293    0.3981   -1.4710 N   0  0  0  0  0  0  0  0  0  0  0  0
    0.7737    0.5755   -0.0084 C   0  0  2  0  0  0  0  0  0  0  0  0
   -0.6850    0.9476    0.3076 C   0  0  0  0  0  0  0  0  0  0  0  0
   -1.2597    0.4323    1.2582 O   0  0  0  0  0  0  0  0  0  0  0  0
    1.7794    1.2933    0.9403 C   0  0  0  0  0  0  0  0  0  0  0  0
    3.2044    0.7305    1.2414 C   0  0  0  0  0  0  0  0  0  0  0  0
    3.9505    1.7738    2.0856 C   0  0  0  0  0  0  0  0  0  0  0  0
    4.1463    0.2784    0.1276 C   0  0  0  0  0  0  0  0  0  0  0  0
    0.2352   -0.2539   -1.8510 H   0  0  0  0  0  0  0  0  0  0  0  0
    0.8435   -0.4550    0.3544 H   0  0  0  0  0  0  0  0  0  0  0  0
    1.2825    1.4078    1.9103 H   0  0  0  0  0  0  0  0  0  0  0  0
    1.9094    2.2995    0.5281 H   0  0  0  0  0  0  0  0  0  0  0  0
    3.0459   -0.1541    1.8674 H   0  0  0  0  0  0  0  0  0  0  0  0
    4.1419    2.6778    1.4983 H   0  0  0  0  0  0  0  0  0  0  0  0
    4.9098    1.3760    2.4313 H   0  0  0  0  0  0  0  0  0  0  0  0
    3.3613    2.0492    2.9658 H   0  0  0  0  0  0  0  0  0  0  0  0
    5.0635   -0.1320    0.5615 H   0  0  0  0  0  0  0  0  0  0  0  0
    4.4352    1.1205   -0.5057 H   0  0  0  0  0  0  0  0  0  0  0  0
    3.6923   -0.5151   -0.4676 H   0  0  0  0  0  0  0  0  0  0  0  0
   -1.3120    1.9037   -0.4721 N   0  0  0  0  0  0  0  0  0  0  0  0
   -2.7381    2.2881   -0.4490 C   0  0  2  0  0  0  0  0  0  0  0  0
   -3.2011    3.0479    0.8158 C   0  0  0  0  0  0  0  0  0  0  0  0
   -3.9199    4.0318    0.6962 O   0  0  0  0  0  0  0  0  0  0  0  0
   -3.6322    1.0676   -0.7078 C   0  0  0  0  0  0  0  0  0  0  0  0
   -0.7405    2.2625   -1.2350 H   0  0  0  0  0  0  0  0  0  0  0  0
   -2.8910    2.9792   -1.2843 H   0  0  0  0  0  0  0  0  0  0  0  0
   -3.6087    0.3741    0.1378 H   0  0  0  0  0  0  0  0  0  0  0  0
   -4.6680    1.3877   -0.8576 H   0  0  0  0  0  0  0  0  0  0  0  0
   -3.3018    0.5347   -1.6048 H   0  0  0  0  0  0  0  0  0  0  0  0
   -2.8490    2.6240    2.0813 N   0  0  0  0  0  0  0  0  0  0  0  0
   -3.3126    3.2500    3.3110 C   0  0  0  0  0  0  0  0  0  0  0  0
   -2.3030    1.7598    2.1296 H   0  0  0  0  0  0  0  0  0  0  0  0
   -2.8856    2.7374    4.1783 H   0  0  0  0  0  0  0  0  0  0  0  0
   -3.0065    4.3008    3.3447 H   0  0  0  0  0  0  0  0  0  0  0  0
   -4.4042    3.1972    3.3787 H   0  0  0  0  0  0  0  0  0  0  0  0
  1  2  2  0  0  0  0
  1  3  1  0  0  0  0
  1  7  1  0  0  0  0
  3  4  1  0  0  0  0
  3  5  1  0  0  0  0
  3  6  1  0  0  0  0
  7  8  1  0  0  0  0
  7 12  1  0  0  0  0
  8  9  1  0  0  0  0
  8 11  1  0  0  0  0
  8 13  1  0  0  0  0
  9 10  2  0  0  0  0
  9 17  1  0  0  0  0
 11 14  1  0  0  0  0
 11 15  1  0  0  0  0
 11 16  1  0  0  0  0
 17 18  1  0  0  0  0
 17 25  1  0  0  0  0
 18 19  1  0  0  0  0
 18 21  1  0  0  0  0
 18 26  1  0  0  0  0
 19 20  2  0  0  0  0
 19 36  1  0  0  0  0
 21 22  1  0  0  0  0
 21 27  1  0  0  0  0
 21 28  1  0  0  0  0
 22 23  1  0  0  0  0
 22 24  1  0  0  0  0
 22 29  1  0  0  0  0
 23 30  1  0  0  0  0
 23 31  1  0  0  0  0
 23 32  1  0  0  0  0
 24 33  1  0  0  0  0
 24 34  1  0  0  0  0
 24 35  1  0  0  0  0
 36 37  1  0  0  0  0
 36 41  1  0  0  0  0
 37 38  1  0  0  0  0
 37 40  1  0  0  0  0
 37 42  1  0  0  0  0
 38 39  2  0  0  0  0
 38 46  1  0  0  0  0
 40 43  1  0  0  0  0
 40 44  1  0  0  0  0
 40 45  1  0  0  0  0
 46 47  1  0  0  0  0
 46 48  1  0  0  0  0
 47 49  1  0  0  0  0
 47 50  1  0  0  0  0
 47 51  1  0  0  0  0
M  END
$$$$

  -OEChem-05262216553D

 51 50  0     1  0  0  0  0  0999 V2000
    0.6182   -2.5864   -2.7340 C   0  0  0  0  0  0  0  0  0  0  0  0
   -0.3409   -1.8326   -2.6854 O   0  0  0  0  0  0  0  0  0  0  0  0
    0.4316   -4.0617   -2.4349 C   0  0  0  0  0  0  0  0  0  0  0  0
    0.9890   -4.3346   -1.5354 H   0  0  0  0  0  0  0  0  0  0  0  0
   -0.6273   -4.2831   -2.2722 H   0  0  0  0  0  0  0  0  0  0  0  0
    0.7897   -4.6628   -3.2742 H   0  0  0  0  0  0  0  0  0  0  0  0
    1.8846   -2.0973   -2.9981 N   0  0  0  0  0  0  0  0  0  0  0  0
    2.2432   -0.7149   -3.3862 C   0  0  2  0  0  0  0  0  0  0  0  0
    2.0374    0.3569   -2.2904 C   0  0  0  0  0  0  0  0  0  0  0  0
    2.7324    1.3592   -2.2992 O   0  0  0  0  0  0  0  0  0  0  0  0
    1.5338   -0.3105   -4.6867 C   0  0  0  0  0  0  0  0  0  0  0  0
    2.6271   -2.7916   -3.0163 H   0  0  0  0  0  0  0  0  0  0  0  0
    3.3179   -0.7139   -3.5962 H   0  0  0  0  0  0  0  0  0  0  0  0
    0.4580   -0.1877   -4.5309 H   0  0  0  0  0  0  0  0  0  0  0  0
    1.9349    0.6404   -5.0523 H   0  0  0  0  0  0  0  0  0  0  0  0
    1.6899   -1.0697   -5.4588 H   0  0  0  0  0  0  0  0  0  0  0  0
    0.8950    0.4004   -1.5285 N   0  0  0  0  0  0  0  0  0  0  0  0
    0.7275    0.5800   -0.0656 C   0  0  2  0  0  0  0  0  0  0  0  0
   -0.7345    0.9434    0.2591 C   0  0  0  0  0  0  0  0  0  0  0  0
   -1.2294    0.6033    1.3266 O   0  0  0  0  0  0  0  0  0  0  0  0
    1.7380    1.2966    0.8811 C   0  0  0  0  0  0  0  0  0  0  0  0
    3.1584    0.7251    1.1860 C   0  0  0  0  0  0  0  0  0  0  0  0
    3.9112    1.7678    2.0254 C   0  0  0  0  0  0  0  0  0  0  0  0
    4.0980    0.2524    0.0786 C   0  0  0  0  0  0  0  0  0  0  0  0
    0.2261   -0.2810   -1.9016 H   0  0  0  0  0  0  0  0  0  0  0  0
    0.7968   -0.4503    0.2981 H   0  0  0  0  0  0  0  0  0  0  0  0
    1.2449    1.4257    1.8508 H   0  0  0  0  0  0  0  0  0  0  0  0
    1.8764    2.2981    0.4598 H   0  0  0  0  0  0  0  0  0  0  0  0
    2.9902   -0.1534    1.8182 H   0  0  0  0  0  0  0  0  0  0  0  0
    4.1176    2.6637    1.4309 H   0  0  0  0  0  0  0  0  0  0  0  0
    4.8628    1.3614    2.3823 H   0  0  0  0  0  0  0  0  0  0  0  0
    3.3195    2.0595    2.8989 H   0  0  0  0  0  0  0  0  0  0  0  0
    5.0091   -0.1636    0.5196 H   0  0  0  0  0  0  0  0  0  0  0  0
    4.3984    1.0846   -0.5623 H   0  0  0  0  0  0  0  0  0  0  0  0
    3.6371   -0.5422   -0.5099 H   0  0  0  0  0  0  0  0  0  0  0  0
   -1.4791    1.6452   -0.6733 N   0  0  0  0  0  0  0  0  0  0  0  0
   -2.9244    1.9478   -0.6345 C   0  0  2  0  0  0  0  0  0  0  0  0
   -3.3683    2.9408    0.4650 C   0  0  0  0  0  0  0  0  0  0  0  0
   -4.1519    3.8383    0.1827 O   0  0  0  0  0  0  0  0  0  0  0  0
   -3.7461    0.6539   -0.5603 C   0  0  0  0  0  0  0  0  0  0  0  0
   -0.9660    1.8995   -1.5153 H   0  0  0  0  0  0  0  0  0  0  0  0
   -3.1703    2.4295   -1.5864 H   0  0  0  0  0  0  0  0  0  0  0  0
   -3.6248    0.1631    0.4096 H   0  0  0  0  0  0  0  0  0  0  0  0
   -4.8086    0.8765   -0.6990 H   0  0  0  0  0  0  0  0  0  0  0  0
   -3.4332   -0.0417   -1.3448 H   0  0  0  0  0  0  0  0  0  0  0  0
   -2.9298    2.8181    1.7680 N   0  0  0  0  0  0  0  0  0  0  0  0
   -3.3653    3.6752    2.8613 C   0  0  0  0  0  0  0  0  0  0  0  0
   -2.3244    2.0167    1.9650 H   0  0  0  0  0  0  0  0  0  0  0  0
   -2.8653    3.3847    3.7902 H   0  0  0  0  0  0  0  0  0  0  0  0
   -3.1199    4.7208    2.6487 H   0  0  0  0  0  0  0  0  0  0  0  0
   -4.4469    3.5888    3.0072 H   0  0  0  0  0  0  0  0  0  0  0  0
  1  2  2  0  0  0  0
  1  3  1  0  0  0  0
  1  7  1  0  0  0  0
  3  4  1  0  0  0  0
  3  5  1  0  0  0  0
  3  6  1  0  0  0  0
  7  8  1  0  0  0  0
  7 12  1  0  0  0  0
  8  9  1  0  0  0  0
  8 11  1  0  0  0  0
  8 13  1  0  0  0  0
  9 10  2  0  0  0  0
  9 17  1  0  0  0  0
 11 14  1  0  0  0  0
 11 15  1  0  0  0  0
 11 16  1  0  0  0  0
 17 18  1  0  0  0  0
 17 25  1  0  0  0  0
 18 19  1  0  0  0  0
 18 21  1  0  0  0  0
 18 26  1  0  0  0  0
 19 20  2  0  0  0  0
 19 36  1  0  0  0  0
 21 22  1  0  0  0  0
 21 27  1  0  0  0  0
 21 28  1  0  0  0  0
 22 23  1  0  0  0  0
 22 24  1  0  0  0  0
 22 29  1  0  0  0  0
 23 30  1  0  0  0  0
 23 31  1  0  0  0  0
 23 32  1  0  0  0  0
 24 33  1  0  0  0  0
 24 34  1  0  0  0  0
 24 35  1  0  0  0  0
 36 37  1  0  0  0  0
 36 41  1  0  0  0  0
 37 38  1  0  0  0  0
 37 40  1  0  0  0  0
 37 42  1  0  0  0  0
 38 39  2  0  0  0  0
 38 46  1  0  0  0  0
 40 43  1  0  0  0  0
 40 44  1  0  0  0  0
 40 45  1  0  0  0  0
 46 47  1  0  0  0  0
 46 48  1  0  0  0  0
 47 49  1  0  0  0  0
 47 50  1  0  0  0  0
 47 51  1  0  0  0  0
M  END
$$$$

  -OEChem-05262216553D

 51 50  0     1  0  0  0  0  0999 V2000
    0.7259   -2.6355   -2.7054 C   0  0  0  0  0  0  0  0  0  0  0  0
   -0.2724   -1.9360   -2.6317 O   0  0  0  0  0  0  0  0  0  0  0  0
    0.6295   -4.1187   -2.4020 C   0  0  0  0  0  0  0  0  0  0  0  0
    1.2216   -4.3583   -1.5153 H   0  0  0  0  0  0  0  0  0  0  0  0
   -0.4113   -4.3992   -2.2160 H   0  0  0  0  0  0  0  0  0  0  0  0
    1.0025   -4.6999   -3.2489 H   0  0  0  0  0  0  0  0  0  0  0  0
    1.9558   -2.0775   -3.0042 N   0  0  0  0  0  0  0  0  0  0  0  0
    2.2269   -0.6791   -3.4056 C   0  0  2  0  0  0  0  0  0  0  0  0
    1.9902    0.3826   -2.3065 C   0  0  0  0  0  0  0  0  0  0  0  0
    2.6667    1.3978   -2.3027 O   0  0  0  0  0  0  0  0  0  0  0  0
    1.4609   -0.3189   -4.6869 C   0  0  0  0  0  0  0  0  0  0  0  0
    2.7357   -2.7290   -3.0384 H   0  0  0  0  0  0  0  0  0  0  0  0
    3.2937   -0.6191   -3.6447 H   0  0  0  0  0  0  0  0  0  0  0  0
    0.3836   -0.2652   -4.5045 H   0  0  0  0  0  0  0  0  0  0  0  0
    1.7915    0.6562   -5.0591 H   0  0  0  0  0  0  0  0  0  0  0  0
    1.6462   -1.0658   -5.4648 H   0  0  0  0  0  0  0  0  0  0  0  0
    0.8415    0.3946   -1.5523 N   0  0  0  0  0  0  0  0  0  0  0  0
    0.6648    0.5791   -0.0898 C   0  0  2  0  0  0  0  0  0  0  0  0
   -0.8092    0.9015    0.2433 C   0  0  0  0  0  0  0  0  0  0  0  0
   -1.2283    0.7739    1.3871 O   0  0  0  0  0  0  0  0  0  0  0  0
    1.6822    1.2969    0.8520 C   0  0  0  0  0  0  0  0  0  0  0  0
    3.0986    0.7126    1.1553 C   0  0  0  0  0  0  0  0  0  0  0  0
    3.8674    1.7500    1.9862 C   0  0  0  0  0  0  0  0  0  0  0  0
    4.0286    0.2148    0.0504 C   0  0  0  0  0  0  0  0  0  0  0  0
    0.2085   -0.3251   -1.9158 H   0  0  0  0  0  0  0  0  0  0  0  0
    0.7477   -0.4501    0.2735 H   0  0  0  0  0  0  0  0  0  0  0  0
    1.1974    1.4359    1.8239 H   0  0  0  0  0  0  0  0  0  0  0  0
    1.8267    2.2952    0.4253 H   0  0  0  0  0  0  0  0  0  0  0  0
    2.9210   -0.1580    1.7956 H   0  0  0  0  0  0  0  0  0  0  0  0
    4.0817    2.6406    1.3866 H   0  0  0  0  0  0  0  0  0  0  0  0
    4.8158    1.3341    2.3407 H   0  0  0  0  0  0  0  0  0  0  0  0
    3.2827    2.0523    2.8607 H   0  0  0  0  0  0  0  0  0  0  0  0
    4.9324   -0.2138    0.4942 H   0  0  0  0  0  0  0  0  0  0  0  0
    4.3443    1.0361   -0.5969 H   0  0  0  0  0  0  0  0  0  0  0  0
    3.5535   -0.5763   -0.5317 H   0  0  0  0  0  0  0  0  0  0  0  0
   -1.6685    1.2866   -0.7723 N   0  0  0  0  0  0  0  0  0  0  0  0
   -3.1281    1.4994   -0.6941 C   0  0  2  0  0  0  0  0  0  0  0  0
   -3.5718    2.7156    0.1513 C   0  0  0  0  0  0  0  0  0  0  0  0
   -4.4095    3.4866   -0.2992 O   0  0  0  0  0  0  0  0  0  0  0  0
   -3.8436    0.2229   -0.2309 C   0  0  0  0  0  0  0  0  0  0  0  0
   -1.2190    1.4274   -1.6746 H   0  0  0  0  0  0  0  0  0  0  0  0
   -3.4701    1.7035   -1.7139 H   0  0  0  0  0  0  0  0  0  0  0  0
   -3.6333    0.0104    0.8214 H   0  0  0  0  0  0  0  0  0  0  0  0
   -4.9260    0.3380   -0.3454 H   0  0  0  0  0  0  0  0  0  0  0  0
   -3.5218   -0.6334   -0.8314 H   0  0  0  0  0  0  0  0  0  0  0  0
   -3.0563    2.9436    1.4113 N   0  0  0  0  0  0  0  0  0  0  0  0
   -3.4338    4.0651    2.2595 C   0  0  0  0  0  0  0  0  0  0  0  0
   -2.3791    2.2561    1.7526 H   0  0  0  0  0  0  0  0  0  0  0  0
   -2.9070    4.0075    3.2168 H   0  0  0  0  0  0  0  0  0  0  0  0
   -3.1740    5.0129    1.7769 H   0  0  0  0  0  0  0  0  0  0  0  0
   -4.5108    4.0517    2.4561 H   0  0  0  0  0  0  0  0  0  0  0  0
  1  2  2  0  0  0  0
  1  3  1  0  0  0  0
  1  7  1  0  0  0  0
  3  4  1  0  0  0  0
  3  5  1  0  0  0  0
  3  6  1  0  0  0  0
  7  8  1  0  0  0  0
  7 12  1  0  0  0  0
  8  9  1  0  0  0  0
  8 11  1  0  0  0  0
  8 13  1  0  0  0  0
  9 10  2  0  0  0  0
  9 17  1  0  0  0  0
 11 14  1  0  0  0  0
 11 15  1  0  0  0  0
 11 16  1  0  0  0  0
 17 18  1  0  0  0  0
 17 25  1  0  0  0  0
 18 19  1  0  0  0  0
 18 21  1  0  0  0  0
 18 26  1  0  0  0  0
 19 20  2  0  0  0  0
 19 36  1  0  0  0  0
 21 22  1  0  0  0  0
 21 27  1  0  0  0  0
 21 28  1  0  0  0  0
 22 23  1  0  0  0  0
 22 24  1  0  0  0  0
 22 29  1  0  0  0  0
 23 30  1  0  0  0  0
 23 31  1  0  0  0  0
 23 32  1  0  0  0  0
 24 33  1  0  0  0  0
 24 34  1  0  0  0  0
 24 35  1  0  0  0  0
 36 37  1  0  0  0  0
 36 41  1  0  0  0  0
 37 38  1  0  0  0  0
 37 40  1  0  0  0  0
 37 42  1  0  0  0  0
 38 39  2  0  0  0  0
 38 46  1  0  0  0  0
 40 43  1  0  0  0  0
 40 44  1  0  0  0  0
 40 45  1  0  0  0  0
 46 47  1  0  0  0  0
 46 48  1  0  0  0  0
 47 49  1  0  0  0  0
 47 50  1  0  0  0  0
 47 51  1  0  0  0  0
M  END
$$$$

  -OEChem-05262216553D

 51 50  0     1  0  0  0  0  0999 V2000
    0.6532   -2.6476   -2.7111 C   0  0  0  0  0  0  0  0  0  0  0  0
   -0.3362   -1.9391   -2.6041 O   0  0  0  0  0  0  0  0  0  0  0  0
    0.5482   -4.1356   -2.4366 C   0  0  0  0  0  0  0  0  0  0  0  0
    1.1520   -4.3990   -1.5646 H   0  0  0  0  0  0  0  0  0  0  0  0
   -0.4920   -4.4113   -2.2400 H   0  0  0  0  0  0  0  0  0  0  0  0
    0.9028   -4.7022   -3.3013 H   0  0  0  0  0  0  0  0  0  0  0  0
    1.8831   -2.0977   -3.0230 N   0  0  0  0  0  0  0  0  0  0  0  0
    2.1602   -0.7006   -3.4244 C   0  0  2  0  0  0  0  0  0  0  0  0
    1.9530    0.3629   -2.3212 C   0  0  0  0  0  0  0  0  0  0  0  0
    2.6291    1.3780   -2.3383 O   0  0  0  0  0  0  0  0  0  0  0  0
    1.3744   -0.3316   -4.6909 C   0  0  0  0  0  0  0  0  0  0  0  0
    2.6539   -2.7580   -3.0852 H   0  0  0  0  0  0  0  0  0  0  0  0
    3.2232   -0.6499   -3.6819 H   0  0  0  0  0  0  0  0  0  0  0  0
    0.3006   -0.2745   -4.4905 H   0  0  0  0  0  0  0  0  0  0  0  0
    1.7027    0.6441   -5.0639 H   0  0  0  0  0  0  0  0  0  0  0  0
    1.5434   -1.0758   -5.4750 H   0  0  0  0  0  0  0  0  0  0  0  0
    0.8222    0.3718   -1.5401 N   0  0  0  0  0  0  0  0  0  0  0  0
    0.6662    0.6044   -0.0822 C   0  0  2  0  0  0  0  0  0  0  0  0
   -0.8120    0.8993    0.2727 C   0  0  0  0  0  0  0  0  0  0  0  0
   -1.1611    1.0208    1.4403 O   0  0  0  0  0  0  0  0  0  0  0  0
    1.7059    1.3571    0.8096 C   0  0  0  0  0  0  0  0  0  0  0  0
    3.1283    0.7786    1.1000 C   0  0  0  0  0  0  0  0  0  0  0  0
    3.9223    1.8414    1.8729 C   0  0  0  0  0  0  0  0  0  0  0  0
    4.0300    0.2213   -0.0004 C   0  0  0  0  0  0  0  0  0  0  0  0
    0.1999   -0.3711   -1.8702 H   0  0  0  0  0  0  0  0  0  0  0  0
    0.7733   -0.4104    0.3127 H   0  0  0  0  0  0  0  0  0  0  0  0
    1.2498    1.5356    1.7883 H   0  0  0  0  0  0  0  0  0  0  0  0
    1.8411    2.3382    0.3424 H   0  0  0  0  0  0  0  0  0  0  0  0
    2.9594   -0.0629    1.7802 H   0  0  0  0  0  0  0  0  0  0  0  0
    4.1281    2.7065    1.2343 H   0  0  0  0  0  0  0  0  0  0  0  0
    4.8763    1.4324    2.2203 H   0  0  0  0  0  0  0  0  0  0  0  0
    3.3603    2.1816    2.7486 H   0  0  0  0  0  0  0  0  0  0  0  0
    4.9316   -0.2089    0.4462 H   0  0  0  0  0  0  0  0  0  0  0  0
    4.3525    1.0110   -0.6824 H   0  0  0  0  0  0  0  0  0  0  0  0
    3.5298   -0.5807   -0.5453 H   0  0  0  0  0  0  0  0  0  0  0  0
   -1.7692    0.9178   -0.7301 N   0  0  0  0  0  0  0  0  0  0  0  0
   -3.2363    1.0153   -0.5850 C   0  0  2  0  0  0  0  0  0  0  0  0
   -3.7610    2.3602   -0.0299 C   0  0  0  0  0  0  0  0  0  0  0  0
   -4.7093    2.9067   -0.5790 O   0  0  0  0  0  0  0  0  0  0  0  0
   -3.7836   -0.1632    0.2311 C   0  0  0  0  0  0  0  0  0  0  0  0
   -1.3966    0.8726   -1.6754 H   0  0  0  0  0  0  0  0  0  0  0  0
   -3.6567    0.9256   -1.5921 H   0  0  0  0  0  0  0  0  0  0  0  0
   -3.4799   -0.0958    1.2798 H   0  0  0  0  0  0  0  0  0  0  0  0
   -4.8775   -0.1681    0.1927 H   0  0  0  0  0  0  0  0  0  0  0  0
   -3.4185   -1.1098   -0.1786 H   0  0  0  0  0  0  0  0  0  0  0  0
   -3.2029    2.9461    1.0883 N   0  0  0  0  0  0  0  0  0  0  0  0
   -3.6789    4.1841    1.6885 C   0  0  0  0  0  0  0  0  0  0  0  0
   -2.4411    2.4282    1.5346 H   0  0  0  0  0  0  0  0  0  0  0  0
   -4.7149    4.0728    2.0249 H   0  0  0  0  0  0  0  0  0  0  0  0
   -3.0600    4.4458    2.5520 H   0  0  0  0  0  0  0  0  0  0  0  0
   -3.6284    5.0047    0.9653 H   0  0  0  0  0  0  0  0  0  0  0  0
  1  2  2  0  0  0  0
  1  3  1  0  0  0  0
  1  7  1  0  0  0  0
  3  4  1  0  0  0  0
  3  5  1  0  0  0  0
  3  6  1  0  0  0  0
  7  8  1  0  0  0  0
  7 12  1  0  0  0  0
  8  9  1  0  0  0  0
  8 11  1  0  0  0  0
  8 13  1  0  0  0  0
  9 10  2  0  0  0  0
  9 17  1  0  0  0  0
 11 14  1  0  0  0  0
 11 15  1  0  0  0  0
 11 16  1  0  0  0  0
 17 18  1  0  0  0  0
 17 25  1  0  0  0  0
 18 19  1  0  0  0  0
 18 21  1  0  0  0  0
 18 26  1  0  0  0  0
 19 20  2  0  0  0  0
 19 36  1  0  0  0  0
 21 22  1  0  0  0  0
 21 27  1  0  0  0  0
 21 28  1  0  0  0  0
 22 23  1  0  0  0  0
 22 24  1  0  0  0  0
 22 29  1  0  0  0  0
 23 30  1  0  0  0  0
 23 31  1  0  0  0  0
 23 32  1  0  0  0  0
 24 33  1  0  0  0  0
 24 34  1  0  0  0  0
 24 35  1  0  0  0  0
 36 37  1  0  0  0  0
 36 41  1  0  0  0  0
 37 38  1  0  0  0  0
 37 40  1  0  0  0  0
 37 42  1  0  0  0  0
 38 39  2  0  0  0  0
 38 46  1  0  0  0  0
 40 43  1  0  0  0  0
 40 44  1  0  0  0  0
 40 45  1  0  0  0  0
 46 47  1  0  0  0  0
 46 48  1  0  0  0  0
 47 49  1  0  0  0  0
 47 50  1  0  0  0  0
 47 51  1  0  0  0  0
M  END
$$$$

  -OEChem-05262216553D

 51 50  0     1  0  0  0  0  0999 V2000
    0.3302   -2.4740   -2.9480 C   0  0  0  0  0  0  0  0  0  0  0  0
   -0.5373   -1.6463   -2.7051 O   0  0  0  0  0  0  0  0  0  0  0  0
   -0.0267   -3.9480   -2.9739 C   0  0  0  0  0  0  0  0  0  0  0  0
    0.4719   -4.4690   -2.1526 H   0  0  0  0  0  0  0  0  0  0  0  0
   -1.1077   -4.0783   -2.8685 H   0  0  0  0  0  0  0  0  0  0  0  0
    0.2875   -4.3923   -3.9218 H   0  0  0  0  0  0  0  0  0  0  0  0
    1.6484   -2.0928   -3.1322 N   0  0  0  0  0  0  0  0  0  0  0  0
    2.1695   -0.7206   -3.3391 C   0  0  2  0  0  0  0  0  0  0  0  0
    2.0861    0.2381   -2.1268 C   0  0  0  0  0  0  0  0  0  0  0  0
    2.8322    1.2006   -2.0843 O   0  0  0  0  0  0  0  0  0  0  0  0
    1.5127   -0.0866   -4.5736 C   0  0  0  0  0  0  0  0  0  0  0  0
    2.2924   -2.8563   -3.3237 H   0  0  0  0  0  0  0  0  0  0  0  0
    3.2384   -0.8168   -3.5568 H   0  0  0  0  0  0  0  0  0  0  0  0
    0.4542    0.1245   -4.3935 H   0  0  0  0  0  0  0  0  0  0  0  0
    2.0104    0.8569   -4.8201 H   0  0  0  0  0  0  0  0  0  0  0  0
    1.5948   -0.7547   -5.4361 H   0  0  0  0  0  0  0  0  0  0  0  0
    0.9670    0.2353   -1.3295 N   0  0  0  0  0  0  0  0  0  0  0  0
    0.7359    0.5458    0.1012 C   0  0  2  0  0  0  0  0  0  0  0  0
   -0.7793    0.7523    0.3751 C   0  0  0  0  0  0  0  0  0  0  0  0
   -1.1673    1.2395    1.4294 O   0  0  0  0  0  0  0  0  0  0  0  0
    1.7090    1.3773    0.9997 C   0  0  0  0  0  0  0  0  0  0  0  0
    3.1271    0.8493    1.3877 C   0  0  0  0  0  0  0  0  0  0  0  0
    3.8636    1.9682    2.1380 C   0  0  0  0  0  0  0  0  0  0  0  0
    4.0869    0.2471    0.3634 C   0  0  0  0  0  0  0  0  0  0  0  0
    0.3129   -0.4548   -1.6949 H   0  0  0  0  0  0  0  0  0  0  0  0
    0.8790   -0.4398    0.5533 H   0  0  0  0  0  0  0  0  0  0  0  0
    1.2051    1.5941    1.9465 H   0  0  0  0  0  0  0  0  0  0  0  0
    1.8428    2.3355    0.4866 H   0  0  0  0  0  0  0  0  0  0  0  0
    2.9409    0.0432    2.1053 H   0  0  0  0  0  0  0  0  0  0  0  0
    4.0832    2.8021    1.4634 H   0  0  0  0  0  0  0  0  0  0  0  0
    4.8076    1.5983    2.5504 H   0  0  0  0  0  0  0  0  0  0  0  0
    3.2548    2.3429    2.9669 H   0  0  0  0  0  0  0  0  0  0  0  0
    4.9532   -0.1801    0.8779 H   0  0  0  0  0  0  0  0  0  0  0  0
    4.4620    1.0125   -0.3199 H   0  0  0  0  0  0  0  0  0  0  0  0
    3.6098   -0.5635   -0.1902 H   0  0  0  0  0  0  0  0  0  0  0  0
   -1.7239    0.3405   -0.5587 N   0  0  0  0  0  0  0  0  0  0  0  0
   -3.1962    0.3662   -0.4273 C   0  0  2  0  0  0  0  0  0  0  0  0
   -3.8337    1.7745   -0.3835 C   0  0  0  0  0  0  0  0  0  0  0  0
   -4.8225    2.0079   -1.0672 O   0  0  0  0  0  0  0  0  0  0  0  0
   -3.6635   -0.4773    0.7669 C   0  0  0  0  0  0  0  0  0  0  0  0
   -1.3546   -0.0442   -1.4278 H   0  0  0  0  0  0  0  0  0  0  0  0
   -3.5950   -0.1124   -1.3277 H   0  0  0  0  0  0  0  0  0  0  0  0
   -3.3874   -0.0095    1.7164 H   0  0  0  0  0  0  0  0  0  0  0  0
   -4.7527   -0.5834    0.7450 H   0  0  0  0  0  0  0  0  0  0  0  0
   -3.2176   -1.4754    0.7257 H   0  0  0  0  0  0  0  0  0  0  0  0
   -3.3327    2.7659    0.4358 N   0  0  0  0  0  0  0  0  0  0  0  0
   -3.9025    4.1004    0.5510 C   0  0  0  0  0  0  0  0  0  0  0  0
   -2.5311    2.5065    1.0172 H   0  0  0  0  0  0  0  0  0  0  0  0
   -3.3557    4.6792    1.3016 H   0  0  0  0  0  0  0  0  0  0  0  0
   -3.8387    4.6264   -0.4071 H   0  0  0  0  0  0  0  0  0  0  0  0
   -4.9530    4.0440    0.8551 H   0  0  0  0  0  0  0  0  0  0  0  0
  1  2  2  0  0  0  0
  1  3  1  0  0  0  0
  1  7  1  0  0  0  0
  3  4  1  0  0  0  0
  3  5  1  0  0  0  0
  3  6  1  0  0  0  0
  7  8  1  0  0  0  0
  7 12  1  0  0  0  0
  8  9  1  0  0  0  0
  8 11  1  0  0  0  0
  8 13  1  0  0  0  0
  9 10  2  0  0  0  0
  9 17  1  0  0  0  0
 11 14  1  0  0  0  0
 11 15  1  0  0  0  0
 11 16  1  0  0  0  0
 17 18  1  0  0  0  0
 17 25  1  0  0  0  0
 18 19  1  0  0  0  0
 18 21  1  0  0  0  0
 18 26  1  0  0  0  0
 19 20  2  0  0  0  0
 19 36  1  0  0  0  0
 21 22  1  0  0  0  0
 21 27  1  0  0  0  0
 21 28  1  0  0  0  0
 22 23  1  0  0  0  0
 22 24  1  0  0  0  0
 22 29  1  0  0  0  0
 23 30  1  0  0  0  0
 23 31  1  0  0  0  0
 23 32  1  0  0  0  0
 24 33  1  0  0  0  0
 24 34  1  0  0  0  0
 24 35  1  0  0  0  0
 36 37  1  0  0  0  0
 36 41  1  0  0  0  0
 37 38  1  0  0  0  0
 37 40  1  0  0  0  0
 37 42  1  0  0  0  0
 38 39  2  0  0  0  0
 38 46  1  0  0  0  0
 40 43  1  0  0  0  0
 40 44  1  0  0  0  0
 40 45  1  0  0  0  0
 46 47  1  0  0  0  0
 46 48  1  0  0  0  0
 47 49  1  0  0  0  0
 47 50  1  0  0  0  0
 47 51  1  0  0  0  0
M  END
$$$$

  -OEChem-05262216553D

 51 50  0     1  0  0  0  0  0999 V2000
    0.4924   -2.4680   -2.8883 C   0  0  0  0  0  0  0  0  0  0  0  0
   -0.4450   -1.7404   -2.5875 O   0  0  0  0  0  0  0  0  0  0  0  0
    0.2974   -3.9723   -2.8765 C   0  0  0  0  0  0  0  0  0  0  0  0
    0.9472   -4.4291   -2.1257 H   0  0  0  0  0  0  0  0  0  0  0  0
   -0.7415   -4.2176   -2.6373 H   0  0  0  0  0  0  0  0  0  0  0  0
    0.5374   -4.3886   -3.8582 H   0  0  0  0  0  0  0  0  0  0  0  0
    1.7450   -1.9497   -3.1738 N   0  0  0  0  0  0  0  0  0  0  0  0
    2.1196   -0.5273   -3.3605 C   0  0  2  0  0  0  0  0  0  0  0  0
    2.0358    0.3625   -2.0978 C   0  0  0  0  0  0  0  0  0  0  0  0
    2.7954    1.3081   -1.9811 O   0  0  0  0  0  0  0  0  0  0  0  0
    1.3129    0.0925   -4.5105 C   0  0  0  0  0  0  0  0  0  0  0  0
    2.4563   -2.6408   -3.3995 H   0  0  0  0  0  0  0  0  0  0  0  0
    3.1729   -0.5109   -3.6602 H   0  0  0  0  0  0  0  0  0  0  0  0
    0.2544    0.1828   -4.2492 H   0  0  0  0  0  0  0  0  0  0  0  0
    1.6933    1.0939   -4.7373 H   0  0  0  0  0  0  0  0  0  0  0  0
    1.3988   -0.5214   -5.4121 H   0  0  0  0  0  0  0  0  0  0  0  0
    0.9084    0.3043   -1.3160 N   0  0  0  0  0  0  0  0  0  0  0  0
    0.6555    0.4872    0.1319 C   0  0  2  0  0  0  0  0  0  0  0  0
   -0.8639    0.6844    0.3818 C   0  0  0  0  0  0  0  0  0  0  0  0
   -1.2720    1.3517    1.3238 O   0  0  0  0  0  0  0  0  0  0  0  0
    1.6097    1.2332    1.1193 C   0  0  0  0  0  0  0  0  0  0  0  0
    3.0213    0.6717    1.4833 C   0  0  0  0  0  0  0  0  0  0  0  0
    3.7413    1.7180    2.3461 C   0  0  0  0  0  0  0  0  0  0  0  0
    4.0011    0.1778    0.4211 C   0  0  0  0  0  0  0  0  0  0  0  0
    0.2436   -0.3274   -1.7585 H   0  0  0  0  0  0  0  0  0  0  0  0
    0.7855   -0.5344    0.5003 H   0  0  0  0  0  0  0  0  0  0  0  0
    1.0857    1.3573    2.0722 H   0  0  0  0  0  0  0  0  0  0  0  0
    1.7497    2.2352    0.7005 H   0  0  0  0  0  0  0  0  0  0  0  0
    2.8272   -0.2001    2.1173 H   0  0  0  0  0  0  0  0  0  0  0  0
    3.9628    2.6139    1.7570 H   0  0  0  0  0  0  0  0  0  0  0  0
    4.6830    1.3166    2.7338 H   0  0  0  0  0  0  0  0  0  0  0  0
    3.1194    2.0078    3.1988 H   0  0  0  0  0  0  0  0  0  0  0  0
    4.8666   -0.2859    0.9048 H   0  0  0  0  0  0  0  0  0  0  0  0
    4.3744    1.0084   -0.1825 H   0  0  0  0  0  0  0  0  0  0  0  0
    3.5409   -0.5826   -0.2119 H   0  0  0  0  0  0  0  0  0  0  0  0
   -1.7888    0.0862   -0.4679 N   0  0  0  0  0  0  0  0  0  0  0  0
   -3.2618    0.0879   -0.3405 C   0  0  2  0  0  0  0  0  0  0  0  0
   -3.9473    1.4586   -0.5503 C   0  0  0  0  0  0  0  0  0  0  0  0
   -4.9569    1.5239   -1.2404 O   0  0  0  0  0  0  0  0  0  0  0  0
   -3.7046   -0.5434    0.9868 C   0  0  0  0  0  0  0  0  0  0  0  0
   -1.4039   -0.4663   -1.2346 H   0  0  0  0  0  0  0  0  0  0  0  0
   -3.6413   -0.5571   -1.1399 H   0  0  0  0  0  0  0  0  0  0  0  0
   -3.4554    0.1005    1.8353 H   0  0  0  0  0  0  0  0  0  0  0  0
   -4.7884   -0.6971    0.9840 H   0  0  0  0  0  0  0  0  0  0  0  0
   -3.2179   -1.5129    1.1282 H   0  0  0  0  0  0  0  0  0  0  0  0
   -3.4694    2.6053    0.0512 N   0  0  0  0  0  0  0  0  0  0  0  0
   -4.1069    3.9103   -0.0519 C   0  0  0  0  0  0  0  0  0  0  0  0
   -2.6614    2.4856    0.6681 H   0  0  0  0  0  0  0  0  0  0  0  0
   -3.5399    4.6529    0.5177 H   0  0  0  0  0  0  0  0  0  0  0  0
   -4.1489    4.2344   -1.0969 H   0  0  0  0  0  0  0  0  0  0  0  0
   -5.1256    3.8707    0.3473 H   0  0  0  0  0  0  0  0  0  0  0  0
  1  2  2  0  0  0  0
  1  3  1  0  0  0  0
  1  7  1  0  0  0  0
  3  4  1  0  0  0  0
  3  5  1  0  0  0  0
  3  6  1  0  0  0  0
  7  8  1  0  0  0  0
  7 12  1  0  0  0  0
  8  9  1  0  0  0  0
  8 11  1  0  0  0  0
  8 13  1  0  0  0  0
  9 10  2  0  0  0  0
  9 17  1  0  0  0  0
 11 14  1  0  0  0  0
 11 15  1  0  0  0  0
 11 16  1  0  0  0  0
 17 18  1  0  0  0  0
 17 25  1  0  0  0  0
 18 19  1  0  0  0  0
 18 21  1  0  0  0  0
 18 26  1  0  0  0  0
 19 20  2  0  0  0  0
 19 36  1  0  0  0  0
 21 22  1  0  0  0  0
 21 27  1  0  0  0  0
 21 28  1  0  0  0  0
 22 23  1  0  0  0  0
 22 24  1  0  0  0  0
 22 29  1  0  0  0  0
 23 30  1  0  0  0  0
 23 31  1  0  0  0  0
 23 32  1  0  0  0  0
 24 33  1  0  0  0  0
 24 34  1  0  0  0  0
 24 35  1  0  0  0  0
 36 37  1  0  0  0  0
 36 41  1  0  0  0  0
 37 38  1  0  0  0  0
 37 40  1  0  0  0  0
 37 42  1  0  0  0  0
 38 39  2  0  0  0  0
 38 46  1  0  0  0  0
 40 43  1  0  0  0  0
 40 44  1  0  0  0  0
 40 45  1  0  0  0  0
 46 47  1  0  0  0  0
 46 48  1  0  0  0  0
 47 49  1  0  0  0  0
 47 50  1  0  0  0  0
 47 51  1  0  0  0  0
M  END
$$$$

  -OEChem-05262216553D

 51 50  0     1  0  0  0  0  0999 V2000
    0.6027   -2.4378   -2.8698 C   0  0  0  0  0  0  0  0  0  0  0  0
   -0.3663   -1.8133   -2.4562 O   0  0  0  0  0  0  0  0  0  0  0  0
    0.5342   -3.9514   -2.9458 C   0  0  0  0  0  0  0  0  0  0  0  0
    1.2731   -4.3946   -2.2735 H   0  0  0  0  0  0  0  0  0  0  0  0
   -0.4605   -4.3009   -2.6547 H   0  0  0  0  0  0  0  0  0  0  0  0
    0.7363   -4.2841   -3.9671 H   0  0  0  0  0  0  0  0  0  0  0  0
    1.7806   -1.8000   -3.2229 N   0  0  0  0  0  0  0  0  0  0  0  0
    2.0216   -0.3441   -3.3574 C   0  0  2  0  0  0  0  0  0  0  0  0
    1.9514    0.4698   -2.0445 C   0  0  0  0  0  0  0  0  0  0  0  0
    2.7135    1.4053   -1.8771 O   0  0  0  0  0  0  0  0  0  0  0  0
    1.0850    0.2550   -4.4160 C   0  0  0  0  0  0  0  0  0  0  0  0
    2.5268   -2.4153   -3.5375 H   0  0  0  0  0  0  0  0  0  0  0  0
    3.0459   -0.2210   -3.7251 H   0  0  0  0  0  0  0  0  0  0  0  0
    0.0415    0.2221   -4.0885 H   0  0  0  0  0  0  0  0  0  0  0  0
    1.3506    1.3008   -4.6022 H   0  0  0  0  0  0  0  0  0  0  0  0
    1.1715   -0.2961   -5.3571 H   0  0  0  0  0  0  0  0  0  0  0  0
    0.8329    0.3549   -1.2570 N   0  0  0  0  0  0  0  0  0  0  0  0
    0.5943    0.4189    0.2021 C   0  0  2  0  0  0  0  0  0  0  0  0
   -0.9217    0.6022    0.4534 C   0  0  0  0  0  0  0  0  0  0  0  0
   -1.3423    1.4101    1.2721 O   0  0  0  0  0  0  0  0  0  0  0  0
    1.5283    1.1063    1.2474 C   0  0  0  0  0  0  0  0  0  0  0  0
    2.9561    0.5616    1.5672 C   0  0  0  0  0  0  0  0  0  0  0  0
    3.6429    1.5556    2.5147 C   0  0  0  0  0  0  0  0  0  0  0  0
    3.9487    0.1999    0.4659 C   0  0  0  0  0  0  0  0  0  0  0  0
    0.1616   -0.2445   -1.7370 H   0  0  0  0  0  0  0  0  0  0  0  0
    0.7354   -0.6259    0.4935 H   0  0  0  0  0  0  0  0  0  0  0  0
    0.9959    1.1339    2.2040 H   0  0  0  0  0  0  0  0  0  0  0  0
    1.6379    2.1436    0.9132 H   0  0  0  0  0  0  0  0  0  0  0  0
    2.7931   -0.3676    2.1235 H   0  0  0  0  0  0  0  0  0  0  0  0
    3.8350    2.5040    2.0024 H   0  0  0  0  0  0  0  0  0  0  0  0
    4.5973    1.1537    2.8695 H   0  0  0  0  0  0  0  0  0  0  0  0
    3.0133    1.7540    3.3876 H   0  0  0  0  0  0  0  0  0  0  0  0
    4.8356   -0.2657    0.9066 H   0  0  0  0  0  0  0  0  0  0  0  0
    4.2821    1.0936   -0.0673 H   0  0  0  0  0  0  0  0  0  0  0  0
    3.5164   -0.5240   -0.2268 H   0  0  0  0  0  0  0  0  0  0  0  0
   -1.8215   -0.1770   -0.2650 N   0  0  0  0  0  0  0  0  0  0  0  0
   -3.2928   -0.2073   -0.1269 C   0  0  2  0  0  0  0  0  0  0  0  0
   -4.0271    1.0771   -0.5769 C   0  0  0  0  0  0  0  0  0  0  0  0
   -5.0398    0.9804   -1.2587 O   0  0  0  0  0  0  0  0  0  0  0  0
   -3.7070   -0.5987    1.2985 C   0  0  0  0  0  0  0  0  0  0  0  0
   -1.4156   -0.8061   -0.9604 H   0  0  0  0  0  0  0  0  0  0  0  0
   -3.6501   -1.0008   -0.7914 H   0  0  0  0  0  0  0  0  0  0  0  0
   -3.4824    0.2003    2.0110 H   0  0  0  0  0  0  0  0  0  0  0  0
   -4.7834   -0.7930    1.3350 H   0  0  0  0  0  0  0  0  0  0  0  0
   -3.1809   -1.5047    1.6129 H   0  0  0  0  0  0  0  0  0  0  0  0
   -3.5817    2.3300   -0.2076 N   0  0  0  0  0  0  0  0  0  0  0  0
   -4.2579    3.5722   -0.5521 C   0  0  0  0  0  0  0  0  0  0  0  0
   -2.7711    2.3528    0.4176 H   0  0  0  0  0  0  0  0  0  0  0  0
   -3.6886    4.4272   -0.1754 H   0  0  0  0  0  0  0  0  0  0  0  0
   -4.3490    3.6703   -1.6389 H   0  0  0  0  0  0  0  0  0  0  0  0
   -5.2589    3.5979   -0.1092 H   0  0  0  0  0  0  0  0  0  0  0  0
  1  2  2  0  0  0  0
  1  3  1  0  0  0  0
  1  7  1  0  0  0  0
  3  4  1  0  0  0  0
  3  5  1  0  0  0  0
  3  6  1  0  0  0  0
  7  8  1  0  0  0  0
  7 12  1  0  0  0  0
  8  9  1  0  0  0  0
  8 11  1  0  0  0  0
  8 13  1  0  0  0  0
  9 10  2  0  0  0  0
  9 17  1  0  0  0  0
 11 14  1  0  0  0  0
 11 15  1  0  0  0  0
 11 16  1  0  0  0  0
 17 18  1  0  0  0  0
 17 25  1  0  0  0  0
 18 19  1  0  0  0  0
 18 21  1  0  0  0  0
 18 26  1  0  0  0  0
 19 20  2  0  0  0  0
 19 36  1  0  0  0  0
 21 22  1  0  0  0  0
 21 27  1  0  0  0  0
 21 28  1  0  0  0  0
 22 23  1  0  0  0  0
 22 24  1  0  0  0  0
 22 29  1  0  0  0  0
 23 30  1  0  0  0  0
 23 31  1  0  0  0  0
 23 32  1  0  0  0  0
 24 33  1  0  0  0  0
 24 34  1  0  0  0  0
 24 35  1  0  0  0  0
 36 37  1  0  0  0  0
 36 41  1  0  0  0  0
 37 38  1  0  0  0  0
 37 40  1  0  0  0  0
 37 42  1  0  0  0  0
 38 39  2  0  0  0  0
 38 46  1  0  0  0  0
 40 43  1  0  0  0  0
 40 44  1  0  0  0  0
 40 45  1  0  0  0  0
 46 47  1  0  0  0  0
 46 48  1  0  0  0  0
 47 49  1  0  0  0  0
 47 50  1  0  0  0  0
 47 51  1  0  0  0  0
M  END
$$$$

  -OEChem-05262216553D

 51 50  0     1  0  0  0  0  0999 V2000
    0.6284   -2.4476   -2.7869 C   0  0  0  0  0  0  0  0  0  0  0  0
   -0.3487   -1.8866   -2.3072 O   0  0  0  0  0  0  0  0  0  0  0  0
    0.6529   -3.9629   -2.8552 C   0  0  0  0  0  0  0  0  0  0  0  0
    1.4789   -4.3520   -2.2546 H   0  0  0  0  0  0  0  0  0  0  0  0
   -0.2850   -4.3755   -2.4723 H   0  0  0  0  0  0  0  0  0  0  0  0
    0.7801   -4.2881   -3.8908 H   0  0  0  0  0  0  0  0  0  0  0  0
    1.7352   -1.7376   -3.2236 N   0  0  0  0  0  0  0  0  0  0  0  0
    1.8795   -0.2695   -3.3622 C   0  0  2  0  0  0  0  0  0  0  0  0
    1.8375    0.5319   -2.0404 C   0  0  0  0  0  0  0  0  0  0  0  0
    2.5876    1.4794   -1.8872 O   0  0  0  0  0  0  0  0  0  0  0  0
    0.8477    0.2737   -4.3608 C   0  0  0  0  0  0  0  0  0  0  0  0
    2.4939   -2.3056   -3.5920 H   0  0  0  0  0  0  0  0  0  0  0  0
    2.8708   -0.0823   -3.7883 H   0  0  0  0  0  0  0  0  0  0  0  0
   -0.1715    0.1693   -3.9767 H   0  0  0  0  0  0  0  0  0  0  0  0
    1.0332    1.3360   -4.5505 H   0  0  0  0  0  0  0  0  0  0  0  0
    0.9174   -0.2634   -5.3116 H   0  0  0  0  0  0  0  0  0  0  0  0
    0.7490    0.3824   -1.2183 N   0  0  0  0  0  0  0  0  0  0  0  0
    0.5655    0.3626    0.2489 C   0  0  2  0  0  0  0  0  0  0  0  0
   -0.9401    0.5459    0.5342 C   0  0  0  0  0  0  0  0  0  0  0  0
   -1.3577    1.4653    1.2271 O   0  0  0  0  0  0  0  0  0  0  0  0
    1.5035    1.0304    1.3012 C   0  0  0  0  0  0  0  0  0  0  0  0
    2.9626    0.5375    1.5527 C   0  0  0  0  0  0  0  0  0  0  0  0
    3.6306    1.5116    2.5341 C   0  0  0  0  0  0  0  0  0  0  0  0
    3.9359    0.2936    0.4037 C   0  0  0  0  0  0  0  0  0  0  0  0
    0.0721   -0.2175   -1.6930 H   0  0  0  0  0  0  0  0  0  0  0  0
    0.7272   -0.6917    0.4907 H   0  0  0  0  0  0  0  0  0  0  0  0
    0.9941    0.9851    2.2698 H   0  0  0  0  0  0  0  0  0  0  0  0
    1.5588    2.0876    1.0203 H   0  0  0  0  0  0  0  0  0  0  0  0
    2.8621   -0.4285    2.0588 H   0  0  0  0  0  0  0  0  0  0  0  0
    3.7686    2.4923    2.0675 H   0  0  0  0  0  0  0  0  0  0  0  0
    4.6102    1.1343    2.8440 H   0  0  0  0  0  0  0  0  0  0  0  0
    3.0164    1.6372    3.4311 H   0  0  0  0  0  0  0  0  0  0  0  0
    4.8662   -0.1334    0.7907 H   0  0  0  0  0  0  0  0  0  0  0  0
    4.1908    1.2316   -0.0955 H   0  0  0  0  0  0  0  0  0  0  0  0
    3.5247   -0.4233   -0.3088 H   0  0  0  0  0  0  0  0  0  0  0  0
   -1.8215   -0.3960    0.0197 N   0  0  0  0  0  0  0  0  0  0  0  0
   -3.2886   -0.4347    0.1885 C   0  0  2  0  0  0  0  0  0  0  0  0
   -4.0565    0.7279   -0.4819 C   0  0  0  0  0  0  0  0  0  0  0  0
   -5.0250    0.4790   -1.1887 O   0  0  0  0  0  0  0  0  0  0  0  0
   -3.6738   -0.5565    1.6690 C   0  0  0  0  0  0  0  0  0  0  0  0
   -1.4171   -1.0700   -0.6336 H   0  0  0  0  0  0  0  0  0  0  0  0
   -3.6360   -1.3478   -0.3062 H   0  0  0  0  0  0  0  0  0  0  0  0
   -3.4528    0.3655    2.2145 H   0  0  0  0  0  0  0  0  0  0  0  0
   -4.7460   -0.7562    1.7603 H   0  0  0  0  0  0  0  0  0  0  0  0
   -3.1267   -1.3793    2.1382 H   0  0  0  0  0  0  0  0  0  0  0  0
   -3.6896    2.0433   -0.2804 N   0  0  0  0  0  0  0  0  0  0  0  0
   -4.3995    3.1847   -0.8392 C   0  0  0  0  0  0  0  0  0  0  0  0
   -2.8843    2.1997    0.3329 H   0  0  0  0  0  0  0  0  0  0  0  0
   -3.9427    4.1176   -0.4951 H   0  0  0  0  0  0  0  0  0  0  0  0
   -4.3599    3.1617   -1.9329 H   0  0  0  0  0  0  0  0  0  0  0  0
   -5.4479    3.1756   -0.5232 H   0  0  0  0  0  0  0  0  0  0  0  0
  1  2  2  0  0  0  0
  1  3  1  0  0  0  0
  1  7  1  0  0  0  0
  3  4  1  0  0  0  0
  3  5  1  0  0  0  0
  3  6  1  0  0  0  0
  7  8  1  0  0  0  0
  7 12  1  0  0  0  0
  8  9  1  0  0  0  0
  8 11  1  0  0  0  0
  8 13  1  0  0  0  0
  9 10  2  0  0  0  0
  9 17  1  0  0  0  0
 11 14  1  0  0  0  0
 11 15  1  0  0  0  0
 11 16  1  0  0  0  0
 17 18  1  0  0  0  0
 17 25  1  0  0  0  0
 18 19  1  0  0  0  0
 18 21  1  0  0  0  0
 18 26  1  0  0  0  0
 19 20  2  0  0  0  0
 19 36  1  0  0  0  0
 21 22  1  0  0  0  0
 21 27  1  0  0  0  0
 21 28  1  0  0  0  0
 22 23  1  0  0  0  0
 22 24  1  0  0  0  0
 22 29  1  0  0  0  0
 23 30  1  0  0  0  0
 23 31  1  0  0  0  0
 23 32  1  0  0  0  0
 24 33  1  0  0  0  0
 24 34  1  0  0  0  0
 24 35  1  0  0  0  0
 36 37  1  0  0  0  0
 36 41  1  0  0  0  0
 37 38  1  0  0  0  0
 37 40  1  0  0  0  0
 37 42  1  0  0  0  0
 38 39  2  0  0  0  0
 38 46  1  0  0  0  0
 40 43  1  0  0  0  0
 40 44  1  0  0  0  0
 40 45  1  0  0  0  0
 46 47  1  0  0  0  0
 46 48  1  0  0  0  0
 47 49  1  0  0  0  0
 47 50  1  0  0  0  0
 47 51  1  0  0  0  0
M  END
$$$$

  -OEChem-05262216553D

 51 50  0     1  0  0  0  0  0999 V2000
    0.7030   -2.3848   -2.7827 C   0  0  0  0  0  0  0  0  0  0  0  0
   -0.2857   -1.9016   -2.2467 O   0  0  0  0  0  0  0  0  0  0  0  0
    0.8180   -3.8927   -2.9022 C   0  0  0  0  0  0  0  0  0  0  0  0
    1.6623   -4.2532   -2.3092 H   0  0  0  0  0  0  0  0  0  0  0  0
   -0.0966   -4.3723   -2.5414 H   0  0  0  0  0  0  0  0  0  0  0  0
    0.9696   -4.1736   -3.9474 H   0  0  0  0  0  0  0  0  0  0  0  0
    1.7417   -1.5930   -3.2442 N   0  0  0  0  0  0  0  0  0  0  0  0
    1.7819   -0.1157   -3.3432 C   0  0  2  0  0  0  0  0  0  0  0  0
    1.7331    0.6411   -1.9953 C   0  0  0  0  0  0  0  0  0  0  0  0
    2.4649    1.5988   -1.8166 O   0  0  0  0  0  0  0  0  0  0  0  0
    0.6806    0.3831   -4.2900 C   0  0  0  0  0  0  0  0  0  0  0  0
    2.5204   -2.0992   -3.6584 H   0  0  0  0  0  0  0  0  0  0  0  0
    2.7423    0.1508   -3.7970 H   0  0  0  0  0  0  0  0  0  0  0  0
   -0.3151    0.1932   -3.8785 H   0  0  0  0  0  0  0  0  0  0  0  0
    0.7837    1.4614   -4.4494 H   0  0  0  0  0  0  0  0  0  0  0  0
    0.7565   -0.1176   -5.2598 H   0  0  0  0  0  0  0  0  0  0  0  0
    0.6587    0.4390   -1.1655 N   0  0  0  0  0  0  0  0  0  0  0  0
    0.5184    0.3110    0.3002 C   0  0  2  0  0  0  0  0  0  0  0  0
   -0.9751    0.4845    0.6405 C   0  0  0  0  0  0  0  0  0  0  0  0
   -1.3910    1.4941    1.1948 O   0  0  0  0  0  0  0  0  0  0  0  0
    1.4650    0.9214    1.3779 C   0  0  0  0  0  0  0  0  0  0  0  0
    2.9413    0.4547    1.5666 C   0  0  0  0  0  0  0  0  0  0  0  0
    3.5958    1.3770    2.6058 C   0  0  0  0  0  0  0  0  0  0  0  0
    3.8986    0.3386    0.3849 C   0  0  0  0  0  0  0  0  0  0  0  0
   -0.0058   -0.1664   -1.6530 H   0  0  0  0  0  0  0  0  0  0  0  0
    0.6953   -0.7560    0.4636 H   0  0  0  0  0  0  0  0  0  0  0  0
    0.9740    0.7947    2.3488 H   0  0  0  0  0  0  0  0  0  0  0  0
    1.4886    1.9973    1.1726 H   0  0  0  0  0  0  0  0  0  0  0  0
    2.8825   -0.5500    1.9984 H   0  0  0  0  0  0  0  0  0  0  0  0
    3.6841    2.3961    2.2150 H   0  0  0  0  0  0  0  0  0  0  0  0
    4.5968    1.0176    2.8648 H   0  0  0  0  0  0  0  0  0  0  0  0
    2.9993    1.4078    3.5229 H   0  0  0  0  0  0  0  0  0  0  0  0
    4.8558   -0.0716    0.7214 H   0  0  0  0  0  0  0  0  0  0  0  0
    4.0991    1.3211   -0.0499 H   0  0  0  0  0  0  0  0  0  0  0  0
    3.5041   -0.3435   -0.3698 H   0  0  0  0  0  0  0  0  0  0  0  0
   -1.8382   -0.5645    0.3573 N   0  0  0  0  0  0  0  0  0  0  0  0
   -3.2963   -0.6064    0.5957 C   0  0  2  0  0  0  0  0  0  0  0  0
   -4.1217    0.3902   -0.2511 C   0  0  0  0  0  0  0  0  0  0  0  0
   -5.1178   -0.0057   -0.8426 O   0  0  0  0  0  0  0  0  0  0  0  0
   -3.6227   -0.4563    2.0882 C   0  0  0  0  0  0  0  0  0  0  0  0
   -1.4504   -1.2949   -0.2407 H   0  0  0  0  0  0  0  0  0  0  0  0
   -3.6337   -1.6047    0.2982 H   0  0  0  0  0  0  0  0  0  0  0  0
   -3.4195    0.5591    2.4404 H   0  0  0  0  0  0  0  0  0  0  0  0
   -4.6819   -0.6701    2.2620 H   0  0  0  0  0  0  0  0  0  0  0  0
   -3.0266   -1.1568    2.6804 H   0  0  0  0  0  0  0  0  0  0  0  0
   -3.7609    1.7188   -0.3530 N   0  0  0  0  0  0  0  0  0  0  0  0
   -4.5038    2.7138   -1.1125 C   0  0  0  0  0  0  0  0  0  0  0  0
   -2.9429    2.0077    0.1913 H   0  0  0  0  0  0  0  0  0  0  0  0
   -4.0027    3.6847   -1.0511 H   0  0  0  0  0  0  0  0  0  0  0  0
   -4.5665    2.4230   -2.1663 H   0  0  0  0  0  0  0  0  0  0  0  0
   -5.5178    2.8205   -0.7137 H   0  0  0  0  0  0  0  0  0  0  0  0
  1  2  2  0  0  0  0
  1  3  1  0  0  0  0
  1  7  1  0  0  0  0
  3  4  1  0  0  0  0
  3  5  1  0  0  0  0
  3  6  1  0  0  0  0
  7  8  1  0  0  0  0
  7 12  1  0  0  0  0
  8  9  1  0  0  0  0
  8 11  1  0  0  0  0
  8 13  1  0  0  0  0
  9 10  2  0  0  0  0
  9 17  1  0  0  0  0
 11 14  1  0  0  0  0
 11 15  1  0  0  0  0
 11 16  1  0  0  0  0
 17 18  1  0  0  0  0
 17 25  1  0  0  0  0
 18 19  1  0  0  0  0
 18 21  1  0  0  0  0
 18 26  1  0  0  0  0
 19 20  2  0  0  0  0
 19 36  1  0  0  0  0
 21 22  1  0  0  0  0
 21 27  1  0  0  0  0
 21 28  1  0  0  0  0
 22 23  1  0  0  0  0
 22 24  1  0  0  0  0
 22 29  1  0  0  0  0
 23 30  1  0  0  0  0
 23 31  1  0  0  0  0
 23 32  1  0  0  0  0
 24 33  1  0  0  0  0
 24 34  1  0  0  0  0
 24 35  1  0  0  0  0
 36 37  1  0  0  0  0
 36 41  1  0  0  0  0
 37 38  1  0  0  0  0
 37 40  1  0  0  0  0
 37 42  1  0  0  0  0
 38 39  2  0  0  0  0
 38 46  1  0  0  0  0
 40 43  1  0  0  0  0
 40 44  1  0  0  0  0
 40 45  1  0  0  0  0
 46 47  1  0  0  0  0
 46 48  1  0  0  0  0
 47 49  1  0  0  0  0
 47 50  1  0  0  0  0
 47 51  1  0  0  0  0
M  END
$$$$

  -OEChem-05262216553D

 51 50  0     1  0  0  0  0  0999 V2000
    0.8245   -2.3592   -2.7751 C   0  0  0  0  0  0  0  0  0  0  0  0
   -0.1869   -1.9225   -2.2444 O   0  0  0  0  0  0  0  0  0  0  0  0
    1.0210   -3.8597   -2.8808 C   0  0  0  0  0  0  0  0  0  0  0  0
    1.9430   -4.1544   -2.3735 H   0  0  0  0  0  0  0  0  0  0  0  0
    0.1816   -4.3855   -2.4167 H   0  0  0  0  0  0  0  0  0  0  0  0
    1.0810   -4.1547   -3.9315 H   0  0  0  0  0  0  0  0  0  0  0  0
    1.8125   -1.5142   -3.2498 N   0  0  0  0  0  0  0  0  0  0  0  0
    1.7633   -0.0386   -3.3438 C   0  0  2  0  0  0  0  0  0  0  0  0
    1.6662    0.7057   -1.9919 C   0  0  0  0  0  0  0  0  0  0  0  0
    2.3947    1.6608   -1.7834 O   0  0  0  0  0  0  0  0  0  0  0  0
    0.6396    0.3979   -4.2945 C   0  0  0  0  0  0  0  0  0  0  0  0
    2.6162   -1.9741   -3.6695 H   0  0  0  0  0  0  0  0  0  0  0  0
    2.7081    0.2872   -3.7917 H   0  0  0  0  0  0  0  0  0  0  0  0
   -0.3454    0.1458   -3.8904 H   0  0  0  0  0  0  0  0  0  0  0  0
    0.6790    1.4812   -4.4480 H   0  0  0  0  0  0  0  0  0  0  0  0
    0.7519   -0.0921   -5.2663 H   0  0  0  0  0  0  0  0  0  0  0  0
    0.5769    0.5072   -1.1789 N   0  0  0  0  0  0  0  0  0  0  0  0
    0.4562    0.3667    0.2881 C   0  0  2  0  0  0  0  0  0  0  0  0
   -1.0194    0.5500    0.6951 C   0  0  0  0  0  0  0  0  0  0  0  0
   -1.4446    1.6475    1.0311 O   0  0  0  0  0  0  0  0  0  0  0  0
    1.4501    0.9162    1.3541 C   0  0  0  0  0  0  0  0  0  0  0  0
    2.9046    0.3698    1.5047 C   0  0  0  0  0  0  0  0  0  0  0  0
    3.6317    1.2404    2.5394 C   0  0  0  0  0  0  0  0  0  0  0  0
    3.8304    0.1971    0.3035 C   0  0  0  0  0  0  0  0  0  0  0  0
   -0.0713   -0.1200   -1.6622 H   0  0  0  0  0  0  0  0  0  0  0  0
    0.6177   -0.7069    0.4194 H   0  0  0  0  0  0  0  0  0  0  0  0
    0.9714    0.8061    2.3333 H   0  0  0  0  0  0  0  0  0  0  0  0
    1.5258    1.9916    1.1585 H   0  0  0  0  0  0  0  0  0  0  0  0
    2.7961   -0.6324    1.9321 H   0  0  0  0  0  0  0  0  0  0  0  0
    3.7759    2.2551    2.1544 H   0  0  0  0  0  0  0  0  0  0  0  0
    4.6127    0.8173    2.7775 H   0  0  0  0  0  0  0  0  0  0  0  0
    3.0540    1.3001    3.4671 H   0  0  0  0  0  0  0  0  0  0  0  0
    4.7631   -0.2795    0.6206 H   0  0  0  0  0  0  0  0  0  0  0  0
    4.0911    1.1653   -0.1306 H   0  0  0  0  0  0  0  0  0  0  0  0
    3.3774   -0.4525   -0.4471 H   0  0  0  0  0  0  0  0  0  0  0  0
   -1.8486   -0.5608    0.7408 N   0  0  0  0  0  0  0  0  0  0  0  0
   -3.2740   -0.5932    1.1309 C   0  0  2  0  0  0  0  0  0  0  0  0
   -4.2283    0.1537    0.1696 C   0  0  0  0  0  0  0  0  0  0  0  0
   -5.2317   -0.4158   -0.2399 O   0  0  0  0  0  0  0  0  0  0  0  0
   -3.4672   -0.1154    2.5771 C   0  0  0  0  0  0  0  0  0  0  0  0
   -1.4730   -1.4002    0.3047 H   0  0  0  0  0  0  0  0  0  0  0  0
   -3.5831   -1.6432    1.1031 H   0  0  0  0  0  0  0  0  0  0  0  0
   -3.2811    0.9584    2.6701 H   0  0  0  0  0  0  0  0  0  0  0  0
   -4.4942   -0.3111    2.9013 H   0  0  0  0  0  0  0  0  0  0  0  0
   -2.7855   -0.6470    3.2475 H   0  0  0  0  0  0  0  0  0  0  0  0
   -3.9719    1.4465   -0.2414 N   0  0  0  0  0  0  0  0  0  0  0  0
   -4.8204    2.1992   -1.1537 C   0  0  0  0  0  0  0  0  0  0  0  0
   -3.1243    1.8816    0.1348 H   0  0  0  0  0  0  0  0  0  0  0  0
   -4.4024    3.1966   -1.3212 H   0  0  0  0  0  0  0  0  0  0  0  0
   -4.8918    1.6868   -2.1187 H   0  0  0  0  0  0  0  0  0  0  0  0
   -5.8266    2.3111   -0.7367 H   0  0  0  0  0  0  0  0  0  0  0  0
  1  2  2  0  0  0  0
  1  3  1  0  0  0  0
  1  7  1  0  0  0  0
  3  4  1  0  0  0  0
  3  5  1  0  0  0  0
  3  6  1  0  0  0  0
  7  8  1  0  0  0  0
  7 12  1  0  0  0  0
  8  9  1  0  0  0  0
  8 11  1  0  0  0  0
  8 13  1  0  0  0  0
  9 10  2  0  0  0  0
  9 17  1  0  0  0  0
 11 14  1  0  0  0  0
 11 15  1  0  0  0  0
 11 16  1  0  0  0  0
 17 18  1  0  0  0  0
 17 25  1  0  0  0  0
 18 19  1  0  0  0  0
 18 21  1  0  0  0  0
 18 26  1  0  0  0  0
 19 20  2  0  0  0  0
 19 36  1  0  0  0  0
 21 22  1  0  0  0  0
 21 27  1  0  0  0  0
 21 28  1  0  0  0  0
 22 23  1  0  0  0  0
 22 24  1  0  0  0  0
 22 29  1  0  0  0  0
 23 30  1  0  0  0  0
 23 31  1  0  0  0  0
 23 32  1  0  0  0  0
 24 33  1  0  0  0  0
 24 34  1  0  0  0  0
 24 35  1  0  0  0  0
 36 37  1  0  0  0  0
 36 41  1  0  0  0  0
 37 38  1  0  0  0  0
 37 40  1  0  0  0  0
 37 42  1  0  0  0  0
 38 39  2  0  0  0  0
 38 46  1  0  0  0  0
 40 43  1  0  0  0  0
 40 44  1  0  0  0  0
 40 45  1  0  0  0  0
 46 47  1  0  0  0  0
 46 48  1  0  0  0  0
 47 49  1  0  0  0  0
 47 50  1  0  0  0  0
 47 51  1  0  0  0  0
M  END
$$$$

  -OEChem-05262216553D

 51 50  0     1  0  0  0  0  0999 V2000
    0.8790   -2.3782   -2.7426 C   0  0  0  0  0  0  0  0  0  0  0  0
   -0.1331   -1.9665   -2.1949 O   0  0  0  0  0  0  0  0  0  0  0  0
    1.1301   -3.8721   -2.8264 C   0  0  0  0  0  0  0  0  0  0  0  0
    2.0687   -4.1234   -2.3261 H   0  0  0  0  0  0  0  0  0  0  0  0
    0.3164   -4.4207   -2.3430 H   0  0  0  0  0  0  0  0  0  0  0  0
    1.1883   -4.1832   -3.8727 H   0  0  0  0  0  0  0  0  0  0  0  0
    1.8188   -1.5044   -3.2586 N   0  0  0  0  0  0  0  0  0  0  0  0
    1.7111   -0.0330   -3.3497 C   0  0  2  0  0  0  0  0  0  0  0  0
    1.6374    0.7005   -1.9904 C   0  0  0  0  0  0  0  0  0  0  0  0
    2.3932    1.6340   -1.7806 O   0  0  0  0  0  0  0  0  0  0  0  0
    0.5384    0.3645   -4.2583 C   0  0  0  0  0  0  0  0  0  0  0  0
    2.6348   -1.9358   -3.6846 H   0  0  0  0  0  0  0  0  0  0  0  0
    2.6262    0.3272   -3.8316 H   0  0  0  0  0  0  0  0  0  0  0  0
   -0.4217    0.0726   -3.8228 H   0  0  0  0  0  0  0  0  0  0  0  0
    0.5301    1.4492   -4.4060 H   0  0  0  0  0  0  0  0  0  0  0  0
    0.6358   -0.1164   -5.2361 H   0  0  0  0  0  0  0  0  0  0  0  0
    0.5500    0.5255   -1.1676 N   0  0  0  0  0  0  0  0  0  0  0  0
    0.4447    0.4122    0.3039 C   0  0  2  0  0  0  0  0  0  0  0  0
   -1.0183    0.6133    0.7493 C   0  0  0  0  0  0  0  0  0  0  0  0
   -1.5012    1.7369    0.7927 O   0  0  0  0  0  0  0  0  0  0  0  0
    1.4574    0.9539    1.3552 C   0  0  0  0  0  0  0  0  0  0  0  0
    2.9008    0.3787    1.5049 C   0  0  0  0  0  0  0  0  0  0  0  0
    3.6515    1.2487    2.5234 C   0  0  0  0  0  0  0  0  0  0  0  0
    3.8163    0.1715    0.3009 C   0  0  0  0  0  0  0  0  0  0  0  0
   -0.1067   -0.1062   -1.6333 H   0  0  0  0  0  0  0  0  0  0  0  0
    0.5963   -0.6623    0.4376 H   0  0  0  0  0  0  0  0  0  0  0  0
    0.9835    0.8676    2.3392 H   0  0  0  0  0  0  0  0  0  0  0  0
    1.5545    2.0244    1.1442 H   0  0  0  0  0  0  0  0  0  0  0  0
    2.7745   -0.6156    1.9463 H   0  0  0  0  0  0  0  0  0  0  0  0
    3.8178    2.2537    2.1216 H   0  0  0  0  0  0  0  0  0  0  0  0
    4.6231    0.8068    2.7657 H   0  0  0  0  0  0  0  0  0  0  0  0
    3.0782    1.3369    3.4515 H   0  0  0  0  0  0  0  0  0  0  0  0
    4.7384   -0.3254    0.6180 H   0  0  0  0  0  0  0  0  0  0  0  0
    4.0993    1.1290   -0.1433 H   0  0  0  0  0  0  0  0  0  0  0  0
    3.3434   -0.4729   -0.4421 H   0  0  0  0  0  0  0  0  0  0  0  0
   -1.7763   -0.4797    1.1427 N   0  0  0  0  0  0  0  0  0  0  0  0
   -3.1751   -0.4681    1.6222 C   0  0  2  0  0  0  0  0  0  0  0  0
   -4.2235   -0.0548    0.5629 C   0  0  0  0  0  0  0  0  0  0  0  0
   -5.1963   -0.7726    0.3698 O   0  0  0  0  0  0  0  0  0  0  0  0
   -3.3211    0.3798    2.8940 C   0  0  0  0  0  0  0  0  0  0  0  0
   -1.3592   -1.3892    0.9638 H   0  0  0  0  0  0  0  0  0  0  0  0
   -3.4206   -1.4978    1.9014 H   0  0  0  0  0  0  0  0  0  0  0  0
   -3.1982    1.4453    2.6787 H   0  0  0  0  0  0  0  0  0  0  0  0
   -4.3154    0.2342    3.3280 H   0  0  0  0  0  0  0  0  0  0  0  0
   -2.5727    0.0857    3.6358 H   0  0  0  0  0  0  0  0  0  0  0  0
   -4.0879    1.1093   -0.1663 N   0  0  0  0  0  0  0  0  0  0  0  0
   -5.0346    1.5599   -1.1760 C   0  0  0  0  0  0  0  0  0  0  0  0
   -3.2541    1.6710    0.0306 H   0  0  0  0  0  0  0  0  0  0  0  0
   -4.7052    2.5127   -1.6014 H   0  0  0  0  0  0  0  0  0  0  0  0
   -5.1092    0.8260   -1.9851 H   0  0  0  0  0  0  0  0  0  0  0  0
   -6.0265    1.7021   -0.7347 H   0  0  0  0  0  0  0  0  0  0  0  0
  1  2  2  0  0  0  0
  1  3  1  0  0  0  0
  1  7  1  0  0  0  0
  3  4  1  0  0  0  0
  3  5  1  0  0  0  0
  3  6  1  0  0  0  0
  7  8  1  0  0  0  0
  7 12  1  0  0  0  0
  8  9  1  0  0  0  0
  8 11  1  0  0  0  0
  8 13  1  0  0  0  0
  9 10  2  0  0  0  0
  9 17  1  0  0  0  0
 11 14  1  0  0  0  0
 11 15  1  0  0  0  0
 11 16  1  0  0  0  0
 17 18  1  0  0  0  0
 17 25  1  0  0  0  0
 18 19  1  0  0  0  0
 18 21  1  0  0  0  0
 18 26  1  0  0  0  0
 19 20  2  0  0  0  0
 19 36  1  0  0  0  0
 21 22  1  0  0  0  0
 21 27  1  0  0  0  0
 21 28  1  0  0  0  0
 22 23  1  0  0  0  0
 22 24  1  0  0  0  0
 22 29  1  0  0  0  0
 23 30  1  0  0  0  0
 23 31  1  0  0  0  0
 23 32  1  0  0  0  0
 24 33  1  0  0  0  0
 24 34  1  0  0  0  0
 24 35  1  0  0  0  0
 36 37  1  0  0  0  0
 36 41  1  0  0  0  0
 37 38  1  0  0  0  0
 37 40  1  0  0  0  0
 37 42  1  0  0  0  0
 38 39  2  0  0  0  0
 38 46  1  0  0  0  0
 40 43  1  0  0  0  0
 40 44  1  0  0  0  0
 40 45  1  0  0  0  0
 46 47  1  0  0  0  0
 46 48  1  0  0  0  0
 47 49  1  0  0  0  0
 47 50  1  0  0  0  0
 47 51  1  0  0  0  0
M  END
$$$$

  -OEChem-05262216553D

 51 50  0     1  0  0  0  0  0999 V2000
    0.6773   -2.3771   -2.7483 C   0  0  0  0  0  0  0  0  0  0  0  0
   -0.3092   -1.8913   -2.2171 O   0  0  0  0  0  0  0  0  0  0  0  0
    0.8252   -3.8855   -2.8200 C   0  0  0  0  0  0  0  0  0  0  0  0
    1.7369   -4.1984   -2.3051 H   0  0  0  0  0  0  0  0  0  0  0  0
   -0.0311   -4.3732   -2.3452 H   0  0  0  0  0  0  0  0  0  0  0  0
    0.8759   -4.2060   -3.8635 H   0  0  0  0  0  0  0  0  0  0  0  0
    1.6811   -1.5728   -3.2556 N   0  0  0  0  0  0  0  0  0  0  0  0
    1.6721   -0.0981   -3.3567 C   0  0  2  0  0  0  0  0  0  0  0  0
    1.6452    0.6509   -2.0040 C   0  0  0  0  0  0  0  0  0  0  0  0
    2.4451    1.5527   -1.8173 O   0  0  0  0  0  0  0  0  0  0  0  0
    0.5345    0.3752   -4.2731 C   0  0  0  0  0  0  0  0  0  0  0  0
    2.4693   -2.0611   -3.6718 H   0  0  0  0  0  0  0  0  0  0  0  0
    2.6113    0.1950   -3.8376 H   0  0  0  0  0  0  0  0  0  0  0  0
   -0.4455    0.1628   -3.8360 H   0  0  0  0  0  0  0  0  0  0  0  0
    0.6090    1.4556   -4.4338 H   0  0  0  0  0  0  0  0  0  0  0  0
    0.5969   -0.1233   -5.2449 H   0  0  0  0  0  0  0  0  0  0  0  0
    0.5679    0.5345   -1.1564 N   0  0  0  0  0  0  0  0  0  0  0  0
    0.4864    0.5139    0.3217 C   0  0  2  0  0  0  0  0  0  0  0  0
   -0.9581    0.7507    0.8124 C   0  0  0  0  0  0  0  0  0  0  0  0
   -1.5538    1.7764    0.5118 O   0  0  0  0  0  0  0  0  0  0  0  0
    1.5458    1.0635    1.3210 C   0  0  0  0  0  0  0  0  0  0  0  0
    2.9593    0.4178    1.4749 C   0  0  0  0  0  0  0  0  0  0  0  0
    3.7826    1.2996    2.4242 C   0  0  0  0  0  0  0  0  0  0  0  0
    3.8316    0.0745    0.2695 C   0  0  0  0  0  0  0  0  0  0  0  0
   -0.1310   -0.0792   -1.5848 H   0  0  0  0  0  0  0  0  0  0  0  0
    0.6142   -0.5579    0.4962 H   0  0  0  0  0  0  0  0  0  0  0  0
    1.0908    1.0625    2.3174 H   0  0  0  0  0  0  0  0  0  0  0  0
    1.6948    2.1126    1.0428 H   0  0  0  0  0  0  0  0  0  0  0  0
    2.7855   -0.5377    1.9808 H   0  0  0  0  0  0  0  0  0  0  0  0
    3.9954    2.2683    1.9606 H   0  0  0  0  0  0  0  0  0  0  0  0
    4.7337    0.8168    2.6700 H   0  0  0  0  0  0  0  0  0  0  0  0
    3.2391    1.4737    3.3581 H   0  0  0  0  0  0  0  0  0  0  0  0
    4.7198   -0.4723    0.6008 H   0  0  0  0  0  0  0  0  0  0  0  0
    4.1775    0.9804   -0.2342 H   0  0  0  0  0  0  0  0  0  0  0  0
    3.2969   -0.5728   -0.4276 H   0  0  0  0  0  0  0  0  0  0  0  0
   -1.5949   -0.2150    1.5786 N   0  0  0  0  0  0  0  0  0  0  0  0
   -2.9566   -0.1477    2.1509 C   0  0  2  0  0  0  0  0  0  0  0  0
   -4.1029   -0.1731    1.1133 C   0  0  0  0  0  0  0  0  0  0  0  0
   -5.0091   -0.9863    1.2426 O   0  0  0  0  0  0  0  0  0  0  0  0
   -3.1043    1.0517    3.0982 C   0  0  0  0  0  0  0  0  0  0  0  0
   -1.0772   -1.0767    1.7229 H   0  0  0  0  0  0  0  0  0  0  0  0
   -3.0859   -1.0478    2.7606 H   0  0  0  0  0  0  0  0  0  0  0  0
   -3.0944    1.9973    2.5482 H   0  0  0  0  0  0  0  0  0  0  0  0
   -4.0529    0.9849    3.6403 H   0  0  0  0  0  0  0  0  0  0  0  0
   -2.2888    1.0635    3.8273 H   0  0  0  0  0  0  0  0  0  0  0  0
   -4.1297    0.7060    0.0497 N   0  0  0  0  0  0  0  0  0  0  0  0
   -5.1670    0.7252   -0.9712 C   0  0  0  0  0  0  0  0  0  0  0  0
   -3.3383    1.3526   -0.0216 H   0  0  0  0  0  0  0  0  0  0  0  0
   -4.9814    1.5372   -1.6808 H   0  0  0  0  0  0  0  0  0  0  0  0
   -5.1795   -0.2212   -1.5215 H   0  0  0  0  0  0  0  0  0  0  0  0
   -6.1500    0.8825   -0.5151 H   0  0  0  0  0  0  0  0  0  0  0  0
  1  2  2  0  0  0  0
  1  3  1  0  0  0  0
  1  7  1  0  0  0  0
  3  4  1  0  0  0  0
  3  5  1  0  0  0  0
  3  6  1  0  0  0  0
  7  8  1  0  0  0  0
  7 12  1  0  0  0  0
  8  9  1  0  0  0  0
  8 11  1  0  0  0  0
  8 13  1  0  0  0  0
  9 10  2  0  0  0  0
  9 17  1  0  0  0  0
 11 14  1  0  0  0  0
 11 15  1  0  0  0  0
 11 16  1  0  0  0  0
 17 18  1  0  0  0  0
 17 25  1  0  0  0  0
 18 19  1  0  0  0  0
 18 21  1  0  0  0  0
 18 26  1  0  0  0  0
 19 20  2  0  0  0  0
 19 36  1  0  0  0  0
 21 22  1  0  0  0  0
 21 27  1  0  0  0  0
 21 28  1  0  0  0  0
 22 23  1  0  0  0  0
 22 24  1  0  0  0  0
 22 29  1  0  0  0  0
 23 30  1  0  0  0  0
 23 31  1  0  0  0  0
 23 32  1  0  0  0  0
 24 33  1  0  0  0  0
 24 34  1  0  0  0  0
 24 35  1  0  0  0  0
 36 37  1  0  0  0  0
 36 41  1  0  0  0  0
 37 38  1  0  0  0  0
 37 40  1  0  0  0  0
 37 42  1  0  0  0  0
 38 39  2  0  0  0  0
 38 46  1  0  0  0  0
 40 43  1  0  0  0  0
 40 44  1  0  0  0  0
 40 45  1  0  0  0  0
 46 47  1  0  0  0  0
 46 48  1  0  0  0  0
 47 49  1  0  0  0  0
 47 50  1  0  0  0  0
 47 51  1  0  0  0  0
M  END
$$$$

  -OEChem-05262216553D

 51 50  0     1  0  0  0  0  0999 V2000
    0.4326   -2.3293   -2.7347 C   0  0  0  0  0  0  0  0  0  0  0  0
   -0.5114   -1.7523   -2.2185 O   0  0  0  0  0  0  0  0  0  0  0  0
    0.4489   -3.8455   -2.7842 C   0  0  0  0  0  0  0  0  0  0  0  0
    1.3547   -4.2264   -2.3061 H   0  0  0  0  0  0  0  0  0  0  0  0
   -0.4214   -4.2500   -2.2593 H   0  0  0  0  0  0  0  0  0  0  0  0
    0.4221   -4.1857   -3.8224 H   0  0  0  0  0  0  0  0  0  0  0  0
    1.5082   -1.6229   -3.2406 N   0  0  0  0  0  0  0  0  0  0  0  0
    1.6376   -0.1538   -3.3406 C   0  0  2  0  0  0  0  0  0  0  0  0
    1.6930    0.5911   -1.9865 C   0  0  0  0  0  0  0  0  0  0  0  0
    2.5585    1.4340   -1.8174 O   0  0  0  0  0  0  0  0  0  0  0  0
    0.5428    0.4299   -4.2455 C   0  0  0  0  0  0  0  0  0  0  0  0
    2.2529   -2.1833   -3.6458 H   0  0  0  0  0  0  0  0  0  0  0  0
    2.5962    0.0493   -3.8296 H   0  0  0  0  0  0  0  0  0  0  0  0
   -0.4492    0.3130   -3.7993 H   0  0  0  0  0  0  0  0  0  0  0  0
    0.7201    1.4985   -4.4044 H   0  0  0  0  0  0  0  0  0  0  0  0
    0.5472   -0.0696   -5.2187 H   0  0  0  0  0  0  0  0  0  0  0  0
    0.6274    0.5503   -1.1172 N   0  0  0  0  0  0  0  0  0  0  0  0
    0.5557    0.5820    0.3616 C   0  0  2  0  0  0  0  0  0  0  0  0
   -0.8726    0.8972    0.8606 C   0  0  0  0  0  0  0  0  0  0  0  0
   -1.5595    1.7368    0.2939 O   0  0  0  0  0  0  0  0  0  0  0  0
    1.6573    1.1006    1.3329 C   0  0  0  0  0  0  0  0  0  0  0  0
    3.0308    0.3754    1.4952 C   0  0  0  0  0  0  0  0  0  0  0  0
    3.9177    1.2352    2.4063 C   0  0  0  0  0  0  0  0  0  0  0  0
    3.8677   -0.0610    0.2947 C   0  0  0  0  0  0  0  0  0  0  0  0
   -0.1317   -0.0009   -1.5284 H   0  0  0  0  0  0  0  0  0  0  0  0
    0.6243   -0.4900    0.5663 H   0  0  0  0  0  0  0  0  0  0  0  0
    1.2171    1.1636    2.3336 H   0  0  0  0  0  0  0  0  0  0  0  0
    1.8674    2.1281    1.0160 H   0  0  0  0  0  0  0  0  0  0  0  0
    2.8043   -0.5503    2.0342 H   0  0  0  0  0  0  0  0  0  0  0  0
    4.1791    2.1756    1.9102 H   0  0  0  0  0  0  0  0  0  0  0  0
    4.8430    0.7053    2.6535 H   0  0  0  0  0  0  0  0  0  0  0  0
    3.3993    1.4684    3.3416 H   0  0  0  0  0  0  0  0  0  0  0  0
    4.7196   -0.6574    0.6359 H   0  0  0  0  0  0  0  0  0  0  0  0
    4.2704    0.8047   -0.2370 H   0  0  0  0  0  0  0  0  0  0  0  0
    3.2847   -0.6898   -0.3805 H   0  0  0  0  0  0  0  0  0  0  0  0
   -1.4184    0.1557    1.8990 N   0  0  0  0  0  0  0  0  0  0  0  0
   -2.7684    0.2961    2.4863 C   0  0  2  0  0  0  0  0  0  0  0  0
   -3.9301   -0.1186    1.5536 C   0  0  0  0  0  0  0  0  0  0  0  0
   -4.7639   -0.9198    1.9561 O   0  0  0  0  0  0  0  0  0  0  0  0
   -2.9912    1.7100    3.0418 C   0  0  0  0  0  0  0  0  0  0  0  0
   -0.8267   -0.5783    2.2759 H   0  0  0  0  0  0  0  0  0  0  0  0
   -2.8127   -0.3876    3.3405 H   0  0  0  0  0  0  0  0  0  0  0  0
   -3.0687    2.4468    2.2370 H   0  0  0  0  0  0  0  0  0  0  0  0
   -3.9195    1.7417    3.6209 H   0  0  0  0  0  0  0  0  0  0  0  0
   -2.1640    1.9962    3.6980 H   0  0  0  0  0  0  0  0  0  0  0  0
   -4.0450    0.3936    0.2774 N   0  0  0  0  0  0  0  0  0  0  0  0
   -5.0901    0.0218   -0.6649 C   0  0  0  0  0  0  0  0  0  0  0  0
   -3.3076    1.0408   -0.0168 H   0  0  0  0  0  0  0  0  0  0  0  0
   -6.0760    0.2779   -0.2634 H   0  0  0  0  0  0  0  0  0  0  0  0
   -4.9515    0.5559   -1.6099 H   0  0  0  0  0  0  0  0  0  0  0  0
   -5.0586   -1.0538   -0.8669 H   0  0  0  0  0  0  0  0  0  0  0  0
  1  2  2  0  0  0  0
  1  3  1  0  0  0  0
  1  7  1  0  0  0  0
  3  4  1  0  0  0  0
  3  5  1  0  0  0  0
  3  6  1  0  0  0  0
  7  8  1  0  0  0  0
  7 12  1  0  0  0  0
  8  9  1  0  0  0  0
  8 11  1  0  0  0  0
  8 13  1  0  0  0  0
  9 10  2  0  0  0  0
  9 17  1  0  0  0  0
 11 14  1  0  0  0  0
 11 15  1  0  0  0  0
 11 16  1  0  0  0  0
 17 18  1  0  0  0  0
 17 25  1  0  0  0  0
 18 19  1  0  0  0  0
 18 21  1  0  0  0  0
 18 26  1  0  0  0  0
 19 20  2  0  0  0  0
 19 36  1  0  0  0  0
 21 22  1  0  0  0  0
 21 27  1  0  0  0  0
 21 28  1  0  0  0  0
 22 23  1  0  0  0  0
 22 24  1  0  0  0  0
 22 29  1  0  0  0  0
 23 30  1  0  0  0  0
 23 31  1  0  0  0  0
 23 32  1  0  0  0  0
 24 33  1  0  0  0  0
 24 34  1  0  0  0  0
 24 35  1  0  0  0  0
 36 37  1  0  0  0  0
 36 41  1  0  0  0  0
 37 38  1  0  0  0  0
 37 40  1  0  0  0  0
 37 42  1  0  0  0  0
 38 39  2  0  0  0  0
 38 46  1  0  0  0  0
 40 43  1  0  0  0  0
 40 44  1  0  0  0  0
 40 45  1  0  0  0  0
 46 47  1  0  0  0  0
 46 48  1  0  0  0  0
 47 49  1  0  0  0  0
 47 50  1  0  0  0  0
 47 51  1  0  0  0  0
M  END
$$$$

  -OEChem-05262216553D

 51 50  0     1  0  0  0  0  0999 V2000
    0.2334   -2.2163   -2.7783 C   0  0  0  0  0  0  0  0  0  0  0  0
   -0.6672   -1.5572   -2.2841 O   0  0  0  0  0  0  0  0  0  0  0  0
    0.1035   -3.7258   -2.8527 C   0  0  0  0  0  0  0  0  0  0  0  0
    0.9046   -4.1993   -2.2797 H   0  0  0  0  0  0  0  0  0  0  0  0
   -0.8586   -4.0430   -2.4398 H   0  0  0  0  0  0  0  0  0  0  0  0
    0.1640   -4.0551   -3.8930 H   0  0  0  0  0  0  0  0  0  0  0  0
    1.3884   -1.6123   -3.2395 N   0  0  0  0  0  0  0  0  0  0  0  0
    1.6614   -0.1615   -3.3193 C   0  0  2  0  0  0  0  0  0  0  0  0
    1.7632    0.5634   -1.9569 C   0  0  0  0  0  0  0  0  0  0  0  0
    2.6774    1.3522   -1.7834 O   0  0  0  0  0  0  0  0  0  0  0  0
    0.6479    0.5384   -4.2368 C   0  0  0  0  0  0  0  0  0  0  0  0
    2.0893   -2.2387   -3.6258 H   0  0  0  0  0  0  0  0  0  0  0  0
    2.6444   -0.0494   -3.7887 H   0  0  0  0  0  0  0  0  0  0  0  0
   -0.3563    0.5294   -3.8027 H   0  0  0  0  0  0  0  0  0  0  0  0
    0.9416    1.5820   -4.3900 H   0  0  0  0  0  0  0  0  0  0  0  0
    0.6098    0.0431   -5.2115 H   0  0  0  0  0  0  0  0  0  0  0  0
    0.6981    0.5813   -1.0857 N   0  0  0  0  0  0  0  0  0  0  0  0
    0.6151    0.6549    0.3915 C   0  0  2  0  0  0  0  0  0  0  0  0
   -0.8062    1.0296    0.8740 C   0  0  0  0  0  0  0  0  0  0  0  0
   -1.5841    1.6176    0.1332 O   0  0  0  0  0  0  0  0  0  0  0  0
    1.7417    1.1444    1.3529 C   0  0  0  0  0  0  0  0  0  0  0  0
    3.0748    0.3524    1.5395 C   0  0  0  0  0  0  0  0  0  0  0  0
    4.0062    1.1888    2.4280 C   0  0  0  0  0  0  0  0  0  0  0  0
    3.8878   -0.1710    0.3578 C   0  0  0  0  0  0  0  0  0  0  0  0
   -0.1086    0.1027   -1.4992 H   0  0  0  0  0  0  0  0  0  0  0  0
    0.6325   -0.4139    0.6243 H   0  0  0  0  0  0  0  0  0  0  0  0
    1.3103    1.2652    2.3514 H   0  0  0  0  0  0  0  0  0  0  0  0
    2.0078    2.1480    1.0036 H   0  0  0  0  0  0  0  0  0  0  0  0
    2.7969   -0.5420    2.1070 H   0  0  0  0  0  0  0  0  0  0  0  0
    4.3210    2.0975    1.9042 H   0  0  0  0  0  0  0  0  0  0  0  0
    4.8998    0.6158    2.6953 H   0  0  0  0  0  0  0  0  0  0  0  0
    3.4998    1.4789    3.3539 H   0  0  0  0  0  0  0  0  0  0  0  0
    4.6970   -0.8112    0.7226 H   0  0  0  0  0  0  0  0  0  0  0  0
    4.3496    0.6508   -0.1950 H   0  0  0  0  0  0  0  0  0  0  0  0
    3.2684   -0.7796   -0.3035 H   0  0  0  0  0  0  0  0  0  0  0  0
   -1.2573    0.5648    2.1014 N   0  0  0  0  0  0  0  0  0  0  0  0
   -2.6026    0.7428    2.6882 C   0  0  2  0  0  0  0  0  0  0  0  0
   -3.7299   -0.0261    1.9608 C   0  0  0  0  0  0  0  0  0  0  0  0
   -4.4543   -0.7751    2.6035 O   0  0  0  0  0  0  0  0  0  0  0  0
   -2.9581    2.2291    2.8382 C   0  0  0  0  0  0  0  0  0  0  0  0
   -0.5906    0.0163    2.6362 H   0  0  0  0  0  0  0  0  0  0  0  0
   -2.5614    0.3270    3.7002 H   0  0  0  0  0  0  0  0  0  0  0  0
   -3.1286    2.6991    1.8652 H   0  0  0  0  0  0  0  0  0  0  0  0
   -3.8720    2.3359    3.4310 H   0  0  0  0  0  0  0  0  0  0  0  0
   -2.1510    2.7648    3.3468 H   0  0  0  0  0  0  0  0  0  0  0  0
   -3.9215    0.0974    0.5998 N   0  0  0  0  0  0  0  0  0  0  0  0
   -4.9137   -0.6488   -0.1596 C   0  0  0  0  0  0  0  0  0  0  0  0
   -3.2555    0.6969    0.1037 H   0  0  0  0  0  0  0  0  0  0  0  0
   -4.8915   -0.3418   -1.2096 H   0  0  0  0  0  0  0  0  0  0  0  0
   -4.7071   -1.7226   -0.1073 H   0  0  0  0  0  0  0  0  0  0  0  0
   -5.9180   -0.4616    0.2344 H   0  0  0  0  0  0  0  0  0  0  0  0
  1  2  2  0  0  0  0
  1  3  1  0  0  0  0
  1  7  1  0  0  0  0
  3  4  1  0  0  0  0
  3  5  1  0  0  0  0
  3  6  1  0  0  0  0
  7  8  1  0  0  0  0
  7 12  1  0  0  0  0
  8  9  1  0  0  0  0
  8 11  1  0  0  0  0
  8 13  1  0  0  0  0
  9 10  2  0  0  0  0
  9 17  1  0  0  0  0
 11 14  1  0  0  0  0
 11 15  1  0  0  0  0
 11 16  1  0  0  0  0
 17 18  1  0  0  0  0
 17 25  1  0  0  0  0
 18 19  1  0  0  0  0
 18 21  1  0  0  0  0
 18 26  1  0  0  0  0
 19 20  2  0  0  0  0
 19 36  1  0  0  0  0
 21 22  1  0  0  0  0
 21 27  1  0  0  0  0
 21 28  1  0  0  0  0
 22 23  1  0  0  0  0
 22 24  1  0  0  0  0
 22 29  1  0  0  0  0
 23 30  1  0  0  0  0
 23 31  1  0  0  0  0
 23 32  1  0  0  0  0
 24 33  1  0  0  0  0
 24 34  1  0  0  0  0
 24 35  1  0  0  0  0
 36 37  1  0  0  0  0
 36 41  1  0  0  0  0
 37 38  1  0  0  0  0
 37 40  1  0  0  0  0
 37 42  1  0  0  0  0
 38 39  2  0  0  0  0
 38 46  1  0  0  0  0
 40 43  1  0  0  0  0
 40 44  1  0  0  0  0
 40 45  1  0  0  0  0
 46 47  1  0  0  0  0
 46 48  1  0  0  0  0
 47 49  1  0  0  0  0
 47 50  1  0  0  0  0
 47 51  1  0  0  0  0
M  END
$$$$

  -OEChem-05262216553D

 51 50  0     1  0  0  0  0  0999 V2000
    0.3752   -2.1924   -2.7246 C   0  0  0  0  0  0  0  0  0  0  0  0
   -0.5512   -1.5527   -2.2539 O   0  0  0  0  0  0  0  0  0  0  0  0
    0.2997   -3.7071   -2.7590 C   0  0  0  0  0  0  0  0  0  0  0  0
    1.1531   -4.1375   -2.2290 H   0  0  0  0  0  0  0  0  0  0  0  0
   -0.6214   -4.0500   -2.2785 H   0  0  0  0  0  0  0  0  0  0  0  0
    0.3078   -4.0572   -3.7942 H   0  0  0  0  0  0  0  0  0  0  0  0
    1.5095   -1.5595   -3.1979 N   0  0  0  0  0  0  0  0  0  0  0  0
    1.7354   -0.1022   -3.2944 C   0  0  2  0  0  0  0  0  0  0  0  0
    1.8028    0.6354   -1.9374 C   0  0  0  0  0  0  0  0  0  0  0  0
    2.7210    1.4143   -1.7370 O   0  0  0  0  0  0  0  0  0  0  0  0
    0.7066    0.5524   -4.2279 C   0  0  0  0  0  0  0  0  0  0  0  0
    2.2355   -2.1685   -3.5650 H   0  0  0  0  0  0  0  0  0  0  0  0
    2.7177    0.0375   -3.7578 H   0  0  0  0  0  0  0  0  0  0  0  0
   -0.2986    0.5266   -3.7968 H   0  0  0  0  0  0  0  0  0  0  0  0
    0.9740    1.5994   -4.4025 H   0  0  0  0  0  0  0  0  0  0  0  0
    0.6854    0.0353   -5.1918 H   0  0  0  0  0  0  0  0  0  0  0  0
    0.7167    0.6734   -1.0946 N   0  0  0  0  0  0  0  0  0  0  0  0
    0.6127    0.7044    0.3822 C   0  0  2  0  0  0  0  0  0  0  0  0
   -0.8033    1.1291    0.8484 C   0  0  0  0  0  0  0  0  0  0  0  0
   -1.6327    1.5220    0.0368 O   0  0  0  0  0  0  0  0  0  0  0  0
    1.7674    1.1009    1.3565 C   0  0  0  0  0  0  0  0  0  0  0  0
    3.0501    0.2219    1.5162 C   0  0  0  0  0  0  0  0  0  0  0  0
    4.0328    0.9732    2.4250 C   0  0  0  0  0  0  0  0  0  0  0  0
    3.8292   -0.3223    0.3195 C   0  0  0  0  0  0  0  0  0  0  0  0
   -0.0839    0.1987   -1.5244 H   0  0  0  0  0  0  0  0  0  0  0  0
    0.5673   -0.3690    0.5885 H   0  0  0  0  0  0  0  0  0  0  0  0
    1.3519    1.2226    2.3604 H   0  0  0  0  0  0  0  0  0  0  0  0
    2.0941    2.0948    1.0320 H   0  0  0  0  0  0  0  0  0  0  0  0
    2.7174   -0.6685    2.0602 H   0  0  0  0  0  0  0  0  0  0  0  0
    4.4054    1.8736    1.9259 H   0  0  0  0  0  0  0  0  0  0  0  0
    4.8880    0.3374    2.6749 H   0  0  0  0  0  0  0  0  0  0  0  0
    3.5456    1.2700    3.3589 H   0  0  0  0  0  0  0  0  0  0  0  0
    4.5984   -1.0188    0.6673 H   0  0  0  0  0  0  0  0  0  0  0  0
    4.3406    0.4814   -0.2156 H   0  0  0  0  0  0  0  0  0  0  0  0
    3.1744   -0.8773   -0.3546 H   0  0  0  0  0  0  0  0  0  0  0  0
   -1.1987    0.9239    2.1630 N   0  0  0  0  0  0  0  0  0  0  0  0
   -2.5244    1.2038    2.7551 C   0  0  2  0  0  0  0  0  0  0  0  0
   -3.6580    0.2744    2.2631 C   0  0  0  0  0  0  0  0  0  0  0  0
   -4.3254   -0.3422    3.0838 O   0  0  0  0  0  0  0  0  0  0  0  0
   -2.9118    2.6807    2.5922 C   0  0  0  0  0  0  0  0  0  0  0  0
   -0.4969    0.5204    2.7760 H   0  0  0  0  0  0  0  0  0  0  0  0
   -2.4333    1.0212    3.8307 H   0  0  0  0  0  0  0  0  0  0  0  0
   -3.1463    2.9193    1.5507 H   0  0  0  0  0  0  0  0  0  0  0  0
   -3.7954    2.9041    3.1981 H   0  0  0  0  0  0  0  0  0  0  0  0
   -2.0933    3.3275    2.9217 H   0  0  0  0  0  0  0  0  0  0  0  0
   -3.9139    0.1033    0.9178 N   0  0  0  0  0  0  0  0  0  0  0  0
   -4.9077   -0.8167    0.3840 C   0  0  0  0  0  0  0  0  0  0  0  0
   -3.2917    0.6016    0.2743 H   0  0  0  0  0  0  0  0  0  0  0  0
   -4.9152   -0.7686   -0.7091 H   0  0  0  0  0  0  0  0  0  0  0  0
   -4.6781   -1.8441    0.6846 H   0  0  0  0  0  0  0  0  0  0  0  0
   -5.9064   -0.5562    0.7492 H   0  0  0  0  0  0  0  0  0  0  0  0
  1  2  2  0  0  0  0
  1  3  1  0  0  0  0
  1  7  1  0  0  0  0
  3  4  1  0  0  0  0
  3  5  1  0  0  0  0
  3  6  1  0  0  0  0
  7  8  1  0  0  0  0
  7 12  1  0  0  0  0
  8  9  1  0  0  0  0
  8 11  1  0  0  0  0
  8 13  1  0  0  0  0
  9 10  2  0  0  0  0
  9 17  1  0  0  0  0
 11 14  1  0  0  0  0
 11 15  1  0  0  0  0
 11 16  1  0  0  0  0
 17 18  1  0  0  0  0
 17 25  1  0  0  0  0
 18 19  1  0  0  0  0
 18 21  1  0  0  0  0
 18 26  1  0  0  0  0
 19 20  2  0  0  0  0
 19 36  1  0  0  0  0
 21 22  1  0  0  0  0
 21 27  1  0  0  0  0
 21 28  1  0  0  0  0
 22 23  1  0  0  0  0
 22 24  1  0  0  0  0
 22 29  1  0  0  0  0
 23 30  1  0  0  0  0
 23 31  1  0  0  0  0
 23 32  1  0  0  0  0
 24 33  1  0  0  0  0
 24 34  1  0  0  0  0
 24 35  1  0  0  0  0
 36 37  1  0  0  0  0
 36 41  1  0  0  0  0
 37 38  1  0  0  0  0
 37 40  1  0  0  0  0
 37 42  1  0  0  0  0
 38 39  2  0  0  0  0
 38 46  1  0  0  0  0
 40 43  1  0  0  0  0
 40 44  1  0  0  0  0
 40 45  1  0  0  0  0
 46 47  1  0  0  0  0
 46 48  1  0  0  0  0
 47 49  1  0  0  0  0
 47 50  1  0  0  0  0
 47 51  1  0  0  0  0
M  END
$$$$
