
  -OEChem-03222214053D

 31 30  0     1  0  0  0  0  0999 V2000
   -2.9440   -3.8609    1.5444 H   0  0  0  0  0  0  0  0  0  0  0  0
   -2.9730   -2.8477    1.1340 C   0  0  0  0  0  0  0  0  0  0  0  0
   -3.5449   -2.2096    1.8122 H   0  0  0  0  0  0  0  0  0  0  0  0
   -3.4720   -2.8751    0.1623 H   0  0  0  0  0  0  0  0  0  0  0  0
   -1.5645   -2.3062    0.9772 C   0  0  0  0  0  0  0  0  0  0  0  0
   -0.6060   -2.9983    1.2828 O   0  0  0  0  0  0  0  0  0  0  0  0
   -1.3732   -1.0265    0.5015 N   0  0  0  0  0  0  0  0  0  0  0  0
   -2.2002   -0.4506    0.3513 H   0  0  0  0  0  0  0  0  0  0  0  0
   -0.0708   -0.3482    0.4146 C   0  0  1  0  0  0  0  0  0  0  0  0
    0.6424   -0.8531    1.0742 H   0  0  0  0  0  0  0  0  0  0  0  0
    0.4861   -0.4313   -1.0345 C   0  0  1  0  0  0  0  0  0  0  0  0
    0.6302   -1.4906   -1.2737 H   0  0  0  0  0  0  0  0  0  0  0  0
   -0.5059    0.1536   -2.0637 C   0  0  0  0  0  0  0  0  0  0  0  0
   -0.5929    1.2382   -1.9462 H   0  0  0  0  0  0  0  0  0  0  0  0
   -0.1747   -0.0598   -3.0835 H   0  0  0  0  0  0  0  0  0  0  0  0
   -1.5002   -0.2868   -1.9508 H   0  0  0  0  0  0  0  0  0  0  0  0
    1.8590    0.2795   -1.1275 C   0  0  0  0  0  0  0  0  0  0  0  0
    1.7644    1.3299   -0.8353 H   0  0  0  0  0  0  0  0  0  0  0  0
    2.5499   -0.2009   -0.4270 H   0  0  0  0  0  0  0  0  0  0  0  0
    2.4783    0.2394   -2.5279 C   0  0  0  0  0  0  0  0  0  0  0  0
    1.9081    0.8562   -3.2287 H   0  0  0  0  0  0  0  0  0  0  0  0
    3.5010    0.6269   -2.4928 H   0  0  0  0  0  0  0  0  0  0  0  0
    2.5098   -0.7881   -2.9036 H   0  0  0  0  0  0  0  0  0  0  0  0
   -0.2130    1.0957    0.9461 C   0  0  0  0  0  0  0  0  0  0  0  0
   -1.2191    1.7502    0.6934 O   0  0  0  0  0  0  0  0  0  0  0  0
    0.7313    1.6221    1.8088 N   0  0  0  0  0  0  0  0  0  0  0  0
    1.5212    1.0340    2.0589 H   0  0  0  0  0  0  0  0  0  0  0  0
    0.6144    2.9430    2.4138 C   0  0  0  0  0  0  0  0  0  0  0  0
   -0.2978    3.0098    3.0161 H   0  0  0  0  0  0  0  0  0  0  0  0
    1.4726    3.1387    3.0638 H   0  0  0  0  0  0  0  0  0  0  0  0
    0.5833    3.7168    1.6395 H   0  0  0  0  0  0  0  0  0  0  0  0
  1  2  1  0  0  0  0
  2  3  1  0  0  0  0
  2  4  1  0  0  0  0
  2  5  1  0  0  0  0
  5  6  2  0  0  0  0
  5  7  1  0  0  0  0
  7  8  1  0  0  0  0
  7  9  1  0  0  0  0
  9 10  1  0  0  0  0
  9 11  1  0  0  0  0
  9 24  1  0  0  0  0
 11 12  1  0  0  0  0
 11 13  1  0  0  0  0
 11 17  1  0  0  0  0
 13 14  1  0  0  0  0
 13 15  1  0  0  0  0
 13 16  1  0  0  0  0
 17 18  1  0  0  0  0
 17 19  1  0  0  0  0
 17 20  1  0  0  0  0
 20 21  1  0  0  0  0
 20 22  1  0  0  0  0
 20 23  1  0  0  0  0
 24 25  2  0  0  0  0
 24 26  1  0  0  0  0
 26 27  1  0  0  0  0
 26 28  1  0  0  0  0
 28 29  1  0  0  0  0
 28 30  1  0  0  0  0
 28 31  1  0  0  0  0
M  END
$$$$

  -OEChem-03222214053D

 31 30  0     1  0  0  0  0  0999 V2000
   -2.9444   -3.8566    1.5399 H   0  0  0  0  0  0  0  0  0  0  0  0
   -2.9720   -2.8418    1.1327 C   0  0  0  0  0  0  0  0  0  0  0  0
   -3.5435   -2.2049    1.8122 H   0  0  0  0  0  0  0  0  0  0  0  0
   -3.4703   -2.8656    0.1605 H   0  0  0  0  0  0  0  0  0  0  0  0
   -1.5629   -2.3010    0.9786 C   0  0  0  0  0  0  0  0  0  0  0  0
   -0.6051   -2.9944    1.2835 O   0  0  0  0  0  0  0  0  0  0  0  0
   -1.3705   -1.0205    0.5053 N   0  0  0  0  0  0  0  0  0  0  0  0
   -2.1969   -0.4426    0.3591 H   0  0  0  0  0  0  0  0  0  0  0  0
   -0.0662   -0.3455    0.4154 C   0  0  1  0  0  0  0  0  0  0  0  0
    0.6501   -0.8500    1.0717 H   0  0  0  0  0  0  0  0  0  0  0  0
    0.4856   -0.4327   -1.0389 C   0  0  1  0  0  0  0  0  0  0  0  0
    0.6249   -1.4915   -1.2836 H   0  0  0  0  0  0  0  0  0  0  0  0
   -0.5283    0.1447   -2.0542 C   0  0  0  0  0  0  0  0  0  0  0  0
   -0.6223    1.2285   -1.9350 H   0  0  0  0  0  0  0  0  0  0  0  0
   -0.2125   -0.0670   -3.0795 H   0  0  0  0  0  0  0  0  0  0  0  0
   -1.5176   -0.3031   -1.9286 H   0  0  0  0  0  0  0  0  0  0  0  0
    1.8661    0.2720   -1.1514 C   0  0  0  0  0  0  0  0  0  0  0  0
    1.8472    1.2345   -0.6340 H   0  0  0  0  0  0  0  0  0  0  0  0
    2.6136   -0.3542   -0.6536 H   0  0  0  0  0  0  0  0  0  0  0  0
    2.3317    0.5572   -2.5837 C   0  0  0  0  0  0  0  0  0  0  0  0
    1.7054    1.3184   -3.0584 H   0  0  0  0  0  0  0  0  0  0  0  0
    3.3612    0.9275   -2.5723 H   0  0  0  0  0  0  0  0  0  0  0  0
    2.3005   -0.3565   -3.1853 H   0  0  0  0  0  0  0  0  0  0  0  0
   -0.2175    1.0958    0.9541 C   0  0  0  0  0  0  0  0  0  0  0  0
   -1.2250    1.7481    0.7010 O   0  0  0  0  0  0  0  0  0  0  0  0
    0.7239    1.6236    1.8194 N   0  0  0  0  0  0  0  0  0  0  0  0
    1.5174    1.0388    2.0650 H   0  0  0  0  0  0  0  0  0  0  0  0
    0.6026    2.9421    2.4293 C   0  0  0  0  0  0  0  0  0  0  0  0
   -0.3124    3.0055    3.0277 H   0  0  0  0  0  0  0  0  0  0  0  0
    1.4574    3.1360    3.0843 H   0  0  0  0  0  0  0  0  0  0  0  0
    0.5745    3.7192    1.6584 H   0  0  0  0  0  0  0  0  0  0  0  0
  1  2  1  0  0  0  0
  2  3  1  0  0  0  0
  2  4  1  0  0  0  0
  2  5  1  0  0  0  0
  5  6  2  0  0  0  0
  5  7  1  0  0  0  0
  7  8  1  0  0  0  0
  7  9  1  0  0  0  0
  9 10  1  0  0  0  0
  9 11  1  0  0  0  0
  9 24  1  0  0  0  0
 11 12  1  0  0  0  0
 11 13  1  0  0  0  0
 11 17  1  0  0  0  0
 13 14  1  0  0  0  0
 13 15  1  0  0  0  0
 13 16  1  0  0  0  0
 17 18  1  0  0  0  0
 17 19  1  0  0  0  0
 17 20  1  0  0  0  0
 20 21  1  0  0  0  0
 20 22  1  0  0  0  0
 20 23  1  0  0  0  0
 24 25  2  0  0  0  0
 24 26  1  0  0  0  0
 26 27  1  0  0  0  0
 26 28  1  0  0  0  0
 28 29  1  0  0  0  0
 28 30  1  0  0  0  0
 28 31  1  0  0  0  0
M  END
$$$$

  -OEChem-03222214053D

 31 30  0     1  0  0  0  0  0999 V2000
   -2.9492   -3.8453    1.5421 H   0  0  0  0  0  0  0  0  0  0  0  0
   -2.9740   -2.8293    1.1384 C   0  0  0  0  0  0  0  0  0  0  0  0
   -3.5390   -2.1918    1.8227 H   0  0  0  0  0  0  0  0  0  0  0  0
   -3.4771   -2.8476    0.1687 H   0  0  0  0  0  0  0  0  0  0  0  0
   -1.5634   -2.2947    0.9787 C   0  0  0  0  0  0  0  0  0  0  0  0
   -0.6069   -2.9937    1.2745 O   0  0  0  0  0  0  0  0  0  0  0  0
   -1.3672   -1.0146    0.5065 N   0  0  0  0  0  0  0  0  0  0  0  0
   -2.1912   -0.4307    0.3694 H   0  0  0  0  0  0  0  0  0  0  0  0
   -0.0600   -0.3452    0.4142 C   0  0  1  0  0  0  0  0  0  0  0  0
    0.6589   -0.8516    1.0664 H   0  0  0  0  0  0  0  0  0  0  0  0
    0.4829   -0.4297   -1.0456 C   0  0  1  0  0  0  0  0  0  0  0  0
    0.6200   -1.4887   -1.2908 H   0  0  0  0  0  0  0  0  0  0  0  0
   -0.5528    0.1309   -2.0508 C   0  0  0  0  0  0  0  0  0  0  0  0
   -0.6918    1.2068   -1.9079 H   0  0  0  0  0  0  0  0  0  0  0  0
   -0.2295   -0.0460   -3.0804 H   0  0  0  0  0  0  0  0  0  0  0  0
   -1.5237   -0.3587   -1.9371 H   0  0  0  0  0  0  0  0  0  0  0  0
    1.8720    0.2670   -1.1755 C   0  0  0  0  0  0  0  0  0  0  0  0
    1.9658    1.0760   -0.4489 H   0  0  0  0  0  0  0  0  0  0  0  0
    2.6434   -0.4706   -0.9311 H   0  0  0  0  0  0  0  0  0  0  0  0
    2.1956    0.8823   -2.5422 C   0  0  0  0  0  0  0  0  0  0  0  0
    1.5203    1.7119   -2.7720 H   0  0  0  0  0  0  0  0  0  0  0  0
    3.2183    1.2714   -2.5402 H   0  0  0  0  0  0  0  0  0  0  0  0
    2.1185    0.1276   -3.3307 H   0  0  0  0  0  0  0  0  0  0  0  0
   -0.2167    1.0951    0.9581 C   0  0  0  0  0  0  0  0  0  0  0  0
   -1.2303    1.7414    0.7133 O   0  0  0  0  0  0  0  0  0  0  0  0
    0.7209    1.6263    1.8257 N   0  0  0  0  0  0  0  0  0  0  0  0
    1.5177    1.0455    2.0704 H   0  0  0  0  0  0  0  0  0  0  0  0
    0.5884    2.9401    2.4434 C   0  0  0  0  0  0  0  0  0  0  0  0
   -0.3226    2.9890    3.0491 H   0  0  0  0  0  0  0  0  0  0  0  0
    1.4459    3.1410    3.0928 H   0  0  0  0  0  0  0  0  0  0  0  0
    0.5448    3.7209    1.6769 H   0  0  0  0  0  0  0  0  0  0  0  0
  1  2  1  0  0  0  0
  2  3  1  0  0  0  0
  2  4  1  0  0  0  0
  2  5  1  0  0  0  0
  5  6  2  0  0  0  0
  5  7  1  0  0  0  0
  7  8  1  0  0  0  0
  7  9  1  0  0  0  0
  9 10  1  0  0  0  0
  9 11  1  0  0  0  0
  9 24  1  0  0  0  0
 11 12  1  0  0  0  0
 11 13  1  0  0  0  0
 11 17  1  0  0  0  0
 13 14  1  0  0  0  0
 13 15  1  0  0  0  0
 13 16  1  0  0  0  0
 17 18  1  0  0  0  0
 17 19  1  0  0  0  0
 17 20  1  0  0  0  0
 20 21  1  0  0  0  0
 20 22  1  0  0  0  0
 20 23  1  0  0  0  0
 24 25  2  0  0  0  0
 24 26  1  0  0  0  0
 26 27  1  0  0  0  0
 26 28  1  0  0  0  0
 28 29  1  0  0  0  0
 28 30  1  0  0  0  0
 28 31  1  0  0  0  0
M  END
$$$$

  -OEChem-03222214053D

 31 30  0     1  0  0  0  0  0999 V2000
   -2.9520   -3.8384    1.5663 H   0  0  0  0  0  0  0  0  0  0  0  0
   -2.9770   -2.8279    1.1491 C   0  0  0  0  0  0  0  0  0  0  0  0
   -3.5390   -2.1809    1.8269 H   0  0  0  0  0  0  0  0  0  0  0  0
   -3.4833   -2.8584    0.1814 H   0  0  0  0  0  0  0  0  0  0  0  0
   -1.5660   -2.2977    0.9786 C   0  0  0  0  0  0  0  0  0  0  0  0
   -0.6102   -2.9991    1.2710 O   0  0  0  0  0  0  0  0  0  0  0  0
   -1.3682   -1.0179    0.5062 N   0  0  0  0  0  0  0  0  0  0  0  0
   -2.1908   -0.4311    0.3730 H   0  0  0  0  0  0  0  0  0  0  0  0
   -0.0594   -0.3519    0.4139 C   0  0  1  0  0  0  0  0  0  0  0  0
    0.6623   -0.8621    1.0600 H   0  0  0  0  0  0  0  0  0  0  0  0
    0.4732   -0.4185   -1.0496 C   0  0  1  0  0  0  0  0  0  0  0  0
    0.6193   -1.4773   -1.2904 H   0  0  0  0  0  0  0  0  0  0  0  0
   -0.5736    0.1144   -2.0578 C   0  0  0  0  0  0  0  0  0  0  0  0
   -0.7675    1.1794   -1.8996 H   0  0  0  0  0  0  0  0  0  0  0  0
   -0.2285   -0.0309   -3.0853 H   0  0  0  0  0  0  0  0  0  0  0  0
   -1.5212   -0.4228   -1.9637 H   0  0  0  0  0  0  0  0  0  0  0  0
    1.8658    0.2755   -1.1815 C   0  0  0  0  0  0  0  0  0  0  0  0
    2.0964    0.8526   -0.2842 H   0  0  0  0  0  0  0  0  0  0  0  0
    2.6230   -0.5131   -1.2419 H   0  0  0  0  0  0  0  0  0  0  0  0
    2.0656    1.2102   -2.3811 C   0  0  0  0  0  0  0  0  0  0  0  0
    1.3699    2.0537   -2.3391 H   0  0  0  0  0  0  0  0  0  0  0  0
    3.0837    1.6109   -2.3710 H   0  0  0  0  0  0  0  0  0  0  0  0
    1.9237    0.6723   -3.3232 H   0  0  0  0  0  0  0  0  0  0  0  0
   -0.2151    1.0884    0.9585 C   0  0  0  0  0  0  0  0  0  0  0  0
   -1.2265    1.7366    0.7092 O   0  0  0  0  0  0  0  0  0  0  0  0
    0.7205    1.6211    1.8273 N   0  0  0  0  0  0  0  0  0  0  0  0
    1.5123    1.0379    2.0818 H   0  0  0  0  0  0  0  0  0  0  0  0
    0.5930    2.9413    2.4319 C   0  0  0  0  0  0  0  0  0  0  0  0
   -0.3307    3.0085    3.0160 H   0  0  0  0  0  0  0  0  0  0  0  0
    1.4381    3.1350    3.0993 H   0  0  0  0  0  0  0  0  0  0  0  0
    0.5783    3.7163    1.6585 H   0  0  0  0  0  0  0  0  0  0  0  0
  1  2  1  0  0  0  0
  2  3  1  0  0  0  0
  2  4  1  0  0  0  0
  2  5  1  0  0  0  0
  5  6  2  0  0  0  0
  5  7  1  0  0  0  0
  7  8  1  0  0  0  0
  7  9  1  0  0  0  0
  9 10  1  0  0  0  0
  9 11  1  0  0  0  0
  9 24  1  0  0  0  0
 11 12  1  0  0  0  0
 11 13  1  0  0  0  0
 11 17  1  0  0  0  0
 13 14  1  0  0  0  0
 13 15  1  0  0  0  0
 13 16  1  0  0  0  0
 17 18  1  0  0  0  0
 17 19  1  0  0  0  0
 17 20  1  0  0  0  0
 20 21  1  0  0  0  0
 20 22  1  0  0  0  0
 20 23  1  0  0  0  0
 24 25  2  0  0  0  0
 24 26  1  0  0  0  0
 26 27  1  0  0  0  0
 26 28  1  0  0  0  0
 28 29  1  0  0  0  0
 28 30  1  0  0  0  0
 28 31  1  0  0  0  0
M  END
$$$$

  -OEChem-03222214053D

 31 30  0     1  0  0  0  0  0999 V2000
   -2.9557   -3.8451    1.5479 H   0  0  0  0  0  0  0  0  0  0  0  0
   -2.9815   -2.8268    1.1496 C   0  0  0  0  0  0  0  0  0  0  0  0
   -3.5403   -2.1919    1.8415 H   0  0  0  0  0  0  0  0  0  0  0  0
   -3.4916   -2.8388    0.1834 H   0  0  0  0  0  0  0  0  0  0  0  0
   -1.5705   -2.2952    0.9829 C   0  0  0  0  0  0  0  0  0  0  0  0
   -0.6149   -2.9947    1.2803 O   0  0  0  0  0  0  0  0  0  0  0  0
   -1.3729   -1.0171    0.5060 N   0  0  0  0  0  0  0  0  0  0  0  0
   -2.1960   -0.4324    0.3673 H   0  0  0  0  0  0  0  0  0  0  0  0
   -0.0654   -0.3499    0.4130 C   0  0  1  0  0  0  0  0  0  0  0  0
    0.6560   -0.8608    1.0591 H   0  0  0  0  0  0  0  0  0  0  0  0
    0.4656   -0.4094   -1.0478 C   0  0  1  0  0  0  0  0  0  0  0  0
    0.6276   -1.4698   -1.2712 H   0  0  0  0  0  0  0  0  0  0  0  0
   -0.5761    0.0905   -2.0750 C   0  0  0  0  0  0  0  0  0  0  0  0
   -0.8226    1.1437   -1.9120 H   0  0  0  0  0  0  0  0  0  0  0  0
   -0.1949   -0.0282   -3.0932 H   0  0  0  0  0  0  0  0  0  0  0  0
   -1.5006   -0.4898   -2.0085 H   0  0  0  0  0  0  0  0  0  0  0  0
    1.8548    0.2889   -1.1689 C   0  0  0  0  0  0  0  0  0  0  0  0
    2.2102    0.6098   -0.1866 H   0  0  0  0  0  0  0  0  0  0  0  0
    2.5702   -0.4619   -1.5206 H   0  0  0  0  0  0  0  0  0  0  0  0
    1.9453    1.4833   -2.1267 C   0  0  0  0  0  0  0  0  0  0  0  0
    1.2470    2.2714   -1.8283 H   0  0  0  0  0  0  0  0  0  0  0  0
    2.9572    1.8987   -2.1036 H   0  0  0  0  0  0  0  0  0  0  0  0
    1.7289    1.1822   -3.1557 H   0  0  0  0  0  0  0  0  0  0  0  0
   -0.2097    1.0940    0.9489 C   0  0  0  0  0  0  0  0  0  0  0  0
   -1.2185    1.7462    0.6999 O   0  0  0  0  0  0  0  0  0  0  0  0
    0.7315    1.6247    1.8126 N   0  0  0  0  0  0  0  0  0  0  0  0
    1.5186    1.0364    2.0697 H   0  0  0  0  0  0  0  0  0  0  0  0
    0.6051    2.9414    2.4251 C   0  0  0  0  0  0  0  0  0  0  0  0
   -0.2917    2.9877    3.0519 H   0  0  0  0  0  0  0  0  0  0  0  0
    1.4769    3.1521    3.0519 H   0  0  0  0  0  0  0  0  0  0  0  0
    0.5379    3.7174    1.6552 H   0  0  0  0  0  0  0  0  0  0  0  0
  1  2  1  0  0  0  0
  2  3  1  0  0  0  0
  2  4  1  0  0  0  0
  2  5  1  0  0  0  0
  5  6  2  0  0  0  0
  5  7  1  0  0  0  0
  7  8  1  0  0  0  0
  7  9  1  0  0  0  0
  9 10  1  0  0  0  0
  9 11  1  0  0  0  0
  9 24  1  0  0  0  0
 11 12  1  0  0  0  0
 11 13  1  0  0  0  0
 11 17  1  0  0  0  0
 13 14  1  0  0  0  0
 13 15  1  0  0  0  0
 13 16  1  0  0  0  0
 17 18  1  0  0  0  0
 17 19  1  0  0  0  0
 17 20  1  0  0  0  0
 20 21  1  0  0  0  0
 20 22  1  0  0  0  0
 20 23  1  0  0  0  0
 24 25  2  0  0  0  0
 24 26  1  0  0  0  0
 26 27  1  0  0  0  0
 26 28  1  0  0  0  0
 28 29  1  0  0  0  0
 28 30  1  0  0  0  0
 28 31  1  0  0  0  0
M  END
$$$$

  -OEChem-03222214053D

 31 30  0     1  0  0  0  0  0999 V2000
   -2.9544   -3.8573    1.5381 H   0  0  0  0  0  0  0  0  0  0  0  0
   -2.9827   -2.8401    1.1374 C   0  0  0  0  0  0  0  0  0  0  0  0
   -3.5525   -2.2074    1.8222 H   0  0  0  0  0  0  0  0  0  0  0  0
   -3.4830   -2.8578    0.1662 H   0  0  0  0  0  0  0  0  0  0  0  0
   -1.5739   -2.2989    0.9834 C   0  0  0  0  0  0  0  0  0  0  0  0
   -0.6162   -2.9941    1.2843 O   0  0  0  0  0  0  0  0  0  0  0  0
   -1.3810   -1.0187    0.5101 N   0  0  0  0  0  0  0  0  0  0  0  0
   -2.2068   -0.4392    0.3664 H   0  0  0  0  0  0  0  0  0  0  0  0
   -0.0765   -0.3456    0.4199 C   0  0  1  0  0  0  0  0  0  0  0  0
    0.6429   -0.8575    1.0674 H   0  0  0  0  0  0  0  0  0  0  0  0
    0.4602   -0.4034   -1.0362 C   0  0  1  0  0  0  0  0  0  0  0  0
    0.6341   -1.4640   -1.2490 H   0  0  0  0  0  0  0  0  0  0  0  0
   -0.5677    0.0835   -2.0800 C   0  0  0  0  0  0  0  0  0  0  0  0
   -0.8574    1.1232   -1.9007 H   0  0  0  0  0  0  0  0  0  0  0  0
   -0.1488    0.0052   -3.0877 H   0  0  0  0  0  0  0  0  0  0  0  0
   -1.4713   -0.5322   -2.0514 H   0  0  0  0  0  0  0  0  0  0  0  0
    1.8418    0.3009   -1.1515 C   0  0  0  0  0  0  0  0  0  0  0  0
    2.3078    0.3794   -0.1648 H   0  0  0  0  0  0  0  0  0  0  0  0
    2.4935   -0.3426   -1.7515 H   0  0  0  0  0  0  0  0  0  0  0  0
    1.8407    1.6840   -1.8162 C   0  0  0  0  0  0  0  0  0  0  0  0
    1.1692    2.3672   -1.2872 H   0  0  0  0  0  0  0  0  0  0  0  0
    2.8493    2.1075   -1.7903 H   0  0  0  0  0  0  0  0  0  0  0  0
    1.5293    1.6200   -2.8629 H   0  0  0  0  0  0  0  0  0  0  0  0
   -0.2113    1.0976    0.9558 C   0  0  0  0  0  0  0  0  0  0  0  0
   -1.2156    1.7566    0.7072 O   0  0  0  0  0  0  0  0  0  0  0  0
    0.7364    1.6214    1.8165 N   0  0  0  0  0  0  0  0  0  0  0  0
    1.5280    1.0333    2.0597 H   0  0  0  0  0  0  0  0  0  0  0  0
    0.6331    2.9484    2.4107 C   0  0  0  0  0  0  0  0  0  0  0  0
   -0.2733    3.0265    3.0204 H   0  0  0  0  0  0  0  0  0  0  0  0
    1.4982    3.1445    3.0514 H   0  0  0  0  0  0  0  0  0  0  0  0
    0.6003    3.7155    1.6299 H   0  0  0  0  0  0  0  0  0  0  0  0
  1  2  1  0  0  0  0
  2  3  1  0  0  0  0
  2  4  1  0  0  0  0
  2  5  1  0  0  0  0
  5  6  2  0  0  0  0
  5  7  1  0  0  0  0
  7  8  1  0  0  0  0
  7  9  1  0  0  0  0
  9 10  1  0  0  0  0
  9 11  1  0  0  0  0
  9 24  1  0  0  0  0
 11 12  1  0  0  0  0
 11 13  1  0  0  0  0
 11 17  1  0  0  0  0
 13 14  1  0  0  0  0
 13 15  1  0  0  0  0
 13 16  1  0  0  0  0
 17 18  1  0  0  0  0
 17 19  1  0  0  0  0
 17 20  1  0  0  0  0
 20 21  1  0  0  0  0
 20 22  1  0  0  0  0
 20 23  1  0  0  0  0
 24 25  2  0  0  0  0
 24 26  1  0  0  0  0
 26 27  1  0  0  0  0
 26 28  1  0  0  0  0
 28 29  1  0  0  0  0
 28 30  1  0  0  0  0
 28 31  1  0  0  0  0
M  END
$$$$

  -OEChem-03222214053D

 31 30  0     1  0  0  0  0  0999 V2000
   -2.9443   -3.8610    1.5191 H   0  0  0  0  0  0  0  0  0  0  0  0
   -2.9765   -2.8417    1.1242 C   0  0  0  0  0  0  0  0  0  0  0  0
   -3.5520   -2.2160    1.8107 H   0  0  0  0  0  0  0  0  0  0  0  0
   -3.4736   -2.8562    0.1512 H   0  0  0  0  0  0  0  0  0  0  0  0
   -1.5698   -2.2925    0.9783 C   0  0  0  0  0  0  0  0  0  0  0  0
   -0.6090   -2.9855    1.2745 O   0  0  0  0  0  0  0  0  0  0  0  0
   -1.3826   -1.0066    0.5184 N   0  0  0  0  0  0  0  0  0  0  0  0
   -2.2113   -0.4314    0.3748 H   0  0  0  0  0  0  0  0  0  0  0  0
   -0.0823   -0.3241    0.4356 C   0  0  1  0  0  0  0  0  0  0  0  0
    0.6347   -0.8332    1.0876 H   0  0  0  0  0  0  0  0  0  0  0  0
    0.4649   -0.4030   -1.0172 C   0  0  1  0  0  0  0  0  0  0  0  0
    0.6360   -1.4668   -1.2169 H   0  0  0  0  0  0  0  0  0  0  0  0
   -0.5522    0.0861   -2.0677 C   0  0  0  0  0  0  0  0  0  0  0  0
   -0.8637    1.1162   -1.8705 H   0  0  0  0  0  0  0  0  0  0  0  0
   -0.1121    0.0403   -3.0686 H   0  0  0  0  0  0  0  0  0  0  0  0
   -1.4438   -0.5475   -2.0676 H   0  0  0  0  0  0  0  0  0  0  0  0
    1.8407    0.2977   -1.1757 C   0  0  0  0  0  0  0  0  0  0  0  0
    2.4146    0.1748   -0.2518 H   0  0  0  0  0  0  0  0  0  0  0  0
    2.3934   -0.2234   -1.9643 H   0  0  0  0  0  0  0  0  0  0  0  0
    1.8127    1.7886   -1.5495 C   0  0  0  0  0  0  0  0  0  0  0  0
    1.2363    2.3756   -0.8314 H   0  0  0  0  0  0  0  0  0  0  0  0
    2.8337    2.1813   -1.5668 H   0  0  0  0  0  0  0  0  0  0  0  0
    1.3803    1.9340   -2.5437 H   0  0  0  0  0  0  0  0  0  0  0  0
   -0.2267    1.1105    0.9854 C   0  0  0  0  0  0  0  0  0  0  0  0
   -1.2346    1.7665    0.7438 O   0  0  0  0  0  0  0  0  0  0  0  0
    0.7200    1.6267    1.8516 N   0  0  0  0  0  0  0  0  0  0  0  0
    1.5184    1.0415    2.0797 H   0  0  0  0  0  0  0  0  0  0  0  0
    0.6133    2.9461    2.4613 C   0  0  0  0  0  0  0  0  0  0  0  0
   -0.2993    3.0177    3.0623 H   0  0  0  0  0  0  0  0  0  0  0  0
    1.4719    3.1318    3.1136 H   0  0  0  0  0  0  0  0  0  0  0  0
    0.5902    3.7233    1.6902 H   0  0  0  0  0  0  0  0  0  0  0  0
  1  2  1  0  0  0  0
  2  3  1  0  0  0  0
  2  4  1  0  0  0  0
  2  5  1  0  0  0  0
  5  6  2  0  0  0  0
  5  7  1  0  0  0  0
  7  8  1  0  0  0  0
  7  9  1  0  0  0  0
  9 10  1  0  0  0  0
  9 11  1  0  0  0  0
  9 24  1  0  0  0  0
 11 12  1  0  0  0  0
 11 13  1  0  0  0  0
 11 17  1  0  0  0  0
 13 14  1  0  0  0  0
 13 15  1  0  0  0  0
 13 16  1  0  0  0  0
 17 18  1  0  0  0  0
 17 19  1  0  0  0  0
 17 20  1  0  0  0  0
 20 21  1  0  0  0  0
 20 22  1  0  0  0  0
 20 23  1  0  0  0  0
 24 25  2  0  0  0  0
 24 26  1  0  0  0  0
 26 27  1  0  0  0  0
 26 28  1  0  0  0  0
 28 29  1  0  0  0  0
 28 30  1  0  0  0  0
 28 31  1  0  0  0  0
M  END
$$$$

  -OEChem-03222214053D

 31 30  0     1  0  0  0  0  0999 V2000
   -2.9333   -3.8564    1.4850 H   0  0  0  0  0  0  0  0  0  0  0  0
   -2.9651   -2.8337    1.0987 C   0  0  0  0  0  0  0  0  0  0  0  0
   -3.5499   -2.2161    1.7847 H   0  0  0  0  0  0  0  0  0  0  0  0
   -3.4524   -2.8413    0.1206 H   0  0  0  0  0  0  0  0  0  0  0  0
   -1.5590   -2.2785    0.9718 C   0  0  0  0  0  0  0  0  0  0  0  0
   -0.5987   -2.9711    1.2706 O   0  0  0  0  0  0  0  0  0  0  0  0
   -1.3715   -0.9874    0.5269 N   0  0  0  0  0  0  0  0  0  0  0  0
   -2.2005   -0.4123    0.3836 H   0  0  0  0  0  0  0  0  0  0  0  0
   -0.0719   -0.2999    0.4656 C   0  0  1  0  0  0  0  0  0  0  0  0
    0.6422   -0.8055    1.1237 H   0  0  0  0  0  0  0  0  0  0  0  0
    0.4772   -0.4047   -0.9898 C   0  0  1  0  0  0  0  0  0  0  0  0
    0.6276   -1.4734   -1.1789 H   0  0  0  0  0  0  0  0  0  0  0  0
   -0.5412    0.0950   -2.0352 C   0  0  0  0  0  0  0  0  0  0  0  0
   -0.8533    1.1224   -1.8260 H   0  0  0  0  0  0  0  0  0  0  0  0
   -0.1026    0.0636   -3.0373 H   0  0  0  0  0  0  0  0  0  0  0  0
   -1.4326   -0.5390   -2.0432 H   0  0  0  0  0  0  0  0  0  0  0  0
    1.8532    0.2703   -1.2339 C   0  0  0  0  0  0  0  0  0  0  0  0
    2.5394   -0.0473   -0.4423 H   0  0  0  0  0  0  0  0  0  0  0  0
    2.2511   -0.1208   -2.1763 H   0  0  0  0  0  0  0  0  0  0  0  0
    1.8935    1.8048   -1.3227 C   0  0  0  0  0  0  0  0  0  0  0  0
    1.6164    2.2834   -0.3852 H   0  0  0  0  0  0  0  0  0  0  0  0
    2.9103    2.1260   -1.5677 H   0  0  0  0  0  0  0  0  0  0  0  0
    1.2286    2.1696   -2.1104 H   0  0  0  0  0  0  0  0  0  0  0  0
   -0.2499    1.1246    1.0320 C   0  0  0  0  0  0  0  0  0  0  0  0
   -1.2619    1.7700    0.7791 O   0  0  0  0  0  0  0  0  0  0  0  0
    0.6732    1.6440    1.9224 N   0  0  0  0  0  0  0  0  0  0  0  0
    1.4761    1.0678    2.1577 H   0  0  0  0  0  0  0  0  0  0  0  0
    0.5270    2.9468    2.5592 C   0  0  0  0  0  0  0  0  0  0  0  0
   -0.3928    2.9819    3.1525 H   0  0  0  0  0  0  0  0  0  0  0  0
    1.3746    3.1401    3.2236 H   0  0  0  0  0  0  0  0  0  0  0  0
    0.4911    3.7401    1.8052 H   0  0  0  0  0  0  0  0  0  0  0  0
  1  2  1  0  0  0  0
  2  3  1  0  0  0  0
  2  4  1  0  0  0  0
  2  5  1  0  0  0  0
  5  6  2  0  0  0  0
  5  7  1  0  0  0  0
  7  8  1  0  0  0  0
  7  9  1  0  0  0  0
  9 10  1  0  0  0  0
  9 11  1  0  0  0  0
  9 24  1  0  0  0  0
 11 12  1  0  0  0  0
 11 13  1  0  0  0  0
 11 17  1  0  0  0  0
 13 14  1  0  0  0  0
 13 15  1  0  0  0  0
 13 16  1  0  0  0  0
 17 18  1  0  0  0  0
 17 19  1  0  0  0  0
 17 20  1  0  0  0  0
 20 21  1  0  0  0  0
 20 22  1  0  0  0  0
 20 23  1  0  0  0  0
 24 25  2  0  0  0  0
 24 26  1  0  0  0  0
 26 27  1  0  0  0  0
 26 28  1  0  0  0  0
 28 29  1  0  0  0  0
 28 30  1  0  0  0  0
 28 31  1  0  0  0  0
M  END
$$$$

  -OEChem-03222214053D

 31 30  0     1  0  0  0  0  0999 V2000
   -2.9448   -3.8484    1.4671 H   0  0  0  0  0  0  0  0  0  0  0  0
   -2.9663   -2.8260    1.0796 C   0  0  0  0  0  0  0  0  0  0  0  0
   -3.5590   -2.2052    1.7558 H   0  0  0  0  0  0  0  0  0  0  0  0
   -3.4379   -2.8320    0.0939 H   0  0  0  0  0  0  0  0  0  0  0  0
   -1.5564   -2.2767    0.9744 C   0  0  0  0  0  0  0  0  0  0  0  0
   -0.6034   -2.9707    1.2925 O   0  0  0  0  0  0  0  0  0  0  0  0
   -1.3573   -0.9878    0.5290 N   0  0  0  0  0  0  0  0  0  0  0  0
   -2.1814   -0.4087    0.3731 H   0  0  0  0  0  0  0  0  0  0  0  0
   -0.0540   -0.3060    0.4872 C   0  0  1  0  0  0  0  0  0  0  0  0
    0.6582   -0.8086    1.1495 H   0  0  0  0  0  0  0  0  0  0  0  0
    0.4896   -0.4124   -0.9737 C   0  0  1  0  0  0  0  0  0  0  0  0
    0.6143   -1.4821   -1.1755 H   0  0  0  0  0  0  0  0  0  0  0  0
   -0.5260    0.1211   -2.0089 C   0  0  0  0  0  0  0  0  0  0  0  0
   -0.7930    1.1619   -1.8063 H   0  0  0  0  0  0  0  0  0  0  0  0
   -0.1081    0.0646   -3.0187 H   0  0  0  0  0  0  0  0  0  0  0  0
   -1.4427   -0.4753   -1.9999 H   0  0  0  0  0  0  0  0  0  0  0  0
    1.8696    0.2393   -1.2571 C   0  0  0  0  0  0  0  0  0  0  0  0
    2.6243   -0.2757   -0.6541 H   0  0  0  0  0  0  0  0  0  0  0  0
    2.1190    0.0445   -2.3054 H   0  0  0  0  0  0  0  0  0  0  0  0
    2.0221    1.7463   -1.0179 C   0  0  0  0  0  0  0  0  0  0  0  0
    2.2012    1.9619    0.0354 H   0  0  0  0  0  0  0  0  0  0  0  0
    2.8875    2.1170   -1.5757 H   0  0  0  0  0  0  0  0  0  0  0  0
    1.1406    2.2986   -1.3545 H   0  0  0  0  0  0  0  0  0  0  0  0
   -0.2655    1.1175    1.0525 C   0  0  0  0  0  0  0  0  0  0  0  0
   -1.2785    1.7510    0.7724 O   0  0  0  0  0  0  0  0  0  0  0  0
    0.6238    1.6549    1.9658 N   0  0  0  0  0  0  0  0  0  0  0  0
    1.4296    1.0927    2.2243 H   0  0  0  0  0  0  0  0  0  0  0  0
    0.4435    2.9606    2.5882 C   0  0  0  0  0  0  0  0  0  0  0  0
   -0.5001    2.9940    3.1431 H   0  0  0  0  0  0  0  0  0  0  0  0
    1.2618    3.1632    3.2857 H   0  0  0  0  0  0  0  0  0  0  0  0
    0.4338    3.7485    1.8278 H   0  0  0  0  0  0  0  0  0  0  0  0
  1  2  1  0  0  0  0
  2  3  1  0  0  0  0
  2  4  1  0  0  0  0
  2  5  1  0  0  0  0
  5  6  2  0  0  0  0
  5  7  1  0  0  0  0
  7  8  1  0  0  0  0
  7  9  1  0  0  0  0
  9 10  1  0  0  0  0
  9 11  1  0  0  0  0
  9 24  1  0  0  0  0
 11 12  1  0  0  0  0
 11 13  1  0  0  0  0
 11 17  1  0  0  0  0
 13 14  1  0  0  0  0
 13 15  1  0  0  0  0
 13 16  1  0  0  0  0
 17 18  1  0  0  0  0
 17 19  1  0  0  0  0
 17 20  1  0  0  0  0
 20 21  1  0  0  0  0
 20 22  1  0  0  0  0
 20 23  1  0  0  0  0
 24 25  2  0  0  0  0
 24 26  1  0  0  0  0
 26 27  1  0  0  0  0
 26 28  1  0  0  0  0
 28 29  1  0  0  0  0
 28 30  1  0  0  0  0
 28 31  1  0  0  0  0
M  END
$$$$

  -OEChem-03222214053D

 31 30  0     1  0  0  0  0  0999 V2000
   -2.9553   -3.8463    1.4654 H   0  0  0  0  0  0  0  0  0  0  0  0
   -2.9708   -2.8232    1.0797 C   0  0  0  0  0  0  0  0  0  0  0  0
   -3.5625   -2.2007    1.7554 H   0  0  0  0  0  0  0  0  0  0  0  0
   -3.4398   -2.8252    0.0927 H   0  0  0  0  0  0  0  0  0  0  0  0
   -1.5575   -2.2811    0.9792 C   0  0  0  0  0  0  0  0  0  0  0  0
   -0.6092   -2.9795    1.3021 O   0  0  0  0  0  0  0  0  0  0  0  0
   -1.3496   -0.9935    0.5340 N   0  0  0  0  0  0  0  0  0  0  0  0
   -2.1699   -0.4088    0.3778 H   0  0  0  0  0  0  0  0  0  0  0  0
   -0.0424   -0.3177    0.5012 C   0  0  1  0  0  0  0  0  0  0  0  0
    0.6684   -0.8187    1.1659 H   0  0  0  0  0  0  0  0  0  0  0  0
    0.4994   -0.4233   -0.9654 C   0  0  1  0  0  0  0  0  0  0  0  0
    0.5880   -1.4923   -1.1894 H   0  0  0  0  0  0  0  0  0  0  0  0
   -0.5070    0.1701   -1.9790 C   0  0  0  0  0  0  0  0  0  0  0  0
   -0.6507    1.2410   -1.8081 H   0  0  0  0  0  0  0  0  0  0  0  0
   -0.1454    0.0329   -3.0026 H   0  0  0  0  0  0  0  0  0  0  0  0
   -1.4802   -0.3238   -1.9119 H   0  0  0  0  0  0  0  0  0  0  0  0
    1.8846    0.2098   -1.2812 C   0  0  0  0  0  0  0  0  0  0  0  0
    2.6540   -0.4615   -0.8864 H   0  0  0  0  0  0  0  0  0  0  0  0
    2.0196    0.2294   -2.3676 H   0  0  0  0  0  0  0  0  0  0  0  0
    2.1896    1.6088   -0.7454 C   0  0  0  0  0  0  0  0  0  0  0  0
    2.4512    1.5680    0.3131 H   0  0  0  0  0  0  0  0  0  0  0  0
    3.0499    2.0253   -1.2781 H   0  0  0  0  0  0  0  0  0  0  0  0
    1.3409    2.2835   -0.8922 H   0  0  0  0  0  0  0  0  0  0  0  0
   -0.2836    1.1030    1.0692 C   0  0  0  0  0  0  0  0  0  0  0  0
   -1.2999    1.7235    0.7708 O   0  0  0  0  0  0  0  0  0  0  0  0
    0.5787    1.6582    1.9974 N   0  0  0  0  0  0  0  0  0  0  0  0
    1.3868    1.1088    2.2748 H   0  0  0  0  0  0  0  0  0  0  0  0
    0.3704    2.9661    2.6066 C   0  0  0  0  0  0  0  0  0  0  0  0
   -0.5827    2.9916    3.1452 H   0  0  0  0  0  0  0  0  0  0  0  0
    1.1738    3.1847    3.3165 H   0  0  0  0  0  0  0  0  0  0  0  0
    0.3637    3.7480    1.8401 H   0  0  0  0  0  0  0  0  0  0  0  0
  1  2  1  0  0  0  0
  2  3  1  0  0  0  0
  2  4  1  0  0  0  0
  2  5  1  0  0  0  0
  5  6  2  0  0  0  0
  5  7  1  0  0  0  0
  7  8  1  0  0  0  0
  7  9  1  0  0  0  0
  9 10  1  0  0  0  0
  9 11  1  0  0  0  0
  9 24  1  0  0  0  0
 11 12  1  0  0  0  0
 11 13  1  0  0  0  0
 11 17  1  0  0  0  0
 13 14  1  0  0  0  0
 13 15  1  0  0  0  0
 13 16  1  0  0  0  0
 17 18  1  0  0  0  0
 17 19  1  0  0  0  0
 17 20  1  0  0  0  0
 20 21  1  0  0  0  0
 20 22  1  0  0  0  0
 20 23  1  0  0  0  0
 24 25  2  0  0  0  0
 24 26  1  0  0  0  0
 26 27  1  0  0  0  0
 26 28  1  0  0  0  0
 28 29  1  0  0  0  0
 28 30  1  0  0  0  0
 28 31  1  0  0  0  0
M  END
$$$$

  -OEChem-03222214053D

 31 30  0     1  0  0  0  0  0999 V2000
   -2.9665   -3.8411    1.4701 H   0  0  0  0  0  0  0  0  0  0  0  0
   -2.9756   -2.8193    1.0809 C   0  0  0  0  0  0  0  0  0  0  0  0
   -3.5693   -2.1923    1.7505 H   0  0  0  0  0  0  0  0  0  0  0  0
   -3.4378   -2.8230    0.0909 H   0  0  0  0  0  0  0  0  0  0  0  0
   -1.5602   -2.2820    0.9876 C   0  0  0  0  0  0  0  0  0  0  0  0
   -0.6159   -2.9817    1.3190 O   0  0  0  0  0  0  0  0  0  0  0  0
   -1.3461   -0.9970    0.5383 N   0  0  0  0  0  0  0  0  0  0  0  0
   -2.1636   -0.4091    0.3783 H   0  0  0  0  0  0  0  0  0  0  0  0
   -0.0362   -0.3258    0.5105 C   0  0  1  0  0  0  0  0  0  0  0  0
    0.6731   -0.8242    1.1786 H   0  0  0  0  0  0  0  0  0  0  0  0
    0.5068   -0.4287   -0.9580 C   0  0  1  0  0  0  0  0  0  0  0  0
    0.5784   -1.4970   -1.1909 H   0  0  0  0  0  0  0  0  0  0  0  0
   -0.4967    0.1880   -1.9616 C   0  0  0  0  0  0  0  0  0  0  0  0
   -0.5827    1.2683   -1.8095 H   0  0  0  0  0  0  0  0  0  0  0  0
   -0.1664    0.0121   -2.9901 H   0  0  0  0  0  0  0  0  0  0  0  0
   -1.4913   -0.2554   -1.8643 H   0  0  0  0  0  0  0  0  0  0  0  0
    1.8970    0.1945   -1.2888 C   0  0  0  0  0  0  0  0  0  0  0  0
    2.6452   -0.5890   -1.1298 H   0  0  0  0  0  0  0  0  0  0  0  0
    1.9412    0.4483   -2.3529 H   0  0  0  0  0  0  0  0  0  0  0  0
    2.3676    1.4112   -0.4977 C   0  0  0  0  0  0  0  0  0  0  0  0
    2.5758    1.1378    0.5390 H   0  0  0  0  0  0  0  0  0  0  0  0
    3.2963    1.7944   -0.9317 H   0  0  0  0  0  0  0  0  0  0  0  0
    1.6231    2.2120   -0.5340 H   0  0  0  0  0  0  0  0  0  0  0  0
   -0.2945    1.0958    1.0741 C   0  0  0  0  0  0  0  0  0  0  0  0
   -1.3119    1.7088    0.7633 O   0  0  0  0  0  0  0  0  0  0  0  0
    0.5514    1.6634    2.0102 N   0  0  0  0  0  0  0  0  0  0  0  0
    1.3610    1.1227    2.3000 H   0  0  0  0  0  0  0  0  0  0  0  0
    0.3235    2.9707    2.6135 C   0  0  0  0  0  0  0  0  0  0  0  0
   -0.6373    2.9885    3.1386 H   0  0  0  0  0  0  0  0  0  0  0  0
    1.1150    3.1975    3.3342 H   0  0  0  0  0  0  0  0  0  0  0  0
    0.3205    3.7515    1.8457 H   0  0  0  0  0  0  0  0  0  0  0  0
  1  2  1  0  0  0  0
  2  3  1  0  0  0  0
  2  4  1  0  0  0  0
  2  5  1  0  0  0  0
  5  6  2  0  0  0  0
  5  7  1  0  0  0  0
  7  8  1  0  0  0  0
  7  9  1  0  0  0  0
  9 10  1  0  0  0  0
  9 11  1  0  0  0  0
  9 24  1  0  0  0  0
 11 12  1  0  0  0  0
 11 13  1  0  0  0  0
 11 17  1  0  0  0  0
 13 14  1  0  0  0  0
 13 15  1  0  0  0  0
 13 16  1  0  0  0  0
 17 18  1  0  0  0  0
 17 19  1  0  0  0  0
 17 20  1  0  0  0  0
 20 21  1  0  0  0  0
 20 22  1  0  0  0  0
 20 23  1  0  0  0  0
 24 25  2  0  0  0  0
 24 26  1  0  0  0  0
 26 27  1  0  0  0  0
 26 28  1  0  0  0  0
 28 29  1  0  0  0  0
 28 30  1  0  0  0  0
 28 31  1  0  0  0  0
M  END
$$$$

  -OEChem-03222214053D

 31 30  0     1  0  0  0  0  0999 V2000
   -2.9773   -3.8390    1.4702 H   0  0  0  0  0  0  0  0  0  0  0  0
   -2.9834   -2.8176    1.0793 C   0  0  0  0  0  0  0  0  0  0  0  0
   -3.5783   -2.1884    1.7458 H   0  0  0  0  0  0  0  0  0  0  0  0
   -3.4423   -2.8222    0.0876 H   0  0  0  0  0  0  0  0  0  0  0  0
   -1.5664   -2.2829    0.9904 C   0  0  0  0  0  0  0  0  0  0  0  0
   -0.6248   -2.9837    1.3271 O   0  0  0  0  0  0  0  0  0  0  0  0
   -1.3478   -0.9992    0.5391 N   0  0  0  0  0  0  0  0  0  0  0  0
   -2.1638   -0.4108    0.3740 H   0  0  0  0  0  0  0  0  0  0  0  0
   -0.0369   -0.3295    0.5164 C   0  0  1  0  0  0  0  0  0  0  0  0
    0.6687   -0.8305    1.1867 H   0  0  0  0  0  0  0  0  0  0  0  0
    0.5098   -0.4242   -0.9510 C   0  0  1  0  0  0  0  0  0  0  0  0
    0.5886   -1.4936   -1.1768 H   0  0  0  0  0  0  0  0  0  0  0  0
   -0.4962    0.1720   -1.9638 C   0  0  0  0  0  0  0  0  0  0  0  0
   -0.6023    1.2509   -1.8145 H   0  0  0  0  0  0  0  0  0  0  0  0
   -0.1529   -0.0012   -2.9885 H   0  0  0  0  0  0  0  0  0  0  0  0
   -1.4833   -0.2892   -1.8739 H   0  0  0  0  0  0  0  0  0  0  0  0
    1.9033    0.1993   -1.2801 C   0  0  0  0  0  0  0  0  0  0  0  0
    2.6046   -0.6349   -1.3870 H   0  0  0  0  0  0  0  0  0  0  0  0
    1.8730    0.7005   -2.2534 H   0  0  0  0  0  0  0  0  0  0  0  0
    2.5317    1.1692   -0.2839 C   0  0  0  0  0  0  0  0  0  0  0  0
    2.6448    0.7002    0.6972 H   0  0  0  0  0  0  0  0  0  0  0  0
    3.5274    1.4596   -0.6329 H   0  0  0  0  0  0  0  0  0  0  0  0
    1.9306    2.0787   -0.2004 H   0  0  0  0  0  0  0  0  0  0  0  0
   -0.2941    1.0947    1.0750 C   0  0  0  0  0  0  0  0  0  0  0  0
   -1.3091    1.7083    0.7578 O   0  0  0  0  0  0  0  0  0  0  0  0
    0.5482    1.6640    2.0138 N   0  0  0  0  0  0  0  0  0  0  0  0
    1.3572    1.1241    2.3066 H   0  0  0  0  0  0  0  0  0  0  0  0
    0.3214    2.9747    2.6103 C   0  0  0  0  0  0  0  0  0  0  0  0
   -0.6379    2.9954    3.1380 H   0  0  0  0  0  0  0  0  0  0  0  0
    1.1148    3.2057    3.3274 H   0  0  0  0  0  0  0  0  0  0  0  0
    0.3164    3.7512    1.8381 H   0  0  0  0  0  0  0  0  0  0  0  0
  1  2  1  0  0  0  0
  2  3  1  0  0  0  0
  2  4  1  0  0  0  0
  2  5  1  0  0  0  0
  5  6  2  0  0  0  0
  5  7  1  0  0  0  0
  7  8  1  0  0  0  0
  7  9  1  0  0  0  0
  9 10  1  0  0  0  0
  9 11  1  0  0  0  0
  9 24  1  0  0  0  0
 11 12  1  0  0  0  0
 11 13  1  0  0  0  0
 11 17  1  0  0  0  0
 13 14  1  0  0  0  0
 13 15  1  0  0  0  0
 13 16  1  0  0  0  0
 17 18  1  0  0  0  0
 17 19  1  0  0  0  0
 17 20  1  0  0  0  0
 20 21  1  0  0  0  0
 20 22  1  0  0  0  0
 20 23  1  0  0  0  0
 24 25  2  0  0  0  0
 24 26  1  0  0  0  0
 26 27  1  0  0  0  0
 26 28  1  0  0  0  0
 28 29  1  0  0  0  0
 28 30  1  0  0  0  0
 28 31  1  0  0  0  0
M  END
$$$$

  -OEChem-03222214053D

 31 30  0     1  0  0  0  0  0999 V2000
   -2.9957   -3.8300    1.4724 H   0  0  0  0  0  0  0  0  0  0  0  0
   -2.9977   -2.8099    1.0784 C   0  0  0  0  0  0  0  0  0  0  0  0
   -3.5919   -2.1770    1.7419 H   0  0  0  0  0  0  0  0  0  0  0  0
   -3.4548   -2.8161    0.0859 H   0  0  0  0  0  0  0  0  0  0  0  0
   -1.5792   -2.2795    0.9913 C   0  0  0  0  0  0  0  0  0  0  0  0
   -0.6410   -2.9808    1.3360 O   0  0  0  0  0  0  0  0  0  0  0  0
   -1.3557   -0.9983    0.5353 N   0  0  0  0  0  0  0  0  0  0  0  0
   -2.1699   -0.4094    0.3629 H   0  0  0  0  0  0  0  0  0  0  0  0
   -0.0441   -0.3300    0.5194 C   0  0  1  0  0  0  0  0  0  0  0  0
    0.6522   -0.8346    1.1963 H   0  0  0  0  0  0  0  0  0  0  0  0
    0.5135   -0.4208   -0.9415 C   0  0  1  0  0  0  0  0  0  0  0  0
    0.6110   -1.4929   -1.1461 H   0  0  0  0  0  0  0  0  0  0  0  0
   -0.4858    0.1382   -1.9797 C   0  0  0  0  0  0  0  0  0  0  0  0
   -0.6437    1.2105   -1.8290 H   0  0  0  0  0  0  0  0  0  0  0  0
   -0.1026   -0.0138   -2.9937 H   0  0  0  0  0  0  0  0  0  0  0  0
   -1.4535   -0.3672   -1.9196 H   0  0  0  0  0  0  0  0  0  0  0  0
    1.9086    0.2044   -1.2577 C   0  0  0  0  0  0  0  0  0  0  0  0
    2.5401   -0.6039   -1.6415 H   0  0  0  0  0  0  0  0  0  0  0  0
    1.8183    0.9381   -2.0659 H   0  0  0  0  0  0  0  0  0  0  0  0
    2.6819    0.8818   -0.1280 C   0  0  0  0  0  0  0  0  0  0  0  0
    2.7066    0.2547    0.7675 H   0  0  0  0  0  0  0  0  0  0  0  0
    3.7143    1.0560   -0.4460 H   0  0  0  0  0  0  0  0  0  0  0  0
    2.2434    1.8546    0.1056 H   0  0  0  0  0  0  0  0  0  0  0  0
   -0.2861    1.0999    1.0664 C   0  0  0  0  0  0  0  0  0  0  0  0
   -1.2962    1.7195    0.7460 O   0  0  0  0  0  0  0  0  0  0  0  0
    0.5598    1.6648    2.0041 N   0  0  0  0  0  0  0  0  0  0  0  0
    1.3672    1.1215    2.2950 H   0  0  0  0  0  0  0  0  0  0  0  0
    0.3434    2.9799    2.5950 C   0  0  0  0  0  0  0  0  0  0  0  0
   -0.6148    3.0096    3.1245 H   0  0  0  0  0  0  0  0  0  0  0  0
    1.1400    3.2093    3.3092 H   0  0  0  0  0  0  0  0  0  0  0  0
    0.3417    3.7524    1.8188 H   0  0  0  0  0  0  0  0  0  0  0  0
  1  2  1  0  0  0  0
  2  3  1  0  0  0  0
  2  4  1  0  0  0  0
  2  5  1  0  0  0  0
  5  6  2  0  0  0  0
  5  7  1  0  0  0  0
  7  8  1  0  0  0  0
  7  9  1  0  0  0  0
  9 10  1  0  0  0  0
  9 11  1  0  0  0  0
  9 24  1  0  0  0  0
 11 12  1  0  0  0  0
 11 13  1  0  0  0  0
 11 17  1  0  0  0  0
 13 14  1  0  0  0  0
 13 15  1  0  0  0  0
 13 16  1  0  0  0  0
 17 18  1  0  0  0  0
 17 19  1  0  0  0  0
 17 20  1  0  0  0  0
 20 21  1  0  0  0  0
 20 22  1  0  0  0  0
 20 23  1  0  0  0  0
 24 25  2  0  0  0  0
 24 26  1  0  0  0  0
 26 27  1  0  0  0  0
 26 28  1  0  0  0  0
 28 29  1  0  0  0  0
 28 30  1  0  0  0  0
 28 31  1  0  0  0  0
M  END
$$$$

  -OEChem-03222214053D

 31 30  0     1  0  0  0  0  0999 V2000
   -3.0079   -3.8230    1.4726 H   0  0  0  0  0  0  0  0  0  0  0  0
   -3.0058   -2.8047    1.0738 C   0  0  0  0  0  0  0  0  0  0  0  0
   -3.6029   -2.1677    1.7310 H   0  0  0  0  0  0  0  0  0  0  0  0
   -3.4568   -2.8145    0.0786 H   0  0  0  0  0  0  0  0  0  0  0  0
   -1.5856   -2.2780    0.9923 C   0  0  0  0  0  0  0  0  0  0  0  0
   -0.6511   -2.9802    1.3452 O   0  0  0  0  0  0  0  0  0  0  0  0
   -1.3568   -0.9999    0.5302 N   0  0  0  0  0  0  0  0  0  0  0  0
   -2.1688   -0.4108    0.3491 H   0  0  0  0  0  0  0  0  0  0  0  0
   -0.0438   -0.3345    0.5179 C   0  0  1  0  0  0  0  0  0  0  0  0
    0.6463   -0.8418    1.1989 H   0  0  0  0  0  0  0  0  0  0  0  0
    0.5159   -0.4167   -0.9396 C   0  0  1  0  0  0  0  0  0  0  0  0
    0.6262   -1.4892   -1.1353 H   0  0  0  0  0  0  0  0  0  0  0  0
   -0.4729    0.1288   -1.9925 C   0  0  0  0  0  0  0  0  0  0  0  0
   -0.6632    1.1946   -1.8341 H   0  0  0  0  0  0  0  0  0  0  0  0
   -0.0612   -0.0002   -2.9984 H   0  0  0  0  0  0  0  0  0  0  0  0
   -1.4275   -0.4035   -1.9573 H   0  0  0  0  0  0  0  0  0  0  0  0
    1.9095    0.2102   -1.2384 C   0  0  0  0  0  0  0  0  0  0  0  0
    2.4511   -0.4896   -1.8836 H   0  0  0  0  0  0  0  0  0  0  0  0
    1.7816    1.1348   -1.8118 H   0  0  0  0  0  0  0  0  0  0  0  0
    2.8113    0.5530   -0.0515 C   0  0  0  0  0  0  0  0  0  0  0  0
    2.8110   -0.2496    0.6915 H   0  0  0  0  0  0  0  0  0  0  0  0
    3.8388    0.6876   -0.4032 H   0  0  0  0  0  0  0  0  0  0  0  0
    2.5040    1.4906    0.4125 H   0  0  0  0  0  0  0  0  0  0  0  0
   -0.2714    1.1013    1.0533 C   0  0  0  0  0  0  0  0  0  0  0  0
   -1.2756    1.7278    0.7279 O   0  0  0  0  0  0  0  0  0  0  0  0
    0.5781    1.6637    1.9883 N   0  0  0  0  0  0  0  0  0  0  0  0
    1.3765    1.1115    2.2878 H   0  0  0  0  0  0  0  0  0  0  0  0
    0.3725    2.9830    2.5737 C   0  0  0  0  0  0  0  0  0  0  0  0
   -0.5894    3.0263    3.0955 H   0  0  0  0  0  0  0  0  0  0  0  0
    1.1660    3.2043    3.2937 H   0  0  0  0  0  0  0  0  0  0  0  0
    0.3866    3.7533    1.7956 H   0  0  0  0  0  0  0  0  0  0  0  0
  1  2  1  0  0  0  0
  2  3  1  0  0  0  0
  2  4  1  0  0  0  0
  2  5  1  0  0  0  0
  5  6  2  0  0  0  0
  5  7  1  0  0  0  0
  7  8  1  0  0  0  0
  7  9  1  0  0  0  0
  9 10  1  0  0  0  0
  9 11  1  0  0  0  0
  9 24  1  0  0  0  0
 11 12  1  0  0  0  0
 11 13  1  0  0  0  0
 11 17  1  0  0  0  0
 13 14  1  0  0  0  0
 13 15  1  0  0  0  0
 13 16  1  0  0  0  0
 17 18  1  0  0  0  0
 17 19  1  0  0  0  0
 17 20  1  0  0  0  0
 20 21  1  0  0  0  0
 20 22  1  0  0  0  0
 20 23  1  0  0  0  0
 24 25  2  0  0  0  0
 24 26  1  0  0  0  0
 26 27  1  0  0  0  0
 26 28  1  0  0  0  0
 28 29  1  0  0  0  0
 28 30  1  0  0  0  0
 28 31  1  0  0  0  0
M  END
$$$$

  -OEChem-03222214053D

 31 30  0     1  0  0  0  0  0999 V2000
   -3.0056   -3.8092    1.4970 H   0  0  0  0  0  0  0  0  0  0  0  0
   -3.0025   -2.7930    1.0930 C   0  0  0  0  0  0  0  0  0  0  0  0
   -3.5942   -2.1510    1.7500 H   0  0  0  0  0  0  0  0  0  0  0  0
   -3.4593   -2.8068    0.1005 H   0  0  0  0  0  0  0  0  0  0  0  0
   -1.5807   -2.2717    1.0015 C   0  0  0  0  0  0  0  0  0  0  0  0
   -0.6482   -2.9736    1.3604 O   0  0  0  0  0  0  0  0  0  0  0  0
   -1.3470   -1.0000    0.5243 N   0  0  0  0  0  0  0  0  0  0  0  0
   -2.1560   -0.4087    0.3375 H   0  0  0  0  0  0  0  0  0  0  0  0
   -0.0308   -0.3425    0.5009 C   0  0  1  0  0  0  0  0  0  0  0  0
    0.6621   -0.8484    1.1803 H   0  0  0  0  0  0  0  0  0  0  0  0
    0.5204   -0.4185   -0.9568 C   0  0  1  0  0  0  0  0  0  0  0  0
    0.6291   -1.4890   -1.1639 H   0  0  0  0  0  0  0  0  0  0  0  0
   -0.4555    0.1473   -2.0092 C   0  0  0  0  0  0  0  0  0  0  0  0
   -0.6309    1.2154   -1.8485 H   0  0  0  0  0  0  0  0  0  0  0  0
   -0.0420    0.0166   -3.0141 H   0  0  0  0  0  0  0  0  0  0  0  0
   -1.4177   -0.3712   -1.9771 H   0  0  0  0  0  0  0  0  0  0  0  0
    1.9130    0.2106   -1.2229 C   0  0  0  0  0  0  0  0  0  0  0  0
    2.3656   -0.3158   -2.0701 H   0  0  0  0  0  0  0  0  0  0  0  0
    1.7866    1.2569   -1.5217 H   0  0  0  0  0  0  0  0  0  0  0  0
    2.9017    0.1909   -0.0536 C   0  0  0  0  0  0  0  0  0  0  0  0
    2.9411   -0.8046    0.3994 H   0  0  0  0  0  0  0  0  0  0  0  0
    3.9029    0.4400   -0.4185 H   0  0  0  0  0  0  0  0  0  0  0  0
    2.6416    0.9226    0.7089 H   0  0  0  0  0  0  0  0  0  0  0  0
   -0.2443    1.1020    1.0205 C   0  0  0  0  0  0  0  0  0  0  0  0
   -1.2511    1.7266    0.6990 O   0  0  0  0  0  0  0  0  0  0  0  0
    0.6105    1.6737    1.9448 N   0  0  0  0  0  0  0  0  0  0  0  0
    1.3957    1.1147    2.2653 H   0  0  0  0  0  0  0  0  0  0  0  0
    0.3928    2.9879    2.5372 C   0  0  0  0  0  0  0  0  0  0  0  0
   -0.5562    3.0091    3.0833 H   0  0  0  0  0  0  0  0  0  0  0  0
    1.1997    3.2257    3.2369 H   0  0  0  0  0  0  0  0  0  0  0  0
    0.3706    3.7598    1.7606 H   0  0  0  0  0  0  0  0  0  0  0  0
  1  2  1  0  0  0  0
  2  3  1  0  0  0  0
  2  4  1  0  0  0  0
  2  5  1  0  0  0  0
  5  6  2  0  0  0  0
  5  7  1  0  0  0  0
  7  8  1  0  0  0  0
  7  9  1  0  0  0  0
  9 10  1  0  0  0  0
  9 11  1  0  0  0  0
  9 24  1  0  0  0  0
 11 12  1  0  0  0  0
 11 13  1  0  0  0  0
 11 17  1  0  0  0  0
 13 14  1  0  0  0  0
 13 15  1  0  0  0  0
 13 16  1  0  0  0  0
 17 18  1  0  0  0  0
 17 19  1  0  0  0  0
 17 20  1  0  0  0  0
 20 21  1  0  0  0  0
 20 22  1  0  0  0  0
 20 23  1  0  0  0  0
 24 25  2  0  0  0  0
 24 26  1  0  0  0  0
 26 27  1  0  0  0  0
 26 28  1  0  0  0  0
 28 29  1  0  0  0  0
 28 30  1  0  0  0  0
 28 31  1  0  0  0  0
M  END
$$$$

  -OEChem-03222214053D

 31 30  0     1  0  0  0  0  0999 V2000
   -2.9802   -3.8407    1.5153 H   0  0  0  0  0  0  0  0  0  0  0  0
   -2.9894   -2.8264    1.1067 C   0  0  0  0  0  0  0  0  0  0  0  0
   -3.5834   -2.1871    1.7643 H   0  0  0  0  0  0  0  0  0  0  0  0
   -3.4516   -2.8495    0.1168 H   0  0  0  0  0  0  0  0  0  0  0  0
   -1.5737   -2.2910    1.0032 C   0  0  0  0  0  0  0  0  0  0  0  0
   -0.6311   -2.9846    1.3519 O   0  0  0  0  0  0  0  0  0  0  0  0
   -1.3588   -1.0179    0.5205 N   0  0  0  0  0  0  0  0  0  0  0  0
   -2.1767   -0.4374    0.3402 H   0  0  0  0  0  0  0  0  0  0  0  0
   -0.0508   -0.3469    0.4742 C   0  0  1  0  0  0  0  0  0  0  0  0
    0.6440   -0.8532    1.1509 H   0  0  0  0  0  0  0  0  0  0  0  0
    0.5083   -0.4194   -0.9765 C   0  0  1  0  0  0  0  0  0  0  0  0
    0.6313   -1.4847   -1.2011 H   0  0  0  0  0  0  0  0  0  0  0  0
   -0.4575    0.1625   -2.0270 C   0  0  0  0  0  0  0  0  0  0  0  0
   -0.6214    1.2314   -1.8608 H   0  0  0  0  0  0  0  0  0  0  0  0
   -0.0433    0.0328   -3.0316 H   0  0  0  0  0  0  0  0  0  0  0  0
   -1.4252   -0.3462   -1.9973 H   0  0  0  0  0  0  0  0  0  0  0  0
    1.8903    0.2454   -1.1816 C   0  0  0  0  0  0  0  0  0  0  0  0
    2.2861   -0.0664   -2.1540 H   0  0  0  0  0  0  0  0  0  0  0  0
    1.7699    1.3337   -1.2105 H   0  0  0  0  0  0  0  0  0  0  0  0
    2.9273   -0.0899   -0.1040 C   0  0  0  0  0  0  0  0  0  0  0  0
    3.0197   -1.1748    0.0078 H   0  0  0  0  0  0  0  0  0  0  0  0
    3.9030    0.3106   -0.3956 H   0  0  0  0  0  0  0  0  0  0  0  0
    2.6649    0.3407    0.8627 H   0  0  0  0  0  0  0  0  0  0  0  0
   -0.2277    1.1023    0.9880 C   0  0  0  0  0  0  0  0  0  0  0  0
   -1.2346    1.7390    0.6937 O   0  0  0  0  0  0  0  0  0  0  0  0
    0.6652    1.6592    1.8849 N   0  0  0  0  0  0  0  0  0  0  0  0
    1.4525    1.0891    2.1793 H   0  0  0  0  0  0  0  0  0  0  0  0
    0.4956    2.9838    2.4697 C   0  0  0  0  0  0  0  0  0  0  0  0
   -0.4481    3.0415    3.0224 H   0  0  0  0  0  0  0  0  0  0  0  0
    1.3149    3.1991    3.1623 H   0  0  0  0  0  0  0  0  0  0  0  0
    0.4937    3.7499    1.6873 H   0  0  0  0  0  0  0  0  0  0  0  0
  1  2  1  0  0  0  0
  2  3  1  0  0  0  0
  2  4  1  0  0  0  0
  2  5  1  0  0  0  0
  5  6  2  0  0  0  0
  5  7  1  0  0  0  0
  7  8  1  0  0  0  0
  7  9  1  0  0  0  0
  9 10  1  0  0  0  0
  9 11  1  0  0  0  0
  9 24  1  0  0  0  0
 11 12  1  0  0  0  0
 11 13  1  0  0  0  0
 11 17  1  0  0  0  0
 13 14  1  0  0  0  0
 13 15  1  0  0  0  0
 13 16  1  0  0  0  0
 17 18  1  0  0  0  0
 17 19  1  0  0  0  0
 17 20  1  0  0  0  0
 20 21  1  0  0  0  0
 20 22  1  0  0  0  0
 20 23  1  0  0  0  0
 24 25  2  0  0  0  0
 24 26  1  0  0  0  0
 26 27  1  0  0  0  0
 26 28  1  0  0  0  0
 28 29  1  0  0  0  0
 28 30  1  0  0  0  0
 28 31  1  0  0  0  0
M  END
$$$$

  -OEChem-03222214053D

 31 30  0     1  0  0  0  0  0999 V2000
   -2.9431   -3.8724    1.5176 H   0  0  0  0  0  0  0  0  0  0  0  0
   -2.9720   -2.8579    1.1103 C   0  0  0  0  0  0  0  0  0  0  0  0
   -3.5653   -2.2274    1.7768 H   0  0  0  0  0  0  0  0  0  0  0  0
   -3.4474   -2.8861    0.1269 H   0  0  0  0  0  0  0  0  0  0  0  0
   -1.5653   -2.3036    0.9879 C   0  0  0  0  0  0  0  0  0  0  0  0
   -0.6089   -2.9886    1.3150 O   0  0  0  0  0  0  0  0  0  0  0  0
   -1.3737   -1.0244    0.5104 N   0  0  0  0  0  0  0  0  0  0  0  0
   -2.2020   -0.4545    0.3454 H   0  0  0  0  0  0  0  0  0  0  0  0
   -0.0749   -0.3369    0.4473 C   0  0  1  0  0  0  0  0  0  0  0  0
    0.6202   -0.8414    1.1247 H   0  0  0  0  0  0  0  0  0  0  0  0
    0.4985   -0.4220   -0.9947 C   0  0  1  0  0  0  0  0  0  0  0  0
    0.6335   -1.4841   -1.2273 H   0  0  0  0  0  0  0  0  0  0  0  0
   -0.4625    0.1646   -2.0461 C   0  0  0  0  0  0  0  0  0  0  0  0
   -0.6133    1.2364   -1.8851 H   0  0  0  0  0  0  0  0  0  0  0  0
   -0.0541    0.0234   -3.0515 H   0  0  0  0  0  0  0  0  0  0  0  0
   -1.4359   -0.3328   -2.0094 H   0  0  0  0  0  0  0  0  0  0  0  0
    1.8683    0.2762   -1.1515 C   0  0  0  0  0  0  0  0  0  0  0  0
    2.1997    0.1705   -2.1899 H   0  0  0  0  0  0  0  0  0  0  0  0
    1.7728    1.3479   -0.9487 H   0  0  0  0  0  0  0  0  0  0  0  0
    2.9525   -0.3166   -0.2458 C   0  0  0  0  0  0  0  0  0  0  0  0
    3.0236   -1.3988   -0.3940 H   0  0  0  0  0  0  0  0  0  0  0  0
    3.9223    0.1291   -0.4873 H   0  0  0  0  0  0  0  0  0  0  0  0
    2.7427   -0.1194    0.8084 H   0  0  0  0  0  0  0  0  0  0  0  0
   -0.2233    1.1107    0.9663 C   0  0  0  0  0  0  0  0  0  0  0  0
   -1.2286    1.7609    0.6997 O   0  0  0  0  0  0  0  0  0  0  0  0
    0.7054    1.6435    1.8416 N   0  0  0  0  0  0  0  0  0  0  0  0
    1.4994    1.0629    2.0953 H   0  0  0  0  0  0  0  0  0  0  0  0
    0.5806    2.9689    2.4356 C   0  0  0  0  0  0  0  0  0  0  0  0
   -0.3503    3.0471    3.0070 H   0  0  0  0  0  0  0  0  0  0  0  0
    1.4182    3.1604    3.1131 H   0  0  0  0  0  0  0  0  0  0  0  0
    0.5825    3.7389    1.6571 H   0  0  0  0  0  0  0  0  0  0  0  0
  1  2  1  0  0  0  0
  2  3  1  0  0  0  0
  2  4  1  0  0  0  0
  2  5  1  0  0  0  0
  5  6  2  0  0  0  0
  5  7  1  0  0  0  0
  7  8  1  0  0  0  0
  7  9  1  0  0  0  0
  9 10  1  0  0  0  0
  9 11  1  0  0  0  0
  9 24  1  0  0  0  0
 11 12  1  0  0  0  0
 11 13  1  0  0  0  0
 11 17  1  0  0  0  0
 13 14  1  0  0  0  0
 13 15  1  0  0  0  0
 13 16  1  0  0  0  0
 17 18  1  0  0  0  0
 17 19  1  0  0  0  0
 17 20  1  0  0  0  0
 20 21  1  0  0  0  0
 20 22  1  0  0  0  0
 20 23  1  0  0  0  0
 24 25  2  0  0  0  0
 24 26  1  0  0  0  0
 26 27  1  0  0  0  0
 26 28  1  0  0  0  0
 28 29  1  0  0  0  0
 28 30  1  0  0  0  0
 28 31  1  0  0  0  0
M  END
$$$$

  -OEChem-03222214053D

 31 30  0     1  0  0  0  0  0999 V2000
   -2.9246   -3.8732    1.5208 H   0  0  0  0  0  0  0  0  0  0  0  0
   -2.9576   -2.8576    1.1163 C   0  0  0  0  0  0  0  0  0  0  0  0
   -3.5455   -2.2291    1.7896 H   0  0  0  0  0  0  0  0  0  0  0  0
   -3.4419   -2.8839    0.1372 H   0  0  0  0  0  0  0  0  0  0  0  0
   -1.5524   -2.3013    0.9836 C   0  0  0  0  0  0  0  0  0  0  0  0
   -0.5925   -2.9835    1.3067 O   0  0  0  0  0  0  0  0  0  0  0  0
   -1.3667   -1.0212    0.5063 N   0  0  0  0  0  0  0  0  0  0  0  0
   -2.1972   -0.4539    0.3436 H   0  0  0  0  0  0  0  0  0  0  0  0
   -0.0699   -0.3308    0.4356 C   0  0  1  0  0  0  0  0  0  0  0  0
    0.6323   -0.8290    1.1105 H   0  0  0  0  0  0  0  0  0  0  0  0
    0.5019   -0.4273   -1.0071 C   0  0  1  0  0  0  0  0  0  0  0  0
    0.6275   -1.4883   -1.2497 H   0  0  0  0  0  0  0  0  0  0  0  0
   -0.4607    0.1749   -2.0493 C   0  0  0  0  0  0  0  0  0  0  0  0
   -0.5926    1.2490   -1.8862 H   0  0  0  0  0  0  0  0  0  0  0  0
   -0.0655    0.0283   -3.0592 H   0  0  0  0  0  0  0  0  0  0  0  0
   -1.4417   -0.3063   -2.0038 H   0  0  0  0  0  0  0  0  0  0  0  0
    1.8699    0.2783   -1.1525 C   0  0  0  0  0  0  0  0  0  0  0  0
    2.1034    0.3904   -2.2165 H   0  0  0  0  0  0  0  0  0  0  0  0
    1.8436    1.2849   -0.7252 H   0  0  0  0  0  0  0  0  0  0  0  0
    3.0010   -0.5341   -0.5173 C   0  0  0  0  0  0  0  0  0  0  0  0
    3.0437   -1.5379   -0.9517 H   0  0  0  0  0  0  0  0  0  0  0  0
    3.9607   -0.0395   -0.6957 H   0  0  0  0  0  0  0  0  0  0  0  0
    2.8584   -0.6260    0.5630 H   0  0  0  0  0  0  0  0  0  0  0  0
   -0.2223    1.1151    0.9580 C   0  0  0  0  0  0  0  0  0  0  0  0
   -1.2314    1.7623    0.6988 O   0  0  0  0  0  0  0  0  0  0  0  0
    0.7112    1.6470    1.8291 N   0  0  0  0  0  0  0  0  0  0  0  0
    1.5074    1.0666    2.0766 H   0  0  0  0  0  0  0  0  0  0  0  0
    0.5830    2.9664    2.4358 C   0  0  0  0  0  0  0  0  0  0  0  0
   -0.3389    3.0312    3.0235 H   0  0  0  0  0  0  0  0  0  0  0  0
    1.4302    3.1603    3.1007 H   0  0  0  0  0  0  0  0  0  0  0  0
    0.5642    3.7430    1.6638 H   0  0  0  0  0  0  0  0  0  0  0  0
  1  2  1  0  0  0  0
  2  3  1  0  0  0  0
  2  4  1  0  0  0  0
  2  5  1  0  0  0  0
  5  6  2  0  0  0  0
  5  7  1  0  0  0  0
  7  8  1  0  0  0  0
  7  9  1  0  0  0  0
  9 10  1  0  0  0  0
  9 11  1  0  0  0  0
  9 24  1  0  0  0  0
 11 12  1  0  0  0  0
 11 13  1  0  0  0  0
 11 17  1  0  0  0  0
 13 14  1  0  0  0  0
 13 15  1  0  0  0  0
 13 16  1  0  0  0  0
 17 18  1  0  0  0  0
 17 19  1  0  0  0  0
 17 20  1  0  0  0  0
 20 21  1  0  0  0  0
 20 22  1  0  0  0  0
 20 23  1  0  0  0  0
 24 25  2  0  0  0  0
 24 26  1  0  0  0  0
 26 27  1  0  0  0  0
 26 28  1  0  0  0  0
 28 29  1  0  0  0  0
 28 30  1  0  0  0  0
 28 31  1  0  0  0  0
M  END
$$$$

  -OEChem-03222214053D

 31 30  0     1  0  0  0  0  0999 V2000
   -2.9119   -3.8665    1.5209 H   0  0  0  0  0  0  0  0  0  0  0  0
   -2.9459   -2.8510    1.1167 C   0  0  0  0  0  0  0  0  0  0  0  0
   -3.5335   -2.2231    1.7908 H   0  0  0  0  0  0  0  0  0  0  0  0
   -3.4312   -2.8775    0.1382 H   0  0  0  0  0  0  0  0  0  0  0  0
   -1.5412   -2.2938    0.9827 C   0  0  0  0  0  0  0  0  0  0  0  0
   -0.5807   -2.9749    1.3065 O   0  0  0  0  0  0  0  0  0  0  0  0
   -1.3557   -1.0137    0.5053 N   0  0  0  0  0  0  0  0  0  0  0  0
   -2.1858   -0.4449    0.3450 H   0  0  0  0  0  0  0  0  0  0  0  0
   -0.0574   -0.3257    0.4334 C   0  0  1  0  0  0  0  0  0  0  0  0
    0.6527   -0.8208    1.1031 H   0  0  0  0  0  0  0  0  0  0  0  0
    0.5078   -0.4266   -1.0123 C   0  0  1  0  0  0  0  0  0  0  0  0
    0.6206   -1.4882   -1.2590 H   0  0  0  0  0  0  0  0  0  0  0  0
   -0.4610    0.1800   -2.0472 C   0  0  0  0  0  0  0  0  0  0  0  0
   -0.5874    1.2546   -1.8829 H   0  0  0  0  0  0  0  0  0  0  0  0
   -0.0740    0.0313   -3.0600 H   0  0  0  0  0  0  0  0  0  0  0  0
   -1.4435   -0.2976   -1.9953 H   0  0  0  0  0  0  0  0  0  0  0  0
    1.8800    0.2764   -1.1595 C   0  0  0  0  0  0  0  0  0  0  0  0
    2.0068    0.6281   -2.1888 H   0  0  0  0  0  0  0  0  0  0  0  0
    1.9571    1.1559   -0.5160 H   0  0  0  0  0  0  0  0  0  0  0  0
    3.0269   -0.6914   -0.8637 C   0  0  0  0  0  0  0  0  0  0  0  0
    3.0047   -1.5379   -1.5574 H   0  0  0  0  0  0  0  0  0  0  0  0
    3.9877   -0.1795   -0.9740 H   0  0  0  0  0  0  0  0  0  0  0  0
    2.9536   -1.0747    0.1586 H   0  0  0  0  0  0  0  0  0  0  0  0
   -0.2212    1.1184    0.9596 C   0  0  0  0  0  0  0  0  0  0  0  0
   -1.2321    1.7618    0.6974 O   0  0  0  0  0  0  0  0  0  0  0  0
    0.7066    1.6546    1.8342 N   0  0  0  0  0  0  0  0  0  0  0  0
    1.5018    1.0758    2.0889 H   0  0  0  0  0  0  0  0  0  0  0  0
    0.5655    2.9701    2.4459 C   0  0  0  0  0  0  0  0  0  0  0  0
   -0.3563    3.0224    3.0349 H   0  0  0  0  0  0  0  0  0  0  0  0
    1.4115    3.1709    3.1103 H   0  0  0  0  0  0  0  0  0  0  0  0
    0.5375    3.7490    1.6766 H   0  0  0  0  0  0  0  0  0  0  0  0
  1  2  1  0  0  0  0
  2  3  1  0  0  0  0
  2  4  1  0  0  0  0
  2  5  1  0  0  0  0
  5  6  2  0  0  0  0
  5  7  1  0  0  0  0
  7  8  1  0  0  0  0
  7  9  1  0  0  0  0
  9 10  1  0  0  0  0
  9 11  1  0  0  0  0
  9 24  1  0  0  0  0
 11 12  1  0  0  0  0
 11 13  1  0  0  0  0
 11 17  1  0  0  0  0
 13 14  1  0  0  0  0
 13 15  1  0  0  0  0
 13 16  1  0  0  0  0
 17 18  1  0  0  0  0
 17 19  1  0  0  0  0
 17 20  1  0  0  0  0
 20 21  1  0  0  0  0
 20 22  1  0  0  0  0
 20 23  1  0  0  0  0
 24 25  2  0  0  0  0
 24 26  1  0  0  0  0
 26 27  1  0  0  0  0
 26 28  1  0  0  0  0
 28 29  1  0  0  0  0
 28 30  1  0  0  0  0
 28 31  1  0  0  0  0
M  END
$$$$

  -OEChem-03222214053D

 31 30  0     1  0  0  0  0  0999 V2000
   -2.9156   -3.8592    1.5178 H   0  0  0  0  0  0  0  0  0  0  0  0
   -2.9451   -2.8442    1.1118 C   0  0  0  0  0  0  0  0  0  0  0  0
   -3.5346   -2.2136    1.7817 H   0  0  0  0  0  0  0  0  0  0  0  0
   -3.4255   -2.8710    0.1309 H   0  0  0  0  0  0  0  0  0  0  0  0
   -1.5384   -2.2908    0.9841 C   0  0  0  0  0  0  0  0  0  0  0  0
   -0.5812   -2.9737    1.3136 O   0  0  0  0  0  0  0  0  0  0  0  0
   -1.3473   -1.0116    0.5065 N   0  0  0  0  0  0  0  0  0  0  0  0
   -2.1751   -0.4414    0.3393 H   0  0  0  0  0  0  0  0  0  0  0  0
   -0.0468   -0.3275    0.4383 C   0  0  1  0  0  0  0  0  0  0  0  0
    0.6656   -0.8247    1.1045 H   0  0  0  0  0  0  0  0  0  0  0  0
    0.5120   -0.4212   -1.0101 C   0  0  1  0  0  0  0  0  0  0  0  0
    0.6204   -1.4845   -1.2518 H   0  0  0  0  0  0  0  0  0  0  0  0
   -0.4605    0.1780   -2.0460 C   0  0  0  0  0  0  0  0  0  0  0  0
   -0.5985    1.2507   -1.8801 H   0  0  0  0  0  0  0  0  0  0  0  0
   -0.0677    0.0352   -3.0575 H   0  0  0  0  0  0  0  0  0  0  0  0
   -1.4382   -0.3097   -1.9977 H   0  0  0  0  0  0  0  0  0  0  0  0
    1.8891    0.2775   -1.1599 C   0  0  0  0  0  0  0  0  0  0  0  0
    1.9133    0.8819   -2.0730 H   0  0  0  0  0  0  0  0  0  0  0  0
    2.0907    0.9557   -0.3280 H   0  0  0  0  0  0  0  0  0  0  0  0
    3.0156   -0.7526   -1.2464 C   0  0  0  0  0  0  0  0  0  0  0  0
    2.8762   -1.4022   -2.1164 H   0  0  0  0  0  0  0  0  0  0  0  0
    3.9812   -0.2472   -1.3432 H   0  0  0  0  0  0  0  0  0  0  0  0
    3.0362   -1.3726   -0.3445 H   0  0  0  0  0  0  0  0  0  0  0  0
   -0.2155    1.1169    0.9644 C   0  0  0  0  0  0  0  0  0  0  0  0
   -1.2259    1.7581    0.6953 O   0  0  0  0  0  0  0  0  0  0  0  0
    0.7049    1.6581    1.8440 N   0  0  0  0  0  0  0  0  0  0  0  0
    1.4962    1.0796    2.1111 H   0  0  0  0  0  0  0  0  0  0  0  0
    0.5530    2.9732    2.4544 C   0  0  0  0  0  0  0  0  0  0  0  0
   -0.3769    3.0237    3.0308 H   0  0  0  0  0  0  0  0  0  0  0  0
    1.3893    3.1753    3.1304 H   0  0  0  0  0  0  0  0  0  0  0  0
    0.5337    3.7520    1.6848 H   0  0  0  0  0  0  0  0  0  0  0  0
  1  2  1  0  0  0  0
  2  3  1  0  0  0  0
  2  4  1  0  0  0  0
  2  5  1  0  0  0  0
  5  6  2  0  0  0  0
  5  7  1  0  0  0  0
  7  8  1  0  0  0  0
  7  9  1  0  0  0  0
  9 10  1  0  0  0  0
  9 11  1  0  0  0  0
  9 24  1  0  0  0  0
 11 12  1  0  0  0  0
 11 13  1  0  0  0  0
 11 17  1  0  0  0  0
 13 14  1  0  0  0  0
 13 15  1  0  0  0  0
 13 16  1  0  0  0  0
 17 18  1  0  0  0  0
 17 19  1  0  0  0  0
 17 20  1  0  0  0  0
 20 21  1  0  0  0  0
 20 22  1  0  0  0  0
 20 23  1  0  0  0  0
 24 25  2  0  0  0  0
 24 26  1  0  0  0  0
 26 27  1  0  0  0  0
 26 28  1  0  0  0  0
 28 29  1  0  0  0  0
 28 30  1  0  0  0  0
 28 31  1  0  0  0  0
M  END
$$$$

  -OEChem-03222214053D

 31 30  0     1  0  0  0  0  0999 V2000
   -2.9277   -3.8560    1.5150 H   0  0  0  0  0  0  0  0  0  0  0  0
   -2.9546   -2.8409    1.1091 C   0  0  0  0  0  0  0  0  0  0  0  0
   -3.5436   -2.2093    1.7785 H   0  0  0  0  0  0  0  0  0  0  0  0
   -3.4336   -2.8665    0.1274 H   0  0  0  0  0  0  0  0  0  0  0  0
   -1.5464   -2.2906    0.9839 C   0  0  0  0  0  0  0  0  0  0  0  0
   -0.5915   -2.9753    1.3159 O   0  0  0  0  0  0  0  0  0  0  0  0
   -1.3516   -1.0124    0.5056 N   0  0  0  0  0  0  0  0  0  0  0  0
   -2.1779   -0.4407    0.3365 H   0  0  0  0  0  0  0  0  0  0  0  0
   -0.0498   -0.3310    0.4393 C   0  0  1  0  0  0  0  0  0  0  0  0
    0.6613   -0.8322    1.1039 H   0  0  0  0  0  0  0  0  0  0  0  0
    0.5081   -0.4143   -1.0080 C   0  0  1  0  0  0  0  0  0  0  0  0
    0.6266   -1.4797   -1.2357 H   0  0  0  0  0  0  0  0  0  0  0  0
   -0.4595    0.1646   -2.0583 C   0  0  0  0  0  0  0  0  0  0  0  0
   -0.6355    1.2307   -1.8857 H   0  0  0  0  0  0  0  0  0  0  0  0
   -0.0396    0.0439   -3.0618 H   0  0  0  0  0  0  0  0  0  0  0  0
   -1.4216   -0.3549   -2.0338 H   0  0  0  0  0  0  0  0  0  0  0  0
    1.8856    0.2847   -1.1462 C   0  0  0  0  0  0  0  0  0  0  0  0
    1.8288    1.1152   -1.8580 H   0  0  0  0  0  0  0  0  0  0  0  0
    2.2092    0.7049   -0.1907 H   0  0  0  0  0  0  0  0  0  0  0  0
    2.9593   -0.7009   -1.6091 C   0  0  0  0  0  0  0  0  0  0  0  0
    2.6972   -1.1223   -2.5848 H   0  0  0  0  0  0  0  0  0  0  0  0
    3.9235   -0.1915   -1.6993 H   0  0  0  0  0  0  0  0  0  0  0  0
    3.0644   -1.5190   -0.8894 H   0  0  0  0  0  0  0  0  0  0  0  0
   -0.2096    1.1152    0.9627 C   0  0  0  0  0  0  0  0  0  0  0  0
   -1.2166    1.7617    0.6931 O   0  0  0  0  0  0  0  0  0  0  0  0
    0.7138    1.6522    1.8415 N   0  0  0  0  0  0  0  0  0  0  0  0
    1.4994    1.0681    2.1133 H   0  0  0  0  0  0  0  0  0  0  0  0
    0.5686    2.9682    2.4515 C   0  0  0  0  0  0  0  0  0  0  0  0
   -0.3562    3.0200    3.0359 H   0  0  0  0  0  0  0  0  0  0  0  0
    1.4112    3.1707    3.1197 H   0  0  0  0  0  0  0  0  0  0  0  0
    0.5431    3.7464    1.6815 H   0  0  0  0  0  0  0  0  0  0  0  0
  1  2  1  0  0  0  0
  2  3  1  0  0  0  0
  2  4  1  0  0  0  0
  2  5  1  0  0  0  0
  5  6  2  0  0  0  0
  5  7  1  0  0  0  0
  7  8  1  0  0  0  0
  7  9  1  0  0  0  0
  9 10  1  0  0  0  0
  9 11  1  0  0  0  0
  9 24  1  0  0  0  0
 11 12  1  0  0  0  0
 11 13  1  0  0  0  0
 11 17  1  0  0  0  0
 13 14  1  0  0  0  0
 13 15  1  0  0  0  0
 13 16  1  0  0  0  0
 17 18  1  0  0  0  0
 17 19  1  0  0  0  0
 17 20  1  0  0  0  0
 20 21  1  0  0  0  0
 20 22  1  0  0  0  0
 20 23  1  0  0  0  0
 24 25  2  0  0  0  0
 24 26  1  0  0  0  0
 26 27  1  0  0  0  0
 26 28  1  0  0  0  0
 28 29  1  0  0  0  0
 28 30  1  0  0  0  0
 28 31  1  0  0  0  0
M  END
$$$$

  -OEChem-03222214053D

 31 30  0     1  0  0  0  0  0999 V2000
   -2.9384   -3.8546    1.5187 H   0  0  0  0  0  0  0  0  0  0  0  0
   -2.9632   -2.8406    1.1101 C   0  0  0  0  0  0  0  0  0  0  0  0
   -3.5500   -2.2059    1.7786 H   0  0  0  0  0  0  0  0  0  0  0  0
   -3.4437   -2.8676    0.1292 H   0  0  0  0  0  0  0  0  0  0  0  0
   -1.5541   -2.2939    0.9809 C   0  0  0  0  0  0  0  0  0  0  0  0
   -0.5993   -2.9824    1.3055 O   0  0  0  0  0  0  0  0  0  0  0  0
   -1.3586   -1.0156    0.5031 N   0  0  0  0  0  0  0  0  0  0  0  0
   -2.1848   -0.4420    0.3403 H   0  0  0  0  0  0  0  0  0  0  0  0
   -0.0569   -0.3348    0.4357 C   0  0  1  0  0  0  0  0  0  0  0  0
    0.6524   -0.8394    1.0997 H   0  0  0  0  0  0  0  0  0  0  0  0
    0.5015   -0.4126   -1.0095 C   0  0  1  0  0  0  0  0  0  0  0  0
    0.6327   -1.4786   -1.2275 H   0  0  0  0  0  0  0  0  0  0  0  0
   -0.4604    0.1566   -2.0691 C   0  0  0  0  0  0  0  0  0  0  0  0
   -0.6514    1.2202   -1.8970 H   0  0  0  0  0  0  0  0  0  0  0  0
   -0.0286    0.0430   -3.0682 H   0  0  0  0  0  0  0  0  0  0  0  0
   -1.4165   -0.3743   -2.0536 H   0  0  0  0  0  0  0  0  0  0  0  0
    1.8752    0.2897   -1.1313 C   0  0  0  0  0  0  0  0  0  0  0  0
    1.7650    1.2745   -1.5980 H   0  0  0  0  0  0  0  0  0  0  0  0
    2.3100    0.4471   -0.1399 H   0  0  0  0  0  0  0  0  0  0  0  0
    2.8641   -0.5595   -1.9318 C   0  0  0  0  0  0  0  0  0  0  0  0
    2.4819   -0.7431   -2.9408 H   0  0  0  0  0  0  0  0  0  0  0  0
    3.8243   -0.0414   -2.0136 H   0  0  0  0  0  0  0  0  0  0  0  0
    3.0309   -1.5224   -1.4384 H   0  0  0  0  0  0  0  0  0  0  0  0
   -0.2037    1.1126    0.9574 C   0  0  0  0  0  0  0  0  0  0  0  0
   -1.2082    1.7643    0.6914 O   0  0  0  0  0  0  0  0  0  0  0  0
    0.7268    1.6441    1.8320 N   0  0  0  0  0  0  0  0  0  0  0  0
    1.5095    1.0553    2.1016 H   0  0  0  0  0  0  0  0  0  0  0  0
    0.5902    2.9604    2.4435 C   0  0  0  0  0  0  0  0  0  0  0  0
   -0.3343    3.0183    3.0277 H   0  0  0  0  0  0  0  0  0  0  0  0
    1.4339    3.1564    3.1123 H   0  0  0  0  0  0  0  0  0  0  0  0
    0.5704    3.7394    1.6742 H   0  0  0  0  0  0  0  0  0  0  0  0
  1  2  1  0  0  0  0
  2  3  1  0  0  0  0
  2  4  1  0  0  0  0
  2  5  1  0  0  0  0
  5  6  2  0  0  0  0
  5  7  1  0  0  0  0
  7  8  1  0  0  0  0
  7  9  1  0  0  0  0
  9 10  1  0  0  0  0
  9 11  1  0  0  0  0
  9 24  1  0  0  0  0
 11 12  1  0  0  0  0
 11 13  1  0  0  0  0
 11 17  1  0  0  0  0
 13 14  1  0  0  0  0
 13 15  1  0  0  0  0
 13 16  1  0  0  0  0
 17 18  1  0  0  0  0
 17 19  1  0  0  0  0
 17 20  1  0  0  0  0
 20 21  1  0  0  0  0
 20 22  1  0  0  0  0
 20 23  1  0  0  0  0
 24 25  2  0  0  0  0
 24 26  1  0  0  0  0
 26 27  1  0  0  0  0
 26 28  1  0  0  0  0
 28 29  1  0  0  0  0
 28 30  1  0  0  0  0
 28 31  1  0  0  0  0
M  END
$$$$

  -OEChem-03222214053D

 31 30  0     1  0  0  0  0  0999 V2000
   -2.9442   -3.8623    1.5274 H   0  0  0  0  0  0  0  0  0  0  0  0
   -2.9716   -2.8495    1.1157 C   0  0  0  0  0  0  0  0  0  0  0  0
   -3.5551   -2.2130    1.7854 H   0  0  0  0  0  0  0  0  0  0  0  0
   -3.4573   -2.8799    0.1373 H   0  0  0  0  0  0  0  0  0  0  0  0
   -1.5634   -2.3023    0.9774 C   0  0  0  0  0  0  0  0  0  0  0  0
   -0.6065   -2.9913    1.2948 O   0  0  0  0  0  0  0  0  0  0  0  0
   -1.3711   -1.0230    0.5009 N   0  0  0  0  0  0  0  0  0  0  0  0
   -2.1986   -0.4501    0.3433 H   0  0  0  0  0  0  0  0  0  0  0  0
   -0.0702   -0.3411    0.4272 C   0  0  1  0  0  0  0  0  0  0  0  0
    0.6385   -0.8475    1.0906 H   0  0  0  0  0  0  0  0  0  0  0  0
    0.4911   -0.4184   -1.0165 C   0  0  1  0  0  0  0  0  0  0  0  0
    0.6335   -1.4819   -1.2383 H   0  0  0  0  0  0  0  0  0  0  0  0
   -0.4731    0.1574   -2.0723 C   0  0  0  0  0  0  0  0  0  0  0  0
   -0.6506    1.2238   -1.9027 H   0  0  0  0  0  0  0  0  0  0  0  0
   -0.0565    0.0360   -3.0762 H   0  0  0  0  0  0  0  0  0  0  0  0
   -1.4351   -0.3620   -2.0458 H   0  0  0  0  0  0  0  0  0  0  0  0
    1.8602    0.2913   -1.1147 C   0  0  0  0  0  0  0  0  0  0  0  0
    1.7220    1.3581   -1.3217 H   0  0  0  0  0  0  0  0  0  0  0  0
    2.3894    0.2066   -0.1604 H   0  0  0  0  0  0  0  0  0  0  0  0
    2.7506   -0.3372   -2.1892 C   0  0  0  0  0  0  0  0  0  0  0  0
    2.2869   -0.2536   -3.1763 H   0  0  0  0  0  0  0  0  0  0  0  0
    3.7181    0.1730   -2.2188 H   0  0  0  0  0  0  0  0  0  0  0  0
    2.9249   -1.3958   -1.9718 H   0  0  0  0  0  0  0  0  0  0  0  0
   -0.2053    1.1063    0.9504 C   0  0  0  0  0  0  0  0  0  0  0  0
   -1.2080    1.7638    0.6929 O   0  0  0  0  0  0  0  0  0  0  0  0
    0.7358    1.6311    1.8177 N   0  0  0  0  0  0  0  0  0  0  0  0
    1.5208    1.0399    2.0750 H   0  0  0  0  0  0  0  0  0  0  0  0
    0.6210    2.9537    2.4202 C   0  0  0  0  0  0  0  0  0  0  0  0
   -0.2976    3.0274    3.0119 H   0  0  0  0  0  0  0  0  0  0  0  0
    1.4729    3.1439    3.0801 H   0  0  0  0  0  0  0  0  0  0  0  0
    0.6043    3.7274    1.6454 H   0  0  0  0  0  0  0  0  0  0  0  0
  1  2  1  0  0  0  0
  2  3  1  0  0  0  0
  2  4  1  0  0  0  0
  2  5  1  0  0  0  0
  5  6  2  0  0  0  0
  5  7  1  0  0  0  0
  7  8  1  0  0  0  0
  7  9  1  0  0  0  0
  9 10  1  0  0  0  0
  9 11  1  0  0  0  0
  9 24  1  0  0  0  0
 11 12  1  0  0  0  0
 11 13  1  0  0  0  0
 11 17  1  0  0  0  0
 13 14  1  0  0  0  0
 13 15  1  0  0  0  0
 13 16  1  0  0  0  0
 17 18  1  0  0  0  0
 17 19  1  0  0  0  0
 17 20  1  0  0  0  0
 20 21  1  0  0  0  0
 20 22  1  0  0  0  0
 20 23  1  0  0  0  0
 24 25  2  0  0  0  0
 24 26  1  0  0  0  0
 26 27  1  0  0  0  0
 26 28  1  0  0  0  0
 28 29  1  0  0  0  0
 28 30  1  0  0  0  0
 28 31  1  0  0  0  0
M  END
$$$$

  -OEChem-03222214053D

 31 30  0     1  0  0  0  0  0999 V2000
   -2.9429   -3.8656    1.5400 H   0  0  0  0  0  0  0  0  0  0  0  0
   -2.9740   -2.8532    1.1276 C   0  0  0  0  0  0  0  0  0  0  0  0
   -3.5505   -2.2158    1.8022 H   0  0  0  0  0  0  0  0  0  0  0  0
   -3.4694   -2.8845    0.1541 H   0  0  0  0  0  0  0  0  0  0  0  0
   -1.5668   -2.3071    0.9753 C   0  0  0  0  0  0  0  0  0  0  0  0
   -0.6077   -2.9974    1.2827 O   0  0  0  0  0  0  0  0  0  0  0  0
   -1.3776   -1.0270    0.4992 N   0  0  0  0  0  0  0  0  0  0  0  0
   -2.2059   -0.4527    0.3512 H   0  0  0  0  0  0  0  0  0  0  0  0
   -0.0766   -0.3454    0.4180 C   0  0  1  0  0  0  0  0  0  0  0  0
    0.6333   -0.8512    1.0802 H   0  0  0  0  0  0  0  0  0  0  0  0
    0.4847   -0.4261   -1.0270 C   0  0  1  0  0  0  0  0  0  0  0  0
    0.6320   -1.4874   -1.2561 H   0  0  0  0  0  0  0  0  0  0  0  0
   -0.4910    0.1547   -2.0718 C   0  0  0  0  0  0  0  0  0  0  0  0
   -0.6167    1.2328   -1.9321 H   0  0  0  0  0  0  0  0  0  0  0  0
   -0.1200   -0.0199   -3.0851 H   0  0  0  0  0  0  0  0  0  0  0  0
   -1.4732   -0.3201   -1.9978 H   0  0  0  0  0  0  0  0  0  0  0  0
    1.8530    0.2876   -1.1134 C   0  0  0  0  0  0  0  0  0  0  0  0
    1.7175    1.3731   -1.0631 H   0  0  0  0  0  0  0  0  0  0  0  0
    2.4671   -0.0112   -0.2576 H   0  0  0  0  0  0  0  0  0  0  0  0
    2.6241   -0.0612   -2.3896 C   0  0  0  0  0  0  0  0  0  0  0  0
    2.1117    0.3204   -3.2771 H   0  0  0  0  0  0  0  0  0  0  0  0
    3.6217    0.3871   -2.3548 H   0  0  0  0  0  0  0  0  0  0  0  0
    2.7355   -1.1457   -2.4857 H   0  0  0  0  0  0  0  0  0  0  0  0
   -0.2096    1.1010    0.9444 C   0  0  0  0  0  0  0  0  0  0  0  0
   -1.2117    1.7605    0.6894 O   0  0  0  0  0  0  0  0  0  0  0  0
    0.7370    1.6239    1.8068 N   0  0  0  0  0  0  0  0  0  0  0  0
    1.5226    1.0313    2.0593 H   0  0  0  0  0  0  0  0  0  0  0  0
    0.6292    2.9473    2.4084 C   0  0  0  0  0  0  0  0  0  0  0  0
   -0.2822    3.0222    3.0107 H   0  0  0  0  0  0  0  0  0  0  0  0
    1.4888    3.1388    3.0577 H   0  0  0  0  0  0  0  0  0  0  0  0
    0.6035    3.7197    1.6325 H   0  0  0  0  0  0  0  0  0  0  0  0
  1  2  1  0  0  0  0
  2  3  1  0  0  0  0
  2  4  1  0  0  0  0
  2  5  1  0  0  0  0
  5  6  2  0  0  0  0
  5  7  1  0  0  0  0
  7  8  1  0  0  0  0
  7  9  1  0  0  0  0
  9 10  1  0  0  0  0
  9 11  1  0  0  0  0
  9 24  1  0  0  0  0
 11 12  1  0  0  0  0
 11 13  1  0  0  0  0
 11 17  1  0  0  0  0
 13 14  1  0  0  0  0
 13 15  1  0  0  0  0
 13 16  1  0  0  0  0
 17 18  1  0  0  0  0
 17 19  1  0  0  0  0
 17 20  1  0  0  0  0
 20 21  1  0  0  0  0
 20 22  1  0  0  0  0
 20 23  1  0  0  0  0
 24 25  2  0  0  0  0
 24 26  1  0  0  0  0
 26 27  1  0  0  0  0
 26 28  1  0  0  0  0
 28 29  1  0  0  0  0
 28 30  1  0  0  0  0
 28 31  1  0  0  0  0
M  END
$$$$

  -OEChem-03222214053D

 31 30  0     1  0  0  0  0  0999 V2000
   -2.9397   -3.8624    1.5058 H   0  0  0  0  0  0  0  0  0  0  0  0
   -2.9697   -2.8464    1.1024 C   0  0  0  0  0  0  0  0  0  0  0  0
   -3.5476   -2.2147    1.7813 H   0  0  0  0  0  0  0  0  0  0  0  0
   -3.4634   -2.8687    0.1279 H   0  0  0  0  0  0  0  0  0  0  0  0
   -1.5624   -2.2984    0.9569 C   0  0  0  0  0  0  0  0  0  0  0  0
   -0.6030   -2.9887    1.2637 O   0  0  0  0  0  0  0  0  0  0  0  0
   -1.3749   -1.0153    0.4880 N   0  0  0  0  0  0  0  0  0  0  0  0
   -2.2050   -0.4437    0.3395 H   0  0  0  0  0  0  0  0  0  0  0  0
   -0.0774   -0.3269    0.4153 C   0  0  1  0  0  0  0  0  0  0  0  0
    0.6252   -0.8379    1.0815 H   0  0  0  0  0  0  0  0  0  0  0  0
    0.4817   -0.4224   -1.0279 C   0  0  1  0  0  0  0  0  0  0  0  0
    0.4006   -1.4682   -1.3443 H   0  0  0  0  0  0  0  0  0  0  0  0
   -0.3364    0.4286   -2.0192 C   0  0  0  0  0  0  0  0  0  0  0  0
   -0.1465    1.4958   -1.8674 H   0  0  0  0  0  0  0  0  0  0  0  0
   -0.0763    0.1741   -3.0505 H   0  0  0  0  0  0  0  0  0  0  0  0
   -1.4078    0.2468   -1.8940 H   0  0  0  0  0  0  0  0  0  0  0  0
    1.9809   -0.0471   -1.0410 C   0  0  0  0  0  0  0  0  0  0  0  0
    2.1169    0.9671   -0.6521 H   0  0  0  0  0  0  0  0  0  0  0  0
    2.5222   -0.7332   -0.3810 H   0  0  0  0  0  0  0  0  0  0  0  0
    2.6120   -0.1180   -2.4346 C   0  0  0  0  0  0  0  0  0  0  0  0
    2.2057    0.6580   -3.0898 H   0  0  0  0  0  0  0  0  0  0  0  0
    3.6932    0.0328   -2.3613 H   0  0  0  0  0  0  0  0  0  0  0  0
    2.4290   -1.0968   -2.8888 H   0  0  0  0  0  0  0  0  0  0  0  0
   -0.2007    1.1189    0.9445 C   0  0  0  0  0  0  0  0  0  0  0  0
   -1.2083    1.7774    0.7093 O   0  0  0  0  0  0  0  0  0  0  0  0
    0.7497    1.6331    1.8074 N   0  0  0  0  0  0  0  0  0  0  0  0
    1.5354    1.0373    2.0515 H   0  0  0  0  0  0  0  0  0  0  0  0
    0.6404    2.9473    2.4285 C   0  0  0  0  0  0  0  0  0  0  0  0
   -0.2638    3.0075    3.0435 H   0  0  0  0  0  0  0  0  0  0  0  0
    1.5071    3.1355    3.0692 H   0  0  0  0  0  0  0  0  0  0  0  0
    0.5992    3.7300    1.6637 H   0  0  0  0  0  0  0  0  0  0  0  0
  1  2  1  0  0  0  0
  2  3  1  0  0  0  0
  2  4  1  0  0  0  0
  2  5  1  0  0  0  0
  5  6  2  0  0  0  0
  5  7  1  0  0  0  0
  7  8  1  0  0  0  0
  7  9  1  0  0  0  0
  9 10  1  0  0  0  0
  9 11  1  0  0  0  0
  9 24  1  0  0  0  0
 11 12  1  0  0  0  0
 11 13  1  0  0  0  0
 11 17  1  0  0  0  0
 13 14  1  0  0  0  0
 13 15  1  0  0  0  0
 13 16  1  0  0  0  0
 17 18  1  0  0  0  0
 17 19  1  0  0  0  0
 17 20  1  0  0  0  0
 20 21  1  0  0  0  0
 20 22  1  0  0  0  0
 20 23  1  0  0  0  0
 24 25  2  0  0  0  0
 24 26  1  0  0  0  0
 26 27  1  0  0  0  0
 26 28  1  0  0  0  0
 28 29  1  0  0  0  0
 28 30  1  0  0  0  0
 28 31  1  0  0  0  0
M  END
$$$$

  -OEChem-03222214053D

 31 30  0     1  0  0  0  0  0999 V2000
   -2.9374   -3.8524    1.5079 H   0  0  0  0  0  0  0  0  0  0  0  0
   -2.9687   -2.8349    1.1084 C   0  0  0  0  0  0  0  0  0  0  0  0
   -3.5390   -2.2043    1.7948 H   0  0  0  0  0  0  0  0  0  0  0  0
   -3.4708   -2.8524    0.1382 H   0  0  0  0  0  0  0  0  0  0  0  0
   -1.5612   -2.2907    0.9527 C   0  0  0  0  0  0  0  0  0  0  0  0
   -0.6016   -2.9838    1.2526 O   0  0  0  0  0  0  0  0  0  0  0  0
   -1.3729   -1.0072    0.4858 N   0  0  0  0  0  0  0  0  0  0  0  0
   -2.2020   -0.4319    0.3444 H   0  0  0  0  0  0  0  0  0  0  0  0
   -0.0734   -0.3223    0.4101 C   0  0  1  0  0  0  0  0  0  0  0  0
    0.6318   -0.8338    1.0735 H   0  0  0  0  0  0  0  0  0  0  0  0
    0.4811   -0.4242   -1.0362 C   0  0  1  0  0  0  0  0  0  0  0  0
    0.3981   -1.4687   -1.3562 H   0  0  0  0  0  0  0  0  0  0  0  0
   -0.3571    0.4215   -2.0176 C   0  0  0  0  0  0  0  0  0  0  0  0
   -0.1845    1.4905   -1.8584 H   0  0  0  0  0  0  0  0  0  0  0  0
   -0.0993    0.1787   -3.0524 H   0  0  0  0  0  0  0  0  0  0  0  0
   -1.4249    0.2214   -1.8894 H   0  0  0  0  0  0  0  0  0  0  0  0
    1.9854   -0.0540   -1.0583 C   0  0  0  0  0  0  0  0  0  0  0  0
    2.1589    0.8402   -0.4527 H   0  0  0  0  0  0  0  0  0  0  0  0
    2.5523   -0.8740   -0.6052 H   0  0  0  0  0  0  0  0  0  0  0  0
    2.5490    0.2271   -2.4553 C   0  0  0  0  0  0  0  0  0  0  0  0
    2.1169    1.1387   -2.8790 H   0  0  0  0  0  0  0  0  0  0  0  0
    3.6334    0.3614   -2.3988 H   0  0  0  0  0  0  0  0  0  0  0  0
    2.3399   -0.6113   -3.1271 H   0  0  0  0  0  0  0  0  0  0  0  0
   -0.2011    1.1220    0.9450 C   0  0  0  0  0  0  0  0  0  0  0  0
   -1.2129    1.7767    0.7163 O   0  0  0  0  0  0  0  0  0  0  0  0
    0.7482    1.6370    1.8091 N   0  0  0  0  0  0  0  0  0  0  0  0
    1.5362    1.0432    2.0509 H   0  0  0  0  0  0  0  0  0  0  0  0
    0.6262    2.9427    2.4454 C   0  0  0  0  0  0  0  0  0  0  0  0
   -0.2713    2.9814    3.0717 H   0  0  0  0  0  0  0  0  0  0  0  0
    1.4976    3.1391    3.0773 H   0  0  0  0  0  0  0  0  0  0  0  0
    0.5629    3.7323    1.6892 H   0  0  0  0  0  0  0  0  0  0  0  0
  1  2  1  0  0  0  0
  2  3  1  0  0  0  0
  2  4  1  0  0  0  0
  2  5  1  0  0  0  0
  5  6  2  0  0  0  0
  5  7  1  0  0  0  0
  7  8  1  0  0  0  0
  7  9  1  0  0  0  0
  9 10  1  0  0  0  0
  9 11  1  0  0  0  0
  9 24  1  0  0  0  0
 11 12  1  0  0  0  0
 11 13  1  0  0  0  0
 11 17  1  0  0  0  0
 13 14  1  0  0  0  0
 13 15  1  0  0  0  0
 13 16  1  0  0  0  0
 17 18  1  0  0  0  0
 17 19  1  0  0  0  0
 17 20  1  0  0  0  0
 20 21  1  0  0  0  0
 20 22  1  0  0  0  0
 20 23  1  0  0  0  0
 24 25  2  0  0  0  0
 24 26  1  0  0  0  0
 26 27  1  0  0  0  0
 26 28  1  0  0  0  0
 28 29  1  0  0  0  0
 28 30  1  0  0  0  0
 28 31  1  0  0  0  0
M  END
$$$$

  -OEChem-03222214053D

 31 30  0     1  0  0  0  0  0999 V2000
   -2.9416   -3.8460    1.5138 H   0  0  0  0  0  0  0  0  0  0  0  0
   -2.9704   -2.8302    1.1101 C   0  0  0  0  0  0  0  0  0  0  0  0
   -3.5408   -2.1959    1.7930 H   0  0  0  0  0  0  0  0  0  0  0  0
   -3.4704   -2.8507    0.1388 H   0  0  0  0  0  0  0  0  0  0  0  0
   -1.5619   -2.2889    0.9546 C   0  0  0  0  0  0  0  0  0  0  0  0
   -0.6030   -2.9852    1.2491 O   0  0  0  0  0  0  0  0  0  0  0  0
   -1.3723   -1.0051    0.4891 N   0  0  0  0  0  0  0  0  0  0  0  0
   -2.2007   -0.4277    0.3530 H   0  0  0  0  0  0  0  0  0  0  0  0
   -0.0717   -0.3228    0.4105 C   0  0  1  0  0  0  0  0  0  0  0  0
    0.6364   -0.8366    1.0690 H   0  0  0  0  0  0  0  0  0  0  0  0
    0.4765   -0.4194   -1.0398 C   0  0  1  0  0  0  0  0  0  0  0  0
    0.3958   -1.4642   -1.3597 H   0  0  0  0  0  0  0  0  0  0  0  0
   -0.3862    0.4103   -2.0155 C   0  0  0  0  0  0  0  0  0  0  0  0
   -0.2595    1.4830   -1.8399 H   0  0  0  0  0  0  0  0  0  0  0  0
   -0.1124    0.1925   -3.0519 H   0  0  0  0  0  0  0  0  0  0  0  0
   -1.4461    0.1671   -1.8985 H   0  0  0  0  0  0  0  0  0  0  0  0
    1.9865   -0.0525   -1.0720 C   0  0  0  0  0  0  0  0  0  0  0  0
    2.2169    0.6538   -0.2701 H   0  0  0  0  0  0  0  0  0  0  0  0
    2.5641   -0.9619   -0.8751 H   0  0  0  0  0  0  0  0  0  0  0  0
    2.4883    0.5792   -2.3754 C   0  0  0  0  0  0  0  0  0  0  0  0
    2.0244    1.5554   -2.5447 H   0  0  0  0  0  0  0  0  0  0  0  0
    3.5714    0.7246   -2.3236 H   0  0  0  0  0  0  0  0  0  0  0  0
    2.2702   -0.0729   -3.2267 H   0  0  0  0  0  0  0  0  0  0  0  0
   -0.2006    1.1206    0.9493 C   0  0  0  0  0  0  0  0  0  0  0  0
   -1.2144    1.7737    0.7250 O   0  0  0  0  0  0  0  0  0  0  0  0
    0.7484    1.6368    1.8130 N   0  0  0  0  0  0  0  0  0  0  0  0
    1.5352    1.0425    2.0572 H   0  0  0  0  0  0  0  0  0  0  0  0
    0.6274    2.9437    2.4473 C   0  0  0  0  0  0  0  0  0  0  0  0
   -0.2797    2.9908    3.0589 H   0  0  0  0  0  0  0  0  0  0  0  0
    1.4900    3.1319    3.0936 H   0  0  0  0  0  0  0  0  0  0  0  0
    0.5837    3.7337    1.6902 H   0  0  0  0  0  0  0  0  0  0  0  0
  1  2  1  0  0  0  0
  2  3  1  0  0  0  0
  2  4  1  0  0  0  0
  2  5  1  0  0  0  0
  5  6  2  0  0  0  0
  5  7  1  0  0  0  0
  7  8  1  0  0  0  0
  7  9  1  0  0  0  0
  9 10  1  0  0  0  0
  9 11  1  0  0  0  0
  9 24  1  0  0  0  0
 11 12  1  0  0  0  0
 11 13  1  0  0  0  0
 11 17  1  0  0  0  0
 13 14  1  0  0  0  0
 13 15  1  0  0  0  0
 13 16  1  0  0  0  0
 17 18  1  0  0  0  0
 17 19  1  0  0  0  0
 17 20  1  0  0  0  0
 20 21  1  0  0  0  0
 20 22  1  0  0  0  0
 20 23  1  0  0  0  0
 24 25  2  0  0  0  0
 24 26  1  0  0  0  0
 26 27  1  0  0  0  0
 26 28  1  0  0  0  0
 28 29  1  0  0  0  0
 28 30  1  0  0  0  0
 28 31  1  0  0  0  0
M  END
$$$$

  -OEChem-03222214053D

 31 30  0     1  0  0  0  0  0999 V2000
   -2.9453   -3.8508    1.5096 H   0  0  0  0  0  0  0  0  0  0  0  0
   -2.9756   -2.8333    1.1096 C   0  0  0  0  0  0  0  0  0  0  0  0
   -3.5457   -2.2020    1.7956 H   0  0  0  0  0  0  0  0  0  0  0  0
   -3.4771   -2.8508    0.1390 H   0  0  0  0  0  0  0  0  0  0  0  0
   -1.5675   -2.2900    0.9546 C   0  0  0  0  0  0  0  0  0  0  0  0
   -0.6086   -2.9856    1.2509 O   0  0  0  0  0  0  0  0  0  0  0  0
   -1.3781   -1.0055    0.4903 N   0  0  0  0  0  0  0  0  0  0  0  0
   -2.2066   -0.4283    0.3542 H   0  0  0  0  0  0  0  0  0  0  0  0
   -0.0774   -0.3225    0.4134 C   0  0  1  0  0  0  0  0  0  0  0  0
    0.6288   -0.8395    1.0712 H   0  0  0  0  0  0  0  0  0  0  0  0
    0.4717   -0.4083   -1.0364 C   0  0  1  0  0  0  0  0  0  0  0  0
    0.4017   -1.4570   -1.3463 H   0  0  0  0  0  0  0  0  0  0  0  0
   -0.4078    0.3927   -2.0218 C   0  0  0  0  0  0  0  0  0  0  0  0
   -0.3376    1.4684   -1.8354 H   0  0  0  0  0  0  0  0  0  0  0  0
   -0.1035    0.1965   -3.0537 H   0  0  0  0  0  0  0  0  0  0  0  0
   -1.4575    0.0999   -1.9280 H   0  0  0  0  0  0  0  0  0  0  0  0
    1.9848   -0.0400   -1.0719 C   0  0  0  0  0  0  0  0  0  0  0  0
    2.2828    0.4189   -0.1253 H   0  0  0  0  0  0  0  0  0  0  0  0
    2.5571   -0.9691   -1.1639 H   0  0  0  0  0  0  0  0  0  0  0  0
    2.4280    0.9090   -2.1919 C   0  0  0  0  0  0  0  0  0  0  0  0
    1.9394    1.8832   -2.0958 H   0  0  0  0  0  0  0  0  0  0  0  0
    3.5095    1.0661   -2.1369 H   0  0  0  0  0  0  0  0  0  0  0  0
    2.1963    0.4861   -3.1741 H   0  0  0  0  0  0  0  0  0  0  0  0
   -0.2004    1.1211    0.9519 C   0  0  0  0  0  0  0  0  0  0  0  0
   -1.2116    1.7780    0.7272 O   0  0  0  0  0  0  0  0  0  0  0  0
    0.7509    1.6341    1.8148 N   0  0  0  0  0  0  0  0  0  0  0  0
    1.5405    1.0408    2.0520 H   0  0  0  0  0  0  0  0  0  0  0  0
    0.6400    2.9454    2.4416 C   0  0  0  0  0  0  0  0  0  0  0  0
   -0.2609    2.9991    3.0618 H   0  0  0  0  0  0  0  0  0  0  0  0
    1.5096    3.1352    3.0781 H   0  0  0  0  0  0  0  0  0  0  0  0
    0.5913    3.7306    1.6798 H   0  0  0  0  0  0  0  0  0  0  0  0
  1  2  1  0  0  0  0
  2  3  1  0  0  0  0
  2  4  1  0  0  0  0
  2  5  1  0  0  0  0
  5  6  2  0  0  0  0
  5  7  1  0  0  0  0
  7  8  1  0  0  0  0
  7  9  1  0  0  0  0
  9 10  1  0  0  0  0
  9 11  1  0  0  0  0
  9 24  1  0  0  0  0
 11 12  1  0  0  0  0
 11 13  1  0  0  0  0
 11 17  1  0  0  0  0
 13 14  1  0  0  0  0
 13 15  1  0  0  0  0
 13 16  1  0  0  0  0
 17 18  1  0  0  0  0
 17 19  1  0  0  0  0
 17 20  1  0  0  0  0
 20 21  1  0  0  0  0
 20 22  1  0  0  0  0
 20 23  1  0  0  0  0
 24 25  2  0  0  0  0
 24 26  1  0  0  0  0
 26 27  1  0  0  0  0
 26 28  1  0  0  0  0
 28 29  1  0  0  0  0
 28 30  1  0  0  0  0
 28 31  1  0  0  0  0
M  END
$$$$

  -OEChem-03222214053D

 31 30  0     1  0  0  0  0  0999 V2000
   -2.9514   -3.8560    1.5149 H   0  0  0  0  0  0  0  0  0  0  0  0
   -2.9823   -2.8406    1.1099 C   0  0  0  0  0  0  0  0  0  0  0  0
   -3.5564   -2.2076    1.7910 H   0  0  0  0  0  0  0  0  0  0  0  0
   -3.4807   -2.8640    0.1379 H   0  0  0  0  0  0  0  0  0  0  0  0
   -1.5748   -2.2947    0.9567 C   0  0  0  0  0  0  0  0  0  0  0  0
   -0.6152   -2.9895    1.2528 O   0  0  0  0  0  0  0  0  0  0  0  0
   -1.3867   -1.0095    0.4934 N   0  0  0  0  0  0  0  0  0  0  0  0
   -2.2164   -0.4358    0.3506 H   0  0  0  0  0  0  0  0  0  0  0  0
   -0.0875   -0.3234    0.4170 C   0  0  1  0  0  0  0  0  0  0  0  0
    0.6159   -0.8433    1.0753 H   0  0  0  0  0  0  0  0  0  0  0  0
    0.4680   -0.3951   -1.0293 C   0  0  1  0  0  0  0  0  0  0  0  0
    0.4140   -1.4489   -1.3252 H   0  0  0  0  0  0  0  0  0  0  0  0
   -0.4126    0.3737   -2.0371 C   0  0  0  0  0  0  0  0  0  0  0  0
   -0.3981    1.4506   -1.8453 H   0  0  0  0  0  0  0  0  0  0  0  0
   -0.0642    0.1962   -3.0589 H   0  0  0  0  0  0  0  0  0  0  0  0
   -1.4503    0.0327   -1.9774 H   0  0  0  0  0  0  0  0  0  0  0  0
    1.9793   -0.0203   -1.0571 C   0  0  0  0  0  0  0  0  0  0  0  0
    2.3461    0.1559   -0.0418 H   0  0  0  0  0  0  0  0  0  0  0  0
    2.5322   -0.8834   -1.4428 H   0  0  0  0  0  0  0  0  0  0  0  0
    2.3585    1.1921   -1.9161 C   0  0  0  0  0  0  0  0  0  0  0  0
    1.8448    2.0916   -1.5625 H   0  0  0  0  0  0  0  0  0  0  0  0
    3.4366    1.3685   -1.8523 H   0  0  0  0  0  0  0  0  0  0  0  0
    2.1056    1.0242   -2.9670 H   0  0  0  0  0  0  0  0  0  0  0  0
   -0.2008    1.1204    0.9535 C   0  0  0  0  0  0  0  0  0  0  0  0
   -1.2077    1.7839    0.7294 O   0  0  0  0  0  0  0  0  0  0  0  0
    0.7574    1.6267    1.8127 N   0  0  0  0  0  0  0  0  0  0  0  0
    1.5467    1.0300    2.0423 H   0  0  0  0  0  0  0  0  0  0  0  0
    0.6672    2.9459    2.4260 C   0  0  0  0  0  0  0  0  0  0  0  0
   -0.2390    3.0245    3.0357 H   0  0  0  0  0  0  0  0  0  0  0  0
    1.5334    3.1234    3.0706 H   0  0  0  0  0  0  0  0  0  0  0  0
    0.6434    3.7246    1.6565 H   0  0  0  0  0  0  0  0  0  0  0  0
  1  2  1  0  0  0  0
  2  3  1  0  0  0  0
  2  4  1  0  0  0  0
  2  5  1  0  0  0  0
  5  6  2  0  0  0  0
  5  7  1  0  0  0  0
  7  8  1  0  0  0  0
  7  9  1  0  0  0  0
  9 10  1  0  0  0  0
  9 11  1  0  0  0  0
  9 24  1  0  0  0  0
 11 12  1  0  0  0  0
 11 13  1  0  0  0  0
 11 17  1  0  0  0  0
 13 14  1  0  0  0  0
 13 15  1  0  0  0  0
 13 16  1  0  0  0  0
 17 18  1  0  0  0  0
 17 19  1  0  0  0  0
 17 20  1  0  0  0  0
 20 21  1  0  0  0  0
 20 22  1  0  0  0  0
 20 23  1  0  0  0  0
 24 25  2  0  0  0  0
 24 26  1  0  0  0  0
 26 27  1  0  0  0  0
 26 28  1  0  0  0  0
 28 29  1  0  0  0  0
 28 30  1  0  0  0  0
 28 31  1  0  0  0  0
M  END
$$$$

  -OEChem-03222214053D

 31 30  0     1  0  0  0  0  0999 V2000
   -2.9510   -3.8590    1.5040 H   0  0  0  0  0  0  0  0  0  0  0  0
   -2.9827   -2.8416    1.1041 C   0  0  0  0  0  0  0  0  0  0  0  0
   -3.5573   -2.2124    1.7882 H   0  0  0  0  0  0  0  0  0  0  0  0
   -3.4802   -2.8605    0.1315 H   0  0  0  0  0  0  0  0  0  0  0  0
   -1.5760   -2.2934    0.9552 C   0  0  0  0  0  0  0  0  0  0  0  0
   -0.6160   -2.9879    1.2501 O   0  0  0  0  0  0  0  0  0  0  0  0
   -1.3891   -1.0068    0.4954 N   0  0  0  0  0  0  0  0  0  0  0  0
   -2.2192   -0.4334    0.3547 H   0  0  0  0  0  0  0  0  0  0  0  0
   -0.0913   -0.3184    0.4237 C   0  0  1  0  0  0  0  0  0  0  0  0
    0.6079   -0.8389    1.0857 H   0  0  0  0  0  0  0  0  0  0  0  0
    0.4687   -0.3920   -1.0196 C   0  0  1  0  0  0  0  0  0  0  0  0
    0.4213   -1.4494   -1.3031 H   0  0  0  0  0  0  0  0  0  0  0  0
   -0.4002    0.3653   -2.0440 C   0  0  0  0  0  0  0  0  0  0  0  0
   -0.4266    1.4388   -1.8354 H   0  0  0  0  0  0  0  0  0  0  0  0
   -0.0065    0.2170   -3.0541 H   0  0  0  0  0  0  0  0  0  0  0  0
   -1.4279   -0.0093   -2.0259 H   0  0  0  0  0  0  0  0  0  0  0  0
    1.9761   -0.0160   -1.0516 C   0  0  0  0  0  0  0  0  0  0  0  0
    2.4091   -0.1046   -0.0506 H   0  0  0  0  0  0  0  0  0  0  0  0
    2.4927   -0.7470   -1.6826 H   0  0  0  0  0  0  0  0  0  0  0  0
    2.2989    1.3769   -1.6074 C   0  0  0  0  0  0  0  0  0  0  0  0
    1.7762    2.1514   -1.0378 H   0  0  0  0  0  0  0  0  0  0  0  0
    3.3744    1.5648   -1.5342 H   0  0  0  0  0  0  0  0  0  0  0  0
    2.0131    1.4571   -2.6604 H   0  0  0  0  0  0  0  0  0  0  0  0
   -0.2012    1.1241    0.9615 C   0  0  0  0  0  0  0  0  0  0  0  0
   -1.2062    1.7902    0.7367 O   0  0  0  0  0  0  0  0  0  0  0  0
    0.7581    1.6261    1.8219 N   0  0  0  0  0  0  0  0  0  0  0  0
    1.5525    1.0318    2.0402 H   0  0  0  0  0  0  0  0  0  0  0  0
    0.6754    2.9476    2.4313 C   0  0  0  0  0  0  0  0  0  0  0  0
   -0.2287    3.0320    3.0435 H   0  0  0  0  0  0  0  0  0  0  0  0
    1.5444    3.1233    3.0727 H   0  0  0  0  0  0  0  0  0  0  0  0
    0.6522    3.7240    1.6594 H   0  0  0  0  0  0  0  0  0  0  0  0
  1  2  1  0  0  0  0
  2  3  1  0  0  0  0
  2  4  1  0  0  0  0
  2  5  1  0  0  0  0
  5  6  2  0  0  0  0
  5  7  1  0  0  0  0
  7  8  1  0  0  0  0
  7  9  1  0  0  0  0
  9 10  1  0  0  0  0
  9 11  1  0  0  0  0
  9 24  1  0  0  0  0
 11 12  1  0  0  0  0
 11 13  1  0  0  0  0
 11 17  1  0  0  0  0
 13 14  1  0  0  0  0
 13 15  1  0  0  0  0
 13 16  1  0  0  0  0
 17 18  1  0  0  0  0
 17 19  1  0  0  0  0
 17 20  1  0  0  0  0
 20 21  1  0  0  0  0
 20 22  1  0  0  0  0
 20 23  1  0  0  0  0
 24 25  2  0  0  0  0
 24 26  1  0  0  0  0
 26 27  1  0  0  0  0
 26 28  1  0  0  0  0
 28 29  1  0  0  0  0
 28 30  1  0  0  0  0
 28 31  1  0  0  0  0
M  END
$$$$

  -OEChem-03222214053D

 31 30  0     1  0  0  0  0  0999 V2000
   -2.9419   -3.8526    1.4820 H   0  0  0  0  0  0  0  0  0  0  0  0
   -2.9726   -2.8318    1.0910 C   0  0  0  0  0  0  0  0  0  0  0  0
   -3.5557   -2.2101    1.7749 H   0  0  0  0  0  0  0  0  0  0  0  0
   -3.4606   -2.8433    0.1135 H   0  0  0  0  0  0  0  0  0  0  0  0
   -1.5657   -2.2793    0.9601 C   0  0  0  0  0  0  0  0  0  0  0  0
   -0.6068   -2.9723    1.2626 O   0  0  0  0  0  0  0  0  0  0  0  0
   -1.3770   -0.9910    0.5064 N   0  0  0  0  0  0  0  0  0  0  0  0
   -2.2064   -0.4180    0.3580 H   0  0  0  0  0  0  0  0  0  0  0  0
   -0.0785   -0.3025    0.4423 C   0  0  1  0  0  0  0  0  0  0  0  0
    0.6229   -0.8189    1.1054 H   0  0  0  0  0  0  0  0  0  0  0  0
    0.4750   -0.3978   -1.0053 C   0  0  1  0  0  0  0  0  0  0  0  0
    0.4136   -1.4572   -1.2790 H   0  0  0  0  0  0  0  0  0  0  0  0
   -0.3827    0.3682   -2.0306 C   0  0  0  0  0  0  0  0  0  0  0  0
   -0.4142    1.4389   -1.8089 H   0  0  0  0  0  0  0  0  0  0  0  0
    0.0268    0.2352   -3.0368 H   0  0  0  0  0  0  0  0  0  0  0  0
   -1.4093   -0.0100   -2.0305 H   0  0  0  0  0  0  0  0  0  0  0  0
    1.9799   -0.0350   -1.0872 C   0  0  0  0  0  0  0  0  0  0  0  0
    2.4825   -0.3575   -0.1699 H   0  0  0  0  0  0  0  0  0  0  0  0
    2.4222   -0.6073   -1.9094 H   0  0  0  0  0  0  0  0  0  0  0  0
    2.2976    1.4465   -1.3357 C   0  0  0  0  0  0  0  0  0  0  0  0
    1.8359    2.0865   -0.5810 H   0  0  0  0  0  0  0  0  0  0  0  0
    3.3799    1.6025   -1.2996 H   0  0  0  0  0  0  0  0  0  0  0  0
    1.9448    1.7603   -2.3226 H   0  0  0  0  0  0  0  0  0  0  0  0
   -0.2094    1.1347    0.9895 C   0  0  0  0  0  0  0  0  0  0  0  0
   -1.2172    1.7939    0.7566 O   0  0  0  0  0  0  0  0  0  0  0  0
    0.7371    1.6411    1.8619 N   0  0  0  0  0  0  0  0  0  0  0  0
    1.5335    1.0517    2.0865 H   0  0  0  0  0  0  0  0  0  0  0  0
    0.6287    2.9524    2.4893 C   0  0  0  0  0  0  0  0  0  0  0  0
   -0.2877    3.0179    3.0852 H   0  0  0  0  0  0  0  0  0  0  0  0
    1.4831    3.1273    3.1502 H   0  0  0  0  0  0  0  0  0  0  0  0
    0.6123    3.7402    1.7289 H   0  0  0  0  0  0  0  0  0  0  0  0
  1  2  1  0  0  0  0
  2  3  1  0  0  0  0
  2  4  1  0  0  0  0
  2  5  1  0  0  0  0
  5  6  2  0  0  0  0
  5  7  1  0  0  0  0
  7  8  1  0  0  0  0
  7  9  1  0  0  0  0
  9 10  1  0  0  0  0
  9 11  1  0  0  0  0
  9 24  1  0  0  0  0
 11 12  1  0  0  0  0
 11 13  1  0  0  0  0
 11 17  1  0  0  0  0
 13 14  1  0  0  0  0
 13 15  1  0  0  0  0
 13 16  1  0  0  0  0
 17 18  1  0  0  0  0
 17 19  1  0  0  0  0
 17 20  1  0  0  0  0
 20 21  1  0  0  0  0
 20 22  1  0  0  0  0
 20 23  1  0  0  0  0
 24 25  2  0  0  0  0
 24 26  1  0  0  0  0
 26 27  1  0  0  0  0
 26 28  1  0  0  0  0
 28 29  1  0  0  0  0
 28 30  1  0  0  0  0
 28 31  1  0  0  0  0
M  END
$$$$

  -OEChem-03222214053D

 31 30  0     1  0  0  0  0  0999 V2000
   -2.9376   -3.8384    1.4584 H   0  0  0  0  0  0  0  0  0  0  0  0
   -2.9623   -2.8156    1.0719 C   0  0  0  0  0  0  0  0  0  0  0  0
   -3.5535   -2.1966    1.7511 H   0  0  0  0  0  0  0  0  0  0  0  0
   -3.4382   -2.8222    0.0883 H   0  0  0  0  0  0  0  0  0  0  0  0
   -1.5534   -2.2638    0.9610 C   0  0  0  0  0  0  0  0  0  0  0  0
   -0.5988   -2.9576    1.2748 O   0  0  0  0  0  0  0  0  0  0  0  0
   -1.3566   -0.9749    0.5131 N   0  0  0  0  0  0  0  0  0  0  0  0
   -2.1823   -0.3974    0.3608 H   0  0  0  0  0  0  0  0  0  0  0  0
   -0.0554   -0.2894    0.4713 C   0  0  1  0  0  0  0  0  0  0  0  0
    0.6479   -0.7997    1.1369 H   0  0  0  0  0  0  0  0  0  0  0  0
    0.4883   -0.4060   -0.9830 C   0  0  1  0  0  0  0  0  0  0  0  0
    0.4002   -1.4642   -1.2540 H   0  0  0  0  0  0  0  0  0  0  0  0
   -0.3646    0.3802   -1.9969 C   0  0  0  0  0  0  0  0  0  0  0  0
   -0.3786    1.4492   -1.7663 H   0  0  0  0  0  0  0  0  0  0  0  0
    0.0359    0.2508   -3.0070 H   0  0  0  0  0  0  0  0  0  0  0  0
   -1.3968    0.0176   -1.9938 H   0  0  0  0  0  0  0  0  0  0  0  0
    1.9924   -0.0705   -1.1404 C   0  0  0  0  0  0  0  0  0  0  0  0
    2.5531   -0.6099   -0.3705 H   0  0  0  0  0  0  0  0  0  0  0  0
    2.3229   -0.4615   -2.1083 H   0  0  0  0  0  0  0  0  0  0  0  0
    2.3872    1.4113   -1.0821 C   0  0  0  0  0  0  0  0  0  0  0  0
    2.1713    1.8510   -0.1101 H   0  0  0  0  0  0  0  0  0  0  0  0
    3.4626    1.5079   -1.2593 H   0  0  0  0  0  0  0  0  0  0  0  0
    1.8675    1.9875   -1.8526 H   0  0  0  0  0  0  0  0  0  0  0  0
   -0.2308    1.1417    1.0268 C   0  0  0  0  0  0  0  0  0  0  0  0
   -1.2440    1.7841    0.7700 O   0  0  0  0  0  0  0  0  0  0  0  0
    0.6794    1.6643    1.9278 N   0  0  0  0  0  0  0  0  0  0  0  0
    1.4794    1.0891    2.1748 H   0  0  0  0  0  0  0  0  0  0  0  0
    0.5244    2.9684    2.5600 C   0  0  0  0  0  0  0  0  0  0  0  0
   -0.4084    3.0085    3.1322 H   0  0  0  0  0  0  0  0  0  0  0  0
    1.3571    3.1587    3.2439 H   0  0  0  0  0  0  0  0  0  0  0  0
    0.5093    3.7606    1.8042 H   0  0  0  0  0  0  0  0  0  0  0  0
  1  2  1  0  0  0  0
  2  3  1  0  0  0  0
  2  4  1  0  0  0  0
  2  5  1  0  0  0  0
  5  6  2  0  0  0  0
  5  7  1  0  0  0  0
  7  8  1  0  0  0  0
  7  9  1  0  0  0  0
  9 10  1  0  0  0  0
  9 11  1  0  0  0  0
  9 24  1  0  0  0  0
 11 12  1  0  0  0  0
 11 13  1  0  0  0  0
 11 17  1  0  0  0  0
 13 14  1  0  0  0  0
 13 15  1  0  0  0  0
 13 16  1  0  0  0  0
 17 18  1  0  0  0  0
 17 19  1  0  0  0  0
 17 20  1  0  0  0  0
 20 21  1  0  0  0  0
 20 22  1  0  0  0  0
 20 23  1  0  0  0  0
 24 25  2  0  0  0  0
 24 26  1  0  0  0  0
 26 27  1  0  0  0  0
 26 28  1  0  0  0  0
 28 29  1  0  0  0  0
 28 30  1  0  0  0  0
 28 31  1  0  0  0  0
M  END
$$$$

  -OEChem-03222214053D

 31 30  0     1  0  0  0  0  0999 V2000
   -2.9560   -3.8315    1.4518 H   0  0  0  0  0  0  0  0  0  0  0  0
   -2.9702   -2.8098    1.0624 C   0  0  0  0  0  0  0  0  0  0  0  0
   -3.5675   -2.1861    1.7318 H   0  0  0  0  0  0  0  0  0  0  0  0
   -3.4320   -2.8162    0.0723 H   0  0  0  0  0  0  0  0  0  0  0  0
   -1.5575   -2.2655    0.9690 C   0  0  0  0  0  0  0  0  0  0  0  0
   -0.6103   -2.9618    1.2995 O   0  0  0  0  0  0  0  0  0  0  0  0
   -1.3491   -0.9809    0.5142 N   0  0  0  0  0  0  0  0  0  0  0  0
   -2.1698   -0.3988    0.3519 H   0  0  0  0  0  0  0  0  0  0  0  0
   -0.0434   -0.3033    0.4848 C   0  0  1  0  0  0  0  0  0  0  0  0
    0.6588   -0.8107    1.1540 H   0  0  0  0  0  0  0  0  0  0  0  0
    0.4985   -0.4138   -0.9717 C   0  0  1  0  0  0  0  0  0  0  0  0
    0.3899   -1.4654   -1.2606 H   0  0  0  0  0  0  0  0  0  0  0  0
   -0.3390    0.4058   -1.9740 C   0  0  0  0  0  0  0  0  0  0  0  0
   -0.2909    1.4767   -1.7589 H   0  0  0  0  0  0  0  0  0  0  0  0
    0.0264    0.2452   -2.9927 H   0  0  0  0  0  0  0  0  0  0  0  0
   -1.3882    0.0981   -1.9408 H   0  0  0  0  0  0  0  0  0  0  0  0
    2.0037   -0.0948   -1.1471 C   0  0  0  0  0  0  0  0  0  0  0  0
    2.5843   -0.8287   -0.5786 H   0  0  0  0  0  0  0  0  0  0  0  0
    2.2548   -0.2411   -2.2029 H   0  0  0  0  0  0  0  0  0  0  0  0
    2.4784    1.3042   -0.7440 C   0  0  0  0  0  0  0  0  0  0  0  0
    2.5757    1.3821    0.3394 H   0  0  0  0  0  0  0  0  0  0  0  0
    3.4657    1.4934   -1.1762 H   0  0  0  0  0  0  0  0  0  0  0  0
    1.7965    2.0799   -1.1023 H   0  0  0  0  0  0  0  0  0  0  0  0
   -0.2432    1.1309    1.0322 C   0  0  0  0  0  0  0  0  0  0  0  0
   -1.2581    1.7615    0.7514 O   0  0  0  0  0  0  0  0  0  0  0  0
    0.6384    1.6753    1.9479 N   0  0  0  0  0  0  0  0  0  0  0  0
    1.4425    1.1154    2.2158 H   0  0  0  0  0  0  0  0  0  0  0  0
    0.4593    2.9893    2.5531 C   0  0  0  0  0  0  0  0  0  0  0  0
   -0.4884    3.0343    3.1001 H   0  0  0  0  0  0  0  0  0  0  0  0
    1.2730    3.1965    3.2548 H   0  0  0  0  0  0  0  0  0  0  0  0
    0.4597    3.7678    1.7829 H   0  0  0  0  0  0  0  0  0  0  0  0
  1  2  1  0  0  0  0
  2  3  1  0  0  0  0
  2  4  1  0  0  0  0
  2  5  1  0  0  0  0
  5  6  2  0  0  0  0
  5  7  1  0  0  0  0
  7  8  1  0  0  0  0
  7  9  1  0  0  0  0
  9 10  1  0  0  0  0
  9 11  1  0  0  0  0
  9 24  1  0  0  0  0
 11 12  1  0  0  0  0
 11 13  1  0  0  0  0
 11 17  1  0  0  0  0
 13 14  1  0  0  0  0
 13 15  1  0  0  0  0
 13 16  1  0  0  0  0
 17 18  1  0  0  0  0
 17 19  1  0  0  0  0
 17 20  1  0  0  0  0
 20 21  1  0  0  0  0
 20 22  1  0  0  0  0
 20 23  1  0  0  0  0
 24 25  2  0  0  0  0
 24 26  1  0  0  0  0
 26 27  1  0  0  0  0
 26 28  1  0  0  0  0
 28 29  1  0  0  0  0
 28 30  1  0  0  0  0
 28 31  1  0  0  0  0
M  END
$$$$

  -OEChem-03222214053D

 31 30  0     1  0  0  0  0  0999 V2000
   -2.9665   -3.8252    1.4600 H   0  0  0  0  0  0  0  0  0  0  0  0
   -2.9762   -2.8044    1.0679 C   0  0  0  0  0  0  0  0  0  0  0  0
   -3.5700   -2.1756    1.7357 H   0  0  0  0  0  0  0  0  0  0  0  0
   -3.4384   -2.8115    0.0779 H   0  0  0  0  0  0  0  0  0  0  0  0
   -1.5610   -2.2665    0.9737 C   0  0  0  0  0  0  0  0  0  0  0  0
   -0.6176   -2.9636    1.3131 O   0  0  0  0  0  0  0  0  0  0  0  0
   -1.3465   -0.9843    0.5152 N   0  0  0  0  0  0  0  0  0  0  0  0
   -2.1647   -0.3996    0.3490 H   0  0  0  0  0  0  0  0  0  0  0  0
   -0.0387   -0.3102    0.4921 C   0  0  1  0  0  0  0  0  0  0  0  0
    0.6609   -0.8149    1.1660 H   0  0  0  0  0  0  0  0  0  0  0  0
    0.5070   -0.4274   -0.9655 C   0  0  1  0  0  0  0  0  0  0  0  0
    0.3709   -1.4709   -1.2715 H   0  0  0  0  0  0  0  0  0  0  0  0
   -0.3067    0.4372   -1.9494 C   0  0  0  0  0  0  0  0  0  0  0  0
   -0.1542    1.5035   -1.7580 H   0  0  0  0  0  0  0  0  0  0  0  0
   -0.0024    0.2284   -2.9796 H   0  0  0  0  0  0  0  0  0  0  0  0
   -1.3758    0.2212   -1.8664 H   0  0  0  0  0  0  0  0  0  0  0  0
    2.0138   -0.1199   -1.1636 C   0  0  0  0  0  0  0  0  0  0  0  0
    2.5849   -0.9833   -0.8061 H   0  0  0  0  0  0  0  0  0  0  0  0
    2.2148   -0.0320   -2.2365 H   0  0  0  0  0  0  0  0  0  0  0  0
    2.5740    1.1201   -0.4677 C   0  0  0  0  0  0  0  0  0  0  0  0
    2.6714    0.9457    0.6059 H   0  0  0  0  0  0  0  0  0  0  0  0
    3.5713    1.3421   -0.8593 H   0  0  0  0  0  0  0  0  0  0  0  0
    1.9370    1.9922   -0.6431 H   0  0  0  0  0  0  0  0  0  0  0  0
   -0.2562    1.1251    1.0355 C   0  0  0  0  0  0  0  0  0  0  0  0
   -1.2725    1.7477    0.7412 O   0  0  0  0  0  0  0  0  0  0  0  0
    0.6087    1.6822    1.9597 N   0  0  0  0  0  0  0  0  0  0  0  0
    1.4091    1.1267    2.2470 H   0  0  0  0  0  0  0  0  0  0  0  0
    0.4072    2.9942    2.5626 C   0  0  0  0  0  0  0  0  0  0  0  0
   -0.5413    3.0239    3.1092 H   0  0  0  0  0  0  0  0  0  0  0  0
    1.2172    3.2160    3.2641 H   0  0  0  0  0  0  0  0  0  0  0  0
    0.3947    3.7718    1.7916 H   0  0  0  0  0  0  0  0  0  0  0  0
  1  2  1  0  0  0  0
  2  3  1  0  0  0  0
  2  4  1  0  0  0  0
  2  5  1  0  0  0  0
  5  6  2  0  0  0  0
  5  7  1  0  0  0  0
  7  8  1  0  0  0  0
  7  9  1  0  0  0  0
  9 10  1  0  0  0  0
  9 11  1  0  0  0  0
  9 24  1  0  0  0  0
 11 12  1  0  0  0  0
 11 13  1  0  0  0  0
 11 17  1  0  0  0  0
 13 14  1  0  0  0  0
 13 15  1  0  0  0  0
 13 16  1  0  0  0  0
 17 18  1  0  0  0  0
 17 19  1  0  0  0  0
 17 20  1  0  0  0  0
 20 21  1  0  0  0  0
 20 22  1  0  0  0  0
 20 23  1  0  0  0  0
 24 25  2  0  0  0  0
 24 26  1  0  0  0  0
 26 27  1  0  0  0  0
 26 28  1  0  0  0  0
 28 29  1  0  0  0  0
 28 30  1  0  0  0  0
 28 31  1  0  0  0  0
M  END
$$$$

  -OEChem-03222214053D

 31 30  0     1  0  0  0  0  0999 V2000
   -2.9758   -3.8253    1.4630 H   0  0  0  0  0  0  0  0  0  0  0  0
   -2.9839   -2.8053    1.0690 C   0  0  0  0  0  0  0  0  0  0  0  0
   -3.5777   -2.1747    1.7350 H   0  0  0  0  0  0  0  0  0  0  0  0
   -3.4455   -2.8136    0.0787 H   0  0  0  0  0  0  0  0  0  0  0  0
   -1.5678   -2.2695    0.9753 C   0  0  0  0  0  0  0  0  0  0  0  0
   -0.6257   -2.9675    1.3164 O   0  0  0  0  0  0  0  0  0  0  0  0
   -1.3512   -0.9880    0.5157 N   0  0  0  0  0  0  0  0  0  0  0  0
   -2.1690   -0.4027    0.3492 H   0  0  0  0  0  0  0  0  0  0  0  0
   -0.0435   -0.3130    0.4982 C   0  0  1  0  0  0  0  0  0  0  0  0
    0.6493   -0.8186    1.1783 H   0  0  0  0  0  0  0  0  0  0  0  0
    0.5128   -0.4329   -0.9568 C   0  0  1  0  0  0  0  0  0  0  0  0
    0.3687   -1.4741   -1.2669 H   0  0  0  0  0  0  0  0  0  0  0  0
   -0.2961    0.4414   -1.9355 C   0  0  0  0  0  0  0  0  0  0  0  0
   -0.1120    1.5047   -1.7529 H   0  0  0  0  0  0  0  0  0  0  0  0
   -0.0129    0.2172   -2.9685 H   0  0  0  0  0  0  0  0  0  0  0  0
   -1.3690    0.2529   -1.8357 H   0  0  0  0  0  0  0  0  0  0  0  0
    2.0220   -0.1274   -1.1664 C   0  0  0  0  0  0  0  0  0  0  0  0
    2.5660   -1.0698   -1.0445 H   0  0  0  0  0  0  0  0  0  0  0  0
    2.1903    0.1990   -2.1981 H   0  0  0  0  0  0  0  0  0  0  0  0
    2.6749    0.8849   -0.2276 C   0  0  0  0  0  0  0  0  0  0  0  0
    2.6768    0.5157    0.8010 H   0  0  0  0  0  0  0  0  0  0  0  0
    3.7151    1.0463   -0.5268 H   0  0  0  0  0  0  0  0  0  0  0  0
    2.1556    1.8467   -0.2763 H   0  0  0  0  0  0  0  0  0  0  0  0
   -0.2640    1.1240    1.0382 C   0  0  0  0  0  0  0  0  0  0  0  0
   -1.2806    1.7440    0.7396 O   0  0  0  0  0  0  0  0  0  0  0  0
    0.5952    1.6848    1.9658 N   0  0  0  0  0  0  0  0  0  0  0  0
    1.3989    1.1344    2.2538 H   0  0  0  0  0  0  0  0  0  0  0  0
    0.3865    2.9968    2.5658 C   0  0  0  0  0  0  0  0  0  0  0  0
   -0.5615    3.0213    3.1135 H   0  0  0  0  0  0  0  0  0  0  0  0
    1.1959    3.2258    3.2656 H   0  0  0  0  0  0  0  0  0  0  0  0
    0.3679    3.7725    1.7930 H   0  0  0  0  0  0  0  0  0  0  0  0
  1  2  1  0  0  0  0
  2  3  1  0  0  0  0
  2  4  1  0  0  0  0
  2  5  1  0  0  0  0
  5  6  2  0  0  0  0
  5  7  1  0  0  0  0
  7  8  1  0  0  0  0
  7  9  1  0  0  0  0
  9 10  1  0  0  0  0
  9 11  1  0  0  0  0
  9 24  1  0  0  0  0
 11 12  1  0  0  0  0
 11 13  1  0  0  0  0
 11 17  1  0  0  0  0
 13 14  1  0  0  0  0
 13 15  1  0  0  0  0
 13 16  1  0  0  0  0
 17 18  1  0  0  0  0
 17 19  1  0  0  0  0
 17 20  1  0  0  0  0
 20 21  1  0  0  0  0
 20 22  1  0  0  0  0
 20 23  1  0  0  0  0
 24 25  2  0  0  0  0
 24 26  1  0  0  0  0
 26 27  1  0  0  0  0
 26 28  1  0  0  0  0
 28 29  1  0  0  0  0
 28 30  1  0  0  0  0
 28 31  1  0  0  0  0
M  END
$$$$

  -OEChem-03222214053D

 31 30  0     1  0  0  0  0  0999 V2000
   -2.9885   -3.8289    1.4555 H   0  0  0  0  0  0  0  0  0  0  0  0
   -2.9954   -2.8089    1.0613 C   0  0  0  0  0  0  0  0  0  0  0  0
   -3.5941   -2.1790    1.7237 H   0  0  0  0  0  0  0  0  0  0  0  0
   -3.4514   -2.8184    0.0684 H   0  0  0  0  0  0  0  0  0  0  0  0
   -1.5794   -2.2713    0.9759 C   0  0  0  0  0  0  0  0  0  0  0  0
   -0.6391   -2.9681    1.3242 O   0  0  0  0  0  0  0  0  0  0  0  0
   -1.3618   -0.9902    0.5157 N   0  0  0  0  0  0  0  0  0  0  0  0
   -2.1797   -0.4072    0.3428 H   0  0  0  0  0  0  0  0  0  0  0  0
   -0.0558   -0.3115    0.5051 C   0  0  1  0  0  0  0  0  0  0  0  0
    0.6248   -0.8209    1.1938 H   0  0  0  0  0  0  0  0  0  0  0  0
    0.5161   -0.4310   -0.9435 C   0  0  1  0  0  0  0  0  0  0  0  0
    0.3823   -1.4772   -1.2413 H   0  0  0  0  0  0  0  0  0  0  0  0
   -0.2997    0.4183   -1.9386 C   0  0  0  0  0  0  0  0  0  0  0  0
   -0.1384    1.4865   -1.7629 H   0  0  0  0  0  0  0  0  0  0  0  0
   -0.0005    0.1900   -2.9663 H   0  0  0  0  0  0  0  0  0  0  0  0
   -1.3699    0.2098   -1.8489 H   0  0  0  0  0  0  0  0  0  0  0  0
    2.0280   -0.1208   -1.1539 C   0  0  0  0  0  0  0  0  0  0  0  0
    2.5354   -1.0807   -1.2968 H   0  0  0  0  0  0  0  0  0  0  0  0
    2.1685    0.4452   -2.0807 H   0  0  0  0  0  0  0  0  0  0  0  0
    2.7744    0.6092   -0.0373 C   0  0  0  0  0  0  0  0  0  0  0  0
    2.6917    0.0752    0.9131 H   0  0  0  0  0  0  0  0  0  0  0  0
    3.8365    0.6783   -0.2918 H   0  0  0  0  0  0  0  0  0  0  0  0
    2.3920    1.6273    0.0732 H   0  0  0  0  0  0  0  0  0  0  0  0
   -0.2668    1.1282    1.0383 C   0  0  0  0  0  0  0  0  0  0  0  0
   -1.2798    1.7527    0.7376 O   0  0  0  0  0  0  0  0  0  0  0  0
    0.5959    1.6834    1.9660 N   0  0  0  0  0  0  0  0  0  0  0  0
    1.3989    1.1299    2.2500 H   0  0  0  0  0  0  0  0  0  0  0  0
    0.3963    2.9968    2.5662 C   0  0  0  0  0  0  0  0  0  0  0  0
   -0.5534    3.0294    3.1103 H   0  0  0  0  0  0  0  0  0  0  0  0
    1.2047    3.2181    3.2695 H   0  0  0  0  0  0  0  0  0  0  0  0
    0.3877    3.7734    1.7943 H   0  0  0  0  0  0  0  0  0  0  0  0
  1  2  1  0  0  0  0
  2  3  1  0  0  0  0
  2  4  1  0  0  0  0
  2  5  1  0  0  0  0
  5  6  2  0  0  0  0
  5  7  1  0  0  0  0
  7  8  1  0  0  0  0
  7  9  1  0  0  0  0
  9 10  1  0  0  0  0
  9 11  1  0  0  0  0
  9 24  1  0  0  0  0
 11 12  1  0  0  0  0
 11 13  1  0  0  0  0
 11 17  1  0  0  0  0
 13 14  1  0  0  0  0
 13 15  1  0  0  0  0
 13 16  1  0  0  0  0
 17 18  1  0  0  0  0
 17 19  1  0  0  0  0
 17 20  1  0  0  0  0
 20 21  1  0  0  0  0
 20 22  1  0  0  0  0
 20 23  1  0  0  0  0
 24 25  2  0  0  0  0
 24 26  1  0  0  0  0
 26 27  1  0  0  0  0
 26 28  1  0  0  0  0
 28 29  1  0  0  0  0
 28 30  1  0  0  0  0
 28 31  1  0  0  0  0
M  END
$$$$

  -OEChem-03222214053D

 31 30  0     1  0  0  0  0  0999 V2000
   -3.0123   -3.8191    1.4550 H   0  0  0  0  0  0  0  0  0  0  0  0
   -3.0132   -2.8003    1.0575 C   0  0  0  0  0  0  0  0  0  0  0  0
   -3.6137   -2.1664    1.7143 H   0  0  0  0  0  0  0  0  0  0  0  0
   -3.4627   -2.8112    0.0616 H   0  0  0  0  0  0  0  0  0  0  0  0
   -1.5949   -2.2677    0.9796 C   0  0  0  0  0  0  0  0  0  0  0  0
   -0.6603   -2.9652    1.3414 O   0  0  0  0  0  0  0  0  0  0  0  0
   -1.3692   -0.9895    0.5145 N   0  0  0  0  0  0  0  0  0  0  0  0
   -2.1837   -0.4064    0.3273 H   0  0  0  0  0  0  0  0  0  0  0  0
   -0.0611   -0.3143    0.5107 C   0  0  1  0  0  0  0  0  0  0  0  0
    0.6069   -0.8264    1.2081 H   0  0  0  0  0  0  0  0  0  0  0  0
    0.5221   -0.4257   -0.9330 C   0  0  1  0  0  0  0  0  0  0  0  0
    0.4015   -1.4781   -1.2138 H   0  0  0  0  0  0  0  0  0  0  0  0
   -0.2959    0.3949   -1.9497 C   0  0  0  0  0  0  0  0  0  0  0  0
   -0.1740    1.4685   -1.7747 H   0  0  0  0  0  0  0  0  0  0  0  0
    0.0368    0.1732   -2.9686 H   0  0  0  0  0  0  0  0  0  0  0  0
   -1.3605    0.1522   -1.8841 H   0  0  0  0  0  0  0  0  0  0  0  0
    2.0358   -0.1173   -1.1401 C   0  0  0  0  0  0  0  0  0  0  0  0
    2.4944   -1.0130   -1.5726 H   0  0  0  0  0  0  0  0  0  0  0  0
    2.1526    0.6813   -1.8804 H   0  0  0  0  0  0  0  0  0  0  0  0
    2.8674    0.2764    0.0826 C   0  0  0  0  0  0  0  0  0  0  0  0
    2.7553   -0.4486    0.8933 H   0  0  0  0  0  0  0  0  0  0  0  0
    3.9261    0.3090   -0.1927 H   0  0  0  0  0  0  0  0  0  0  0  0
    2.5891    1.2718    0.4326 H   0  0  0  0  0  0  0  0  0  0  0  0
   -0.2616    1.1292    1.0331 C   0  0  0  0  0  0  0  0  0  0  0  0
   -1.2685    1.7595    0.7246 O   0  0  0  0  0  0  0  0  0  0  0  0
    0.6016    1.6810    1.9617 N   0  0  0  0  0  0  0  0  0  0  0  0
    1.3955    1.1194    2.2553 H   0  0  0  0  0  0  0  0  0  0  0  0
    0.4100    2.9980    2.5564 C   0  0  0  0  0  0  0  0  0  0  0  0
   -0.5388    3.0381    3.1017 H   0  0  0  0  0  0  0  0  0  0  0  0
    1.2210    3.2175    3.2574 H   0  0  0  0  0  0  0  0  0  0  0  0
    0.4046    3.7713    1.7810 H   0  0  0  0  0  0  0  0  0  0  0  0
  1  2  1  0  0  0  0
  2  3  1  0  0  0  0
  2  4  1  0  0  0  0
  2  5  1  0  0  0  0
  5  6  2  0  0  0  0
  5  7  1  0  0  0  0
  7  8  1  0  0  0  0
  7  9  1  0  0  0  0
  9 10  1  0  0  0  0
  9 11  1  0  0  0  0
  9 24  1  0  0  0  0
 11 12  1  0  0  0  0
 11 13  1  0  0  0  0
 11 17  1  0  0  0  0
 13 14  1  0  0  0  0
 13 15  1  0  0  0  0
 13 16  1  0  0  0  0
 17 18  1  0  0  0  0
 17 19  1  0  0  0  0
 17 20  1  0  0  0  0
 20 21  1  0  0  0  0
 20 22  1  0  0  0  0
 20 23  1  0  0  0  0
 24 25  2  0  0  0  0
 24 26  1  0  0  0  0
 26 27  1  0  0  0  0
 26 28  1  0  0  0  0
 28 29  1  0  0  0  0
 28 30  1  0  0  0  0
 28 31  1  0  0  0  0
M  END
$$$$

  -OEChem-03222214053D

 31 30  0     1  0  0  0  0  0999 V2000
   -3.0274   -3.8035    1.4699 H   0  0  0  0  0  0  0  0  0  0  0  0
   -3.0212   -2.7873    1.0659 C   0  0  0  0  0  0  0  0  0  0  0  0
   -3.6183   -2.1452    1.7178 H   0  0  0  0  0  0  0  0  0  0  0  0
   -3.4694   -2.8009    0.0695 H   0  0  0  0  0  0  0  0  0  0  0  0
   -1.5994   -2.2646    0.9862 C   0  0  0  0  0  0  0  0  0  0  0  0
   -0.6687   -2.9658    1.3512 O   0  0  0  0  0  0  0  0  0  0  0  0
   -1.3669   -0.9907    0.5134 N   0  0  0  0  0  0  0  0  0  0  0  0
   -2.1785   -0.4039    0.3250 H   0  0  0  0  0  0  0  0  0  0  0  0
   -0.0560   -0.3223    0.5062 C   0  0  1  0  0  0  0  0  0  0  0  0
    0.6099   -0.8343    1.2057 H   0  0  0  0  0  0  0  0  0  0  0  0
    0.5257   -0.4221   -0.9371 C   0  0  1  0  0  0  0  0  0  0  0  0
    0.4139   -1.4775   -1.2111 H   0  0  0  0  0  0  0  0  0  0  0  0
   -0.2856    0.3885   -1.9654 C   0  0  0  0  0  0  0  0  0  0  0  0
   -0.1840    1.4635   -1.7868 H   0  0  0  0  0  0  0  0  0  0  0  0
    0.0698    0.1745   -2.9782 H   0  0  0  0  0  0  0  0  0  0  0  0
   -1.3473    0.1289   -1.9179 H   0  0  0  0  0  0  0  0  0  0  0  0
    2.0381   -0.1157   -1.1299 C   0  0  0  0  0  0  0  0  0  0  0  0
    2.4471   -0.8585   -1.8232 H   0  0  0  0  0  0  0  0  0  0  0  0
    2.1476    0.8623   -1.6106 H   0  0  0  0  0  0  0  0  0  0  0  0
    2.9178   -0.0911    0.1231 C   0  0  0  0  0  0  0  0  0  0  0  0
    2.8103   -1.0200    0.6912 H   0  0  0  0  0  0  0  0  0  0  0  0
    3.9678    0.0062   -0.1697 H   0  0  0  0  0  0  0  0  0  0  0  0
    2.6746    0.7577    0.7620 H   0  0  0  0  0  0  0  0  0  0  0  0
   -0.2442    1.1263    1.0187 C   0  0  0  0  0  0  0  0  0  0  0  0
   -1.2481    1.7605    0.7083 O   0  0  0  0  0  0  0  0  0  0  0  0
    0.6227    1.6802    1.9425 N   0  0  0  0  0  0  0  0  0  0  0  0
    1.4062    1.1113    2.2499 H   0  0  0  0  0  0  0  0  0  0  0  0
    0.4329    2.9989    2.5342 C   0  0  0  0  0  0  0  0  0  0  0  0
   -0.5128    3.0398    3.0848 H   0  0  0  0  0  0  0  0  0  0  0  0
    1.2475    3.2216    3.2299 H   0  0  0  0  0  0  0  0  0  0  0  0
    0.4221    3.7695    1.7563 H   0  0  0  0  0  0  0  0  0  0  0  0
  1  2  1  0  0  0  0
  2  3  1  0  0  0  0
  2  4  1  0  0  0  0
  2  5  1  0  0  0  0
  5  6  2  0  0  0  0
  5  7  1  0  0  0  0
  7  8  1  0  0  0  0
  7  9  1  0  0  0  0
  9 10  1  0  0  0  0
  9 11  1  0  0  0  0
  9 24  1  0  0  0  0
 11 12  1  0  0  0  0
 11 13  1  0  0  0  0
 11 17  1  0  0  0  0
 13 14  1  0  0  0  0
 13 15  1  0  0  0  0
 13 16  1  0  0  0  0
 17 18  1  0  0  0  0
 17 19  1  0  0  0  0
 17 20  1  0  0  0  0
 20 21  1  0  0  0  0
 20 22  1  0  0  0  0
 20 23  1  0  0  0  0
 24 25  2  0  0  0  0
 24 26  1  0  0  0  0
 26 27  1  0  0  0  0
 26 28  1  0  0  0  0
 28 29  1  0  0  0  0
 28 30  1  0  0  0  0
 28 31  1  0  0  0  0
M  END
$$$$

  -OEChem-03222214053D

 31 30  0     1  0  0  0  0  0999 V2000
   -3.0113   -3.8260    1.4796 H   0  0  0  0  0  0  0  0  0  0  0  0
   -3.0152   -2.8093    1.0769 C   0  0  0  0  0  0  0  0  0  0  0  0
   -3.6118   -2.1723    1.7344 H   0  0  0  0  0  0  0  0  0  0  0  0
   -3.4711   -2.8251    0.0840 H   0  0  0  0  0  0  0  0  0  0  0  0
   -1.5976   -2.2768    0.9860 C   0  0  0  0  0  0  0  0  0  0  0  0
   -0.6599   -2.9735    1.3414 O   0  0  0  0  0  0  0  0  0  0  0  0
   -1.3766   -1.0020    0.5096 N   0  0  0  0  0  0  0  0  0  0  0  0
   -2.1935   -0.4225    0.3223 H   0  0  0  0  0  0  0  0  0  0  0  0
   -0.0701   -0.3258    0.4856 C   0  0  1  0  0  0  0  0  0  0  0  0
    0.5956   -0.8396    1.1839 H   0  0  0  0  0  0  0  0  0  0  0  0
    0.5165   -0.4194   -0.9528 C   0  0  1  0  0  0  0  0  0  0  0  0
    0.4194   -1.4742   -1.2340 H   0  0  0  0  0  0  0  0  0  0  0  0
   -0.2828    0.3948   -1.9856 C   0  0  0  0  0  0  0  0  0  0  0  0
   -0.1873    1.4692   -1.8008 H   0  0  0  0  0  0  0  0  0  0  0  0
    0.0861    0.1875   -2.9948 H   0  0  0  0  0  0  0  0  0  0  0  0
   -1.3439    0.1306   -1.9508 H   0  0  0  0  0  0  0  0  0  0  0  0
    2.0243   -0.0910   -1.1035 C   0  0  0  0  0  0  0  0  0  0  0  0
    2.4086   -0.6338   -1.9734 H   0  0  0  0  0  0  0  0  0  0  0  0
    2.1369    0.9781   -1.3131 H   0  0  0  0  0  0  0  0  0  0  0  0
    2.9102   -0.4102    0.1050 C   0  0  0  0  0  0  0  0  0  0  0  0
    2.7785   -1.4535    0.4091 H   0  0  0  0  0  0  0  0  0  0  0  0
    3.9614   -0.2603   -0.1596 H   0  0  0  0  0  0  0  0  0  0  0  0
    2.6831    0.2398    0.9515 H   0  0  0  0  0  0  0  0  0  0  0  0
   -0.2262    1.1262    0.9939 C   0  0  0  0  0  0  0  0  0  0  0  0
   -1.2291    1.7716    0.7054 O   0  0  0  0  0  0  0  0  0  0  0  0
    0.6703    1.6667    1.8972 N   0  0  0  0  0  0  0  0  0  0  0  0
    1.4504    1.0856    2.1895 H   0  0  0  0  0  0  0  0  0  0  0  0
    0.5094    2.9861    2.4962 C   0  0  0  0  0  0  0  0  0  0  0  0
   -0.4202    3.0344    3.0731 H   0  0  0  0  0  0  0  0  0  0  0  0
    1.3454    3.2010    3.1688 H   0  0  0  0  0  0  0  0  0  0  0  0
    0.4832    3.7582    1.7201 H   0  0  0  0  0  0  0  0  0  0  0  0
  1  2  1  0  0  0  0
  2  3  1  0  0  0  0
  2  4  1  0  0  0  0
  2  5  1  0  0  0  0
  5  6  2  0  0  0  0
  5  7  1  0  0  0  0
  7  8  1  0  0  0  0
  7  9  1  0  0  0  0
  9 10  1  0  0  0  0
  9 11  1  0  0  0  0
  9 24  1  0  0  0  0
 11 12  1  0  0  0  0
 11 13  1  0  0  0  0
 11 17  1  0  0  0  0
 13 14  1  0  0  0  0
 13 15  1  0  0  0  0
 13 16  1  0  0  0  0
 17 18  1  0  0  0  0
 17 19  1  0  0  0  0
 17 20  1  0  0  0  0
 20 21  1  0  0  0  0
 20 22  1  0  0  0  0
 20 23  1  0  0  0  0
 24 25  2  0  0  0  0
 24 26  1  0  0  0  0
 26 27  1  0  0  0  0
 26 28  1  0  0  0  0
 28 29  1  0  0  0  0
 28 30  1  0  0  0  0
 28 31  1  0  0  0  0
M  END
$$$$

  -OEChem-03222214053D

 31 30  0     1  0  0  0  0  0999 V2000
   -2.9805   -3.8598    1.4757 H   0  0  0  0  0  0  0  0  0  0  0  0
   -3.0002   -2.8414    1.0780 C   0  0  0  0  0  0  0  0  0  0  0  0
   -3.5963   -2.2140    1.7452 H   0  0  0  0  0  0  0  0  0  0  0  0
   -3.4675   -2.8579    0.0905 H   0  0  0  0  0  0  0  0  0  0  0  0
   -1.5897   -2.2926    0.9741 C   0  0  0  0  0  0  0  0  0  0  0  0
   -0.6402   -2.9815    1.3135 O   0  0  0  0  0  0  0  0  0  0  0  0
   -1.3896   -1.0126    0.5017 N   0  0  0  0  0  0  0  0  0  0  0  0
   -2.2160   -0.4440    0.3240 H   0  0  0  0  0  0  0  0  0  0  0  0
   -0.0920   -0.3210    0.4613 C   0  0  1  0  0  0  0  0  0  0  0  0
    0.5741   -0.8338    1.1587 H   0  0  0  0  0  0  0  0  0  0  0  0
    0.5021   -0.4206   -0.9700 C   0  0  1  0  0  0  0  0  0  0  0  0
    0.4190   -1.4739   -1.2608 H   0  0  0  0  0  0  0  0  0  0  0  0
   -0.2883    0.4007   -2.0026 C   0  0  0  0  0  0  0  0  0  0  0  0
   -0.1868    1.4740   -1.8139 H   0  0  0  0  0  0  0  0  0  0  0  0
    0.0822    0.1945   -3.0114 H   0  0  0  0  0  0  0  0  0  0  0  0
   -1.3508    0.1419   -1.9715 H   0  0  0  0  0  0  0  0  0  0  0  0
    2.0031   -0.0617   -1.0751 C   0  0  0  0  0  0  0  0  0  0  0  0
    2.3683   -0.3914   -2.0535 H   0  0  0  0  0  0  0  0  0  0  0  0
    2.1194    1.0264   -1.0325 H   0  0  0  0  0  0  0  0  0  0  0  0
    2.8942   -0.6786    0.0078 C   0  0  0  0  0  0  0  0  0  0  0  0
    2.7160   -1.7563    0.0805 H   0  0  0  0  0  0  0  0  0  0  0  0
    3.9470   -0.5188   -0.2447 H   0  0  0  0  0  0  0  0  0  0  0  0
    2.7102   -0.2207    0.9829 H   0  0  0  0  0  0  0  0  0  0  0  0
   -0.2185    1.1298    0.9727 C   0  0  0  0  0  0  0  0  0  0  0  0
   -1.2188    1.7892    0.7105 O   0  0  0  0  0  0  0  0  0  0  0  0
    0.7125    1.6472    1.8545 N   0  0  0  0  0  0  0  0  0  0  0  0
    1.4935    1.0526    2.1155 H   0  0  0  0  0  0  0  0  0  0  0  0
    0.5936    2.9654    2.4649 C   0  0  0  0  0  0  0  0  0  0  0  0
   -0.3240    3.0317    3.0590 H   0  0  0  0  0  0  0  0  0  0  0  0
    1.4461    3.1549    3.1241 H   0  0  0  0  0  0  0  0  0  0  0  0
    0.5726    3.7438    1.6949 H   0  0  0  0  0  0  0  0  0  0  0  0
  1  2  1  0  0  0  0
  2  3  1  0  0  0  0
  2  4  1  0  0  0  0
  2  5  1  0  0  0  0
  5  6  2  0  0  0  0
  5  7  1  0  0  0  0
  7  8  1  0  0  0  0
  7  9  1  0  0  0  0
  9 10  1  0  0  0  0
  9 11  1  0  0  0  0
  9 24  1  0  0  0  0
 11 12  1  0  0  0  0
 11 13  1  0  0  0  0
 11 17  1  0  0  0  0
 13 14  1  0  0  0  0
 13 15  1  0  0  0  0
 13 16  1  0  0  0  0
 17 18  1  0  0  0  0
 17 19  1  0  0  0  0
 17 20  1  0  0  0  0
 20 21  1  0  0  0  0
 20 22  1  0  0  0  0
 20 23  1  0  0  0  0
 24 25  2  0  0  0  0
 24 26  1  0  0  0  0
 26 27  1  0  0  0  0
 26 28  1  0  0  0  0
 28 29  1  0  0  0  0
 28 30  1  0  0  0  0
 28 31  1  0  0  0  0
M  END
$$$$

  -OEChem-03222214053D

 31 30  0     1  0  0  0  0  0999 V2000
   -2.9499   -3.8759    1.4754 H   0  0  0  0  0  0  0  0  0  0  0  0
   -2.9797   -2.8575    1.0782 C   0  0  0  0  0  0  0  0  0  0  0  0
   -3.5796   -2.2360    1.7473 H   0  0  0  0  0  0  0  0  0  0  0  0
   -3.4493   -2.8777    0.0919 H   0  0  0  0  0  0  0  0  0  0  0  0
   -1.5743   -2.2966    0.9698 C   0  0  0  0  0  0  0  0  0  0  0  0
   -0.6177   -2.9796    1.3008 O   0  0  0  0  0  0  0  0  0  0  0  0
   -1.3857   -1.0140    0.4994 N   0  0  0  0  0  0  0  0  0  0  0  0
   -2.2162   -0.4505    0.3254 H   0  0  0  0  0  0  0  0  0  0  0  0
   -0.0915   -0.3176    0.4468 C   0  0  1  0  0  0  0  0  0  0  0  0
    0.5832   -0.8266    1.1387 H   0  0  0  0  0  0  0  0  0  0  0  0
    0.4951   -0.4236   -0.9865 C   0  0  1  0  0  0  0  0  0  0  0  0
    0.4066   -1.4719   -1.2932 H   0  0  0  0  0  0  0  0  0  0  0  0
   -0.2894    0.4189   -2.0064 C   0  0  0  0  0  0  0  0  0  0  0  0
   -0.1599    1.4889   -1.8162 H   0  0  0  0  0  0  0  0  0  0  0  0
    0.0622    0.2071   -3.0208 H   0  0  0  0  0  0  0  0  0  0  0  0
   -1.3573    0.1851   -1.9619 H   0  0  0  0  0  0  0  0  0  0  0  0
    1.9924   -0.0530   -1.0656 C   0  0  0  0  0  0  0  0  0  0  0  0
    2.3198   -0.1517   -2.1060 H   0  0  0  0  0  0  0  0  0  0  0  0
    2.1338    0.9936   -0.7768 H   0  0  0  0  0  0  0  0  0  0  0  0
    2.8937   -0.9394   -0.2001 C   0  0  0  0  0  0  0  0  0  0  0  0
    2.6856   -1.9974   -0.3889 H   0  0  0  0  0  0  0  0  0  0  0  0
    3.9438   -0.7457   -0.4393 H   0  0  0  0  0  0  0  0  0  0  0  0
    2.7487   -0.7353    0.8640 H   0  0  0  0  0  0  0  0  0  0  0  0
   -0.2127    1.1314    0.9638 C   0  0  0  0  0  0  0  0  0  0  0  0
   -1.2157    1.7920    0.7156 O   0  0  0  0  0  0  0  0  0  0  0  0
    0.7305    1.6441    1.8355 N   0  0  0  0  0  0  0  0  0  0  0  0
    1.5180    1.0504    2.0788 H   0  0  0  0  0  0  0  0  0  0  0  0
    0.6215    2.9616    2.4497 C   0  0  0  0  0  0  0  0  0  0  0  0
   -0.2992    3.0354    3.0380 H   0  0  0  0  0  0  0  0  0  0  0  0
    1.4715    3.1403    3.1151 H   0  0  0  0  0  0  0  0  0  0  0  0
    0.6128    3.7421    1.6817 H   0  0  0  0  0  0  0  0  0  0  0  0
  1  2  1  0  0  0  0
  2  3  1  0  0  0  0
  2  4  1  0  0  0  0
  2  5  1  0  0  0  0
  5  6  2  0  0  0  0
  5  7  1  0  0  0  0
  7  8  1  0  0  0  0
  7  9  1  0  0  0  0
  9 10  1  0  0  0  0
  9 11  1  0  0  0  0
  9 24  1  0  0  0  0
 11 12  1  0  0  0  0
 11 13  1  0  0  0  0
 11 17  1  0  0  0  0
 13 14  1  0  0  0  0
 13 15  1  0  0  0  0
 13 16  1  0  0  0  0
 17 18  1  0  0  0  0
 17 19  1  0  0  0  0
 17 20  1  0  0  0  0
 20 21  1  0  0  0  0
 20 22  1  0  0  0  0
 20 23  1  0  0  0  0
 24 25  2  0  0  0  0
 24 26  1  0  0  0  0
 26 27  1  0  0  0  0
 26 28  1  0  0  0  0
 28 29  1  0  0  0  0
 28 30  1  0  0  0  0
 28 31  1  0  0  0  0
M  END
$$$$

  -OEChem-03222214053D

 31 30  0     1  0  0  0  0  0999 V2000
   -2.9255   -3.8755    1.4867 H   0  0  0  0  0  0  0  0  0  0  0  0
   -2.9612   -2.8569    1.0900 C   0  0  0  0  0  0  0  0  0  0  0  0
   -3.5544   -2.2362    1.7658 H   0  0  0  0  0  0  0  0  0  0  0  0
   -3.4413   -2.8776    0.1087 H   0  0  0  0  0  0  0  0  0  0  0  0
   -1.5579   -2.2941    0.9667 C   0  0  0  0  0  0  0  0  0  0  0  0
   -0.5970   -2.9755    1.2885 O   0  0  0  0  0  0  0  0  0  0  0  0
   -1.3749   -1.0113    0.4947 N   0  0  0  0  0  0  0  0  0  0  0  0
   -2.2073   -0.4468    0.3325 H   0  0  0  0  0  0  0  0  0  0  0  0
   -0.0808   -0.3156    0.4333 C   0  0  1  0  0  0  0  0  0  0  0  0
    0.6073   -0.8186    1.1175 H   0  0  0  0  0  0  0  0  0  0  0  0
    0.4954   -0.4272   -1.0039 C   0  0  1  0  0  0  0  0  0  0  0  0
    0.3950   -1.4700   -1.3255 H   0  0  0  0  0  0  0  0  0  0  0  0
   -0.2850    0.4369   -2.0096 C   0  0  0  0  0  0  0  0  0  0  0  0
   -0.1335    1.5029   -1.8129 H   0  0  0  0  0  0  0  0  0  0  0  0
    0.0513    0.2265   -3.0295 H   0  0  0  0  0  0  0  0  0  0  0  0
   -1.3564    0.2220   -1.9552 H   0  0  0  0  0  0  0  0  0  0  0  0
    1.9925   -0.0541   -1.0647 C   0  0  0  0  0  0  0  0  0  0  0  0
    2.2810    0.0967   -2.1103 H   0  0  0  0  0  0  0  0  0  0  0  0
    2.1741    0.8888   -0.5400 H   0  0  0  0  0  0  0  0  0  0  0  0
    2.8923   -1.1522   -0.4899 C   0  0  0  0  0  0  0  0  0  0  0  0
    2.7162   -2.1011   -1.0064 H   0  0  0  0  0  0  0  0  0  0  0  0
    3.9437   -0.8784   -0.6204 H   0  0  0  0  0  0  0  0  0  0  0  0
    2.7080   -1.2970    0.5780 H   0  0  0  0  0  0  0  0  0  0  0  0
   -0.2086    1.1326    0.9538 C   0  0  0  0  0  0  0  0  0  0  0  0
   -1.2169    1.7878    0.7126 O   0  0  0  0  0  0  0  0  0  0  0  0
    0.7356    1.6494    1.8221 N   0  0  0  0  0  0  0  0  0  0  0  0
    1.5242    1.0573    2.0661 H   0  0  0  0  0  0  0  0  0  0  0  0
    0.6187    2.9627    2.4437 C   0  0  0  0  0  0  0  0  0  0  0  0
   -0.2894    3.0190    3.0532 H   0  0  0  0  0  0  0  0  0  0  0  0
    1.4806    3.1538    3.0900 H   0  0  0  0  0  0  0  0  0  0  0  0
    0.5794    3.7460    1.6795 H   0  0  0  0  0  0  0  0  0  0  0  0
  1  2  1  0  0  0  0
  2  3  1  0  0  0  0
  2  4  1  0  0  0  0
  2  5  1  0  0  0  0
  5  6  2  0  0  0  0
  5  7  1  0  0  0  0
  7  8  1  0  0  0  0
  7  9  1  0  0  0  0
  9 10  1  0  0  0  0
  9 11  1  0  0  0  0
  9 24  1  0  0  0  0
 11 12  1  0  0  0  0
 11 13  1  0  0  0  0
 11 17  1  0  0  0  0
 13 14  1  0  0  0  0
 13 15  1  0  0  0  0
 13 16  1  0  0  0  0
 17 18  1  0  0  0  0
 17 19  1  0  0  0  0
 17 20  1  0  0  0  0
 20 21  1  0  0  0  0
 20 22  1  0  0  0  0
 20 23  1  0  0  0  0
 24 25  2  0  0  0  0
 24 26  1  0  0  0  0
 26 27  1  0  0  0  0
 26 28  1  0  0  0  0
 28 29  1  0  0  0  0
 28 30  1  0  0  0  0
 28 31  1  0  0  0  0
M  END
$$$$

  -OEChem-03222214053D

 31 30  0     1  0  0  0  0  0999 V2000
   -2.9092   -3.8696    1.4939 H   0  0  0  0  0  0  0  0  0  0  0  0
   -2.9458   -2.8521    1.0949 C   0  0  0  0  0  0  0  0  0  0  0  0
   -3.5348   -2.2290    1.7722 H   0  0  0  0  0  0  0  0  0  0  0  0
   -3.4309   -2.8745    0.1160 H   0  0  0  0  0  0  0  0  0  0  0  0
   -1.5424   -2.2912    0.9639 C   0  0  0  0  0  0  0  0  0  0  0  0
   -0.5807   -2.9722    1.2842 O   0  0  0  0  0  0  0  0  0  0  0  0
   -1.3606   -1.0085    0.4920 N   0  0  0  0  0  0  0  0  0  0  0  0
   -2.1929   -0.4432    0.3323 H   0  0  0  0  0  0  0  0  0  0  0  0
   -0.0663   -0.3138    0.4261 C   0  0  1  0  0  0  0  0  0  0  0  0
    0.6347   -0.8166    1.0999 H   0  0  0  0  0  0  0  0  0  0  0  0
    0.4984   -0.4260   -1.0147 C   0  0  1  0  0  0  0  0  0  0  0  0
    0.3886   -1.4661   -1.3415 H   0  0  0  0  0  0  0  0  0  0  0  0
   -0.2867    0.4444   -2.0116 C   0  0  0  0  0  0  0  0  0  0  0  0
   -0.1313    1.5094   -1.8128 H   0  0  0  0  0  0  0  0  0  0  0  0
    0.0420    0.2357   -3.0343 H   0  0  0  0  0  0  0  0  0  0  0  0
   -1.3582    0.2319   -1.9505 H   0  0  0  0  0  0  0  0  0  0  0  0
    1.9970   -0.0521   -1.0648 C   0  0  0  0  0  0  0  0  0  0  0  0
    2.2431    0.3558   -2.0510 H   0  0  0  0  0  0  0  0  0  0  0  0
    2.2339    0.7222   -0.3298 H   0  0  0  0  0  0  0  0  0  0  0  0
    2.8819   -1.2791   -0.8365 C   0  0  0  0  0  0  0  0  0  0  0  0
    2.7021   -2.0316   -1.6109 H   0  0  0  0  0  0  0  0  0  0  0  0
    3.9371   -0.9924   -0.8711 H   0  0  0  0  0  0  0  0  0  0  0  0
    2.6760   -1.7276    0.1403 H   0  0  0  0  0  0  0  0  0  0  0  0
   -0.2032    1.1332    0.9505 C   0  0  0  0  0  0  0  0  0  0  0  0
   -1.2152    1.7828    0.7091 O   0  0  0  0  0  0  0  0  0  0  0  0
    0.7373    1.6563    1.8193 N   0  0  0  0  0  0  0  0  0  0  0  0
    1.5253    1.0660    2.0698 H   0  0  0  0  0  0  0  0  0  0  0  0
    0.6079    2.9656    2.4471 C   0  0  0  0  0  0  0  0  0  0  0  0
   -0.3017    3.0113    3.0552 H   0  0  0  0  0  0  0  0  0  0  0  0
    1.4672    3.1601    3.0959 H   0  0  0  0  0  0  0  0  0  0  0  0
    0.5635    3.7524    1.6868 H   0  0  0  0  0  0  0  0  0  0  0  0
  1  2  1  0  0  0  0
  2  3  1  0  0  0  0
  2  4  1  0  0  0  0
  2  5  1  0  0  0  0
  5  6  2  0  0  0  0
  5  7  1  0  0  0  0
  7  8  1  0  0  0  0
  7  9  1  0  0  0  0
  9 10  1  0  0  0  0
  9 11  1  0  0  0  0
  9 24  1  0  0  0  0
 11 12  1  0  0  0  0
 11 13  1  0  0  0  0
 11 17  1  0  0  0  0
 13 14  1  0  0  0  0
 13 15  1  0  0  0  0
 13 16  1  0  0  0  0
 17 18  1  0  0  0  0
 17 19  1  0  0  0  0
 17 20  1  0  0  0  0
 20 21  1  0  0  0  0
 20 22  1  0  0  0  0
 20 23  1  0  0  0  0
 24 25  2  0  0  0  0
 24 26  1  0  0  0  0
 26 27  1  0  0  0  0
 26 28  1  0  0  0  0
 28 29  1  0  0  0  0
 28 30  1  0  0  0  0
 28 31  1  0  0  0  0
M  END
$$$$

  -OEChem-03222214053D

 31 30  0     1  0  0  0  0  0999 V2000
   -2.9138   -3.8635    1.4925 H   0  0  0  0  0  0  0  0  0  0  0  0
   -2.9486   -2.8450    1.0955 C   0  0  0  0  0  0  0  0  0  0  0  0
   -3.5345   -2.2217    1.7752 H   0  0  0  0  0  0  0  0  0  0  0  0
   -3.4360   -2.8644    0.1179 H   0  0  0  0  0  0  0  0  0  0  0  0
   -1.5441   -2.2873    0.9624 C   0  0  0  0  0  0  0  0  0  0  0  0
   -0.5836   -2.9703    1.2822 O   0  0  0  0  0  0  0  0  0  0  0  0
   -1.3593   -1.0051    0.4899 N   0  0  0  0  0  0  0  0  0  0  0  0
   -2.1904   -0.4376    0.3313 H   0  0  0  0  0  0  0  0  0  0  0  0
   -0.0634   -0.3127    0.4252 C   0  0  1  0  0  0  0  0  0  0  0  0
    0.6386   -0.8183    1.0964 H   0  0  0  0  0  0  0  0  0  0  0  0
    0.5011   -0.4220   -1.0152 C   0  0  1  0  0  0  0  0  0  0  0  0
    0.3890   -1.4643   -1.3347 H   0  0  0  0  0  0  0  0  0  0  0  0
   -0.2873    0.4383   -2.0186 C   0  0  0  0  0  0  0  0  0  0  0  0
   -0.1505    1.5053   -1.8170 H   0  0  0  0  0  0  0  0  0  0  0  0
    0.0554    0.2359   -3.0380 H   0  0  0  0  0  0  0  0  0  0  0  0
   -1.3561    0.2094   -1.9685 H   0  0  0  0  0  0  0  0  0  0  0  0
    2.0031   -0.0496   -1.0617 C   0  0  0  0  0  0  0  0  0  0  0  0
    2.2029    0.6072   -1.9150 H   0  0  0  0  0  0  0  0  0  0  0  0
    2.3012    0.4963   -0.1623 H   0  0  0  0  0  0  0  0  0  0  0  0
    2.8761   -1.2968   -1.2088 C   0  0  0  0  0  0  0  0  0  0  0  0
    2.6411   -1.8227   -2.1396 H   0  0  0  0  0  0  0  0  0  0  0  0
    3.9334   -1.0162   -1.2275 H   0  0  0  0  0  0  0  0  0  0  0  0
    2.7120   -1.9798   -0.3690 H   0  0  0  0  0  0  0  0  0  0  0  0
   -0.2000    1.1345    0.9490 C   0  0  0  0  0  0  0  0  0  0  0  0
   -1.2114    1.7846    0.7062 O   0  0  0  0  0  0  0  0  0  0  0  0
    0.7390    1.6578    1.8191 N   0  0  0  0  0  0  0  0  0  0  0  0
    1.5230    1.0652    2.0762 H   0  0  0  0  0  0  0  0  0  0  0  0
    0.6028    2.9625    2.4549 C   0  0  0  0  0  0  0  0  0  0  0  0
   -0.3007    2.9951    3.0730 H   0  0  0  0  0  0  0  0  0  0  0  0
    1.4673    3.1634    3.0951 H   0  0  0  0  0  0  0  0  0  0  0  0
    0.5418    3.7526    1.6989 H   0  0  0  0  0  0  0  0  0  0  0  0
  1  2  1  0  0  0  0
  2  3  1  0  0  0  0
  2  4  1  0  0  0  0
  2  5  1  0  0  0  0
  5  6  2  0  0  0  0
  5  7  1  0  0  0  0
  7  8  1  0  0  0  0
  7  9  1  0  0  0  0
  9 10  1  0  0  0  0
  9 11  1  0  0  0  0
  9 24  1  0  0  0  0
 11 12  1  0  0  0  0
 11 13  1  0  0  0  0
 11 17  1  0  0  0  0
 13 14  1  0  0  0  0
 13 15  1  0  0  0  0
 13 16  1  0  0  0  0
 17 18  1  0  0  0  0
 17 19  1  0  0  0  0
 17 20  1  0  0  0  0
 20 21  1  0  0  0  0
 20 22  1  0  0  0  0
 20 23  1  0  0  0  0
 24 25  2  0  0  0  0
 24 26  1  0  0  0  0
 26 27  1  0  0  0  0
 26 28  1  0  0  0  0
 28 29  1  0  0  0  0
 28 30  1  0  0  0  0
 28 31  1  0  0  0  0
M  END
$$$$

  -OEChem-03222214053D

 31 30  0     1  0  0  0  0  0999 V2000
   -2.9259   -3.8683    1.4853 H   0  0  0  0  0  0  0  0  0  0  0  0
   -2.9593   -2.8502    1.0871 C   0  0  0  0  0  0  0  0  0  0  0  0
   -3.5517   -2.2274    1.7617 H   0  0  0  0  0  0  0  0  0  0  0  0
   -3.4397   -2.8715    0.1060 H   0  0  0  0  0  0  0  0  0  0  0  0
   -1.5546   -2.2905    0.9634 C   0  0  0  0  0  0  0  0  0  0  0  0
   -0.5953   -2.9738    1.2860 O   0  0  0  0  0  0  0  0  0  0  0  0
   -1.3681   -1.0074    0.4935 N   0  0  0  0  0  0  0  0  0  0  0  0
   -2.1990   -0.4412    0.3292 H   0  0  0  0  0  0  0  0  0  0  0  0
   -0.0720   -0.3147    0.4309 C   0  0  1  0  0  0  0  0  0  0  0  0
    0.6267   -0.8250    1.1019 H   0  0  0  0  0  0  0  0  0  0  0  0
    0.4971   -0.4134   -1.0074 C   0  0  1  0  0  0  0  0  0  0  0  0
    0.3948   -1.4610   -1.3124 H   0  0  0  0  0  0  0  0  0  0  0  0
   -0.2930    0.4268   -2.0253 C   0  0  0  0  0  0  0  0  0  0  0  0
   -0.1890    1.4969   -1.8212 H   0  0  0  0  0  0  0  0  0  0  0  0
    0.0759    0.2337   -3.0372 H   0  0  0  0  0  0  0  0  0  0  0  0
   -1.3559    0.1697   -1.9951 H   0  0  0  0  0  0  0  0  0  0  0  0
    1.9996   -0.0387   -1.0488 C   0  0  0  0  0  0  0  0  0  0  0  0
    2.1579    0.8328   -1.6929 H   0  0  0  0  0  0  0  0  0  0  0  0
    2.3599    0.2319   -0.0521 H   0  0  0  0  0  0  0  0  0  0  0  0
    2.8479   -1.2005   -1.5674 C   0  0  0  0  0  0  0  0  0  0  0  0
    2.5428   -1.4745   -2.5821 H   0  0  0  0  0  0  0  0  0  0  0  0
    3.9041   -0.9158   -1.5873 H   0  0  0  0  0  0  0  0  0  0  0  0
    2.7363   -2.0750   -0.9183 H   0  0  0  0  0  0  0  0  0  0  0  0
   -0.1985    1.1326    0.9550 C   0  0  0  0  0  0  0  0  0  0  0  0
   -1.2055    1.7892    0.7121 O   0  0  0  0  0  0  0  0  0  0  0  0
    0.7452    1.6499    1.8238 N   0  0  0  0  0  0  0  0  0  0  0  0
    1.5274    1.0537    2.0780 H   0  0  0  0  0  0  0  0  0  0  0  0
    0.6257    2.9621    2.4474 C   0  0  0  0  0  0  0  0  0  0  0  0
   -0.2832    3.0165    3.0559 H   0  0  0  0  0  0  0  0  0  0  0  0
    1.4869    3.1526    3.0950 H   0  0  0  0  0  0  0  0  0  0  0  0
    0.5869    3.7463    1.6841 H   0  0  0  0  0  0  0  0  0  0  0  0
  1  2  1  0  0  0  0
  2  3  1  0  0  0  0
  2  4  1  0  0  0  0
  2  5  1  0  0  0  0
  5  6  2  0  0  0  0
  5  7  1  0  0  0  0
  7  8  1  0  0  0  0
  7  9  1  0  0  0  0
  9 10  1  0  0  0  0
  9 11  1  0  0  0  0
  9 24  1  0  0  0  0
 11 12  1  0  0  0  0
 11 13  1  0  0  0  0
 11 17  1  0  0  0  0
 13 14  1  0  0  0  0
 13 15  1  0  0  0  0
 13 16  1  0  0  0  0
 17 18  1  0  0  0  0
 17 19  1  0  0  0  0
 17 20  1  0  0  0  0
 20 21  1  0  0  0  0
 20 22  1  0  0  0  0
 20 23  1  0  0  0  0
 24 25  2  0  0  0  0
 24 26  1  0  0  0  0
 26 27  1  0  0  0  0
 26 28  1  0  0  0  0
 28 29  1  0  0  0  0
 28 30  1  0  0  0  0
 28 31  1  0  0  0  0
M  END
$$$$

  -OEChem-03222214053D

 31 30  0     1  0  0  0  0  0999 V2000
   -2.9393   -3.8668    1.4819 H   0  0  0  0  0  0  0  0  0  0  0  0
   -2.9687   -2.8494    1.0821 C   0  0  0  0  0  0  0  0  0  0  0  0
   -3.5631   -2.2242    1.7527 H   0  0  0  0  0  0  0  0  0  0  0  0
   -3.4437   -2.8710    0.0984 H   0  0  0  0  0  0  0  0  0  0  0  0
   -1.5624   -2.2925    0.9650 C   0  0  0  0  0  0  0  0  0  0  0  0
   -0.6053   -2.9780    1.2891 O   0  0  0  0  0  0  0  0  0  0  0  0
   -1.3729   -1.0096    0.4960 N   0  0  0  0  0  0  0  0  0  0  0  0
   -2.2031   -0.4436    0.3278 H   0  0  0  0  0  0  0  0  0  0  0  0
   -0.0771   -0.3167    0.4343 C   0  0  1  0  0  0  0  0  0  0  0  0
    0.6176   -0.8297    1.1072 H   0  0  0  0  0  0  0  0  0  0  0  0
    0.4940   -0.4088   -1.0027 C   0  0  1  0  0  0  0  0  0  0  0  0
    0.4041   -1.4609   -1.2956 H   0  0  0  0  0  0  0  0  0  0  0  0
   -0.2987    0.4157   -2.0307 C   0  0  0  0  0  0  0  0  0  0  0  0
   -0.2103    1.4880   -1.8308 H   0  0  0  0  0  0  0  0  0  0  0  0
    0.0790    0.2226   -3.0393 H   0  0  0  0  0  0  0  0  0  0  0  0
   -1.3584    0.1448   -2.0060 H   0  0  0  0  0  0  0  0  0  0  0  0
    1.9940   -0.0321   -1.0396 C   0  0  0  0  0  0  0  0  0  0  0  0
    2.1218    0.9836   -1.4286 H   0  0  0  0  0  0  0  0  0  0  0  0
    2.4151   -0.0455   -0.0296 H   0  0  0  0  0  0  0  0  0  0  0  0
    2.7992   -1.0165   -1.8897 C   0  0  0  0  0  0  0  0  0  0  0  0
    2.4254   -1.0292   -2.9183 H   0  0  0  0  0  0  0  0  0  0  0  0
    3.8532   -0.7229   -1.9071 H   0  0  0  0  0  0  0  0  0  0  0  0
    2.7286   -2.0281   -1.4774 H   0  0  0  0  0  0  0  0  0  0  0  0
   -0.1963    1.1309    0.9568 C   0  0  0  0  0  0  0  0  0  0  0  0
   -1.1992    1.7931    0.7121 O   0  0  0  0  0  0  0  0  0  0  0  0
    0.7515    1.6431    1.8237 N   0  0  0  0  0  0  0  0  0  0  0  0
    1.5328    1.0442    2.0741 H   0  0  0  0  0  0  0  0  0  0  0  0
    0.6432    2.9583    2.4429 C   0  0  0  0  0  0  0  0  0  0  0  0
   -0.2718    3.0259    3.0409 H   0  0  0  0  0  0  0  0  0  0  0  0
    1.4993    3.1388    3.1000 H   0  0  0  0  0  0  0  0  0  0  0  0
    0.6236    3.7417    1.6778 H   0  0  0  0  0  0  0  0  0  0  0  0
  1  2  1  0  0  0  0
  2  3  1  0  0  0  0
  2  4  1  0  0  0  0
  2  5  1  0  0  0  0
  5  6  2  0  0  0  0
  5  7  1  0  0  0  0
  7  8  1  0  0  0  0
  7  9  1  0  0  0  0
  9 10  1  0  0  0  0
  9 11  1  0  0  0  0
  9 24  1  0  0  0  0
 11 12  1  0  0  0  0
 11 13  1  0  0  0  0
 11 17  1  0  0  0  0
 13 14  1  0  0  0  0
 13 15  1  0  0  0  0
 13 16  1  0  0  0  0
 17 18  1  0  0  0  0
 17 19  1  0  0  0  0
 17 20  1  0  0  0  0
 20 21  1  0  0  0  0
 20 22  1  0  0  0  0
 20 23  1  0  0  0  0
 24 25  2  0  0  0  0
 24 26  1  0  0  0  0
 26 27  1  0  0  0  0
 26 28  1  0  0  0  0
 28 29  1  0  0  0  0
 28 30  1  0  0  0  0
 28 31  1  0  0  0  0
M  END
$$$$

  -OEChem-03222214053D

 31 30  0     1  0  0  0  0  0999 V2000
   -2.9451   -3.8645    1.4887 H   0  0  0  0  0  0  0  0  0  0  0  0
   -2.9729   -2.8473    1.0879 C   0  0  0  0  0  0  0  0  0  0  0  0
   -3.5604   -2.2190    1.7618 H   0  0  0  0  0  0  0  0  0  0  0  0
   -3.4546   -2.8677    0.1075 H   0  0  0  0  0  0  0  0  0  0  0  0
   -1.5655   -2.2954    0.9604 C   0  0  0  0  0  0  0  0  0  0  0  0
   -0.6079   -2.9830    1.2787 O   0  0  0  0  0  0  0  0  0  0  0  0
   -1.3763   -1.0123    0.4921 N   0  0  0  0  0  0  0  0  0  0  0  0
   -2.2066   -0.4442    0.3322 H   0  0  0  0  0  0  0  0  0  0  0  0
   -0.0806   -0.3197    0.4280 C   0  0  1  0  0  0  0  0  0  0  0  0
    0.6136   -0.8325    1.1012 H   0  0  0  0  0  0  0  0  0  0  0  0
    0.4902   -0.4122   -1.0091 C   0  0  1  0  0  0  0  0  0  0  0  0
    0.4075   -1.4645   -1.3039 H   0  0  0  0  0  0  0  0  0  0  0  0
   -0.3046    0.4187   -2.0324 C   0  0  0  0  0  0  0  0  0  0  0  0
   -0.1962    1.4906   -1.8405 H   0  0  0  0  0  0  0  0  0  0  0  0
    0.0512    0.2156   -3.0465 H   0  0  0  0  0  0  0  0  0  0  0  0
   -1.3683    0.1660   -1.9893 H   0  0  0  0  0  0  0  0  0  0  0  0
    1.9876   -0.0337   -1.0339 C   0  0  0  0  0  0  0  0  0  0  0  0
    2.1001    1.0486   -1.1568 H   0  0  0  0  0  0  0  0  0  0  0  0
    2.4581   -0.3063   -0.0840 H   0  0  0  0  0  0  0  0  0  0  0  0
    2.7409   -0.7655   -2.1470 C   0  0  0  0  0  0  0  0  0  0  0  0
    2.3294   -0.5089   -3.1275 H   0  0  0  0  0  0  0  0  0  0  0  0
    3.7976   -0.4821   -2.1320 H   0  0  0  0  0  0  0  0  0  0  0  0
    2.6717   -1.8493   -2.0099 H   0  0  0  0  0  0  0  0  0  0  0  0
   -0.1968    1.1276    0.9516 C   0  0  0  0  0  0  0  0  0  0  0  0
   -1.1998    1.7907    0.7106 O   0  0  0  0  0  0  0  0  0  0  0  0
    0.7544    1.6375    1.8164 N   0  0  0  0  0  0  0  0  0  0  0  0
    1.5373    1.0384    2.0613 H   0  0  0  0  0  0  0  0  0  0  0  0
    0.6494    2.9518    2.4380 C   0  0  0  0  0  0  0  0  0  0  0  0
   -0.2582    3.0173    3.0473 H   0  0  0  0  0  0  0  0  0  0  0  0
    1.5132    3.1339    3.0844 H   0  0  0  0  0  0  0  0  0  0  0  0
    0.6182    3.7351    1.6735 H   0  0  0  0  0  0  0  0  0  0  0  0
  1  2  1  0  0  0  0
  2  3  1  0  0  0  0
  2  4  1  0  0  0  0
  2  5  1  0  0  0  0
  5  6  2  0  0  0  0
  5  7  1  0  0  0  0
  7  8  1  0  0  0  0
  7  9  1  0  0  0  0
  9 10  1  0  0  0  0
  9 11  1  0  0  0  0
  9 24  1  0  0  0  0
 11 12  1  0  0  0  0
 11 13  1  0  0  0  0
 11 17  1  0  0  0  0
 13 14  1  0  0  0  0
 13 15  1  0  0  0  0
 13 16  1  0  0  0  0
 17 18  1  0  0  0  0
 17 19  1  0  0  0  0
 17 20  1  0  0  0  0
 20 21  1  0  0  0  0
 20 22  1  0  0  0  0
 20 23  1  0  0  0  0
 24 25  2  0  0  0  0
 24 26  1  0  0  0  0
 26 27  1  0  0  0  0
 26 28  1  0  0  0  0
 28 29  1  0  0  0  0
 28 30  1  0  0  0  0
 28 31  1  0  0  0  0
M  END
$$$$

  -OEChem-03222214053D

 31 30  0     1  0  0  0  0  0999 V2000
   -2.9412   -3.8655    1.5014 H   0  0  0  0  0  0  0  0  0  0  0  0
   -2.9723   -2.8494    1.0984 C   0  0  0  0  0  0  0  0  0  0  0  0
   -3.5540   -2.2197    1.7761 H   0  0  0  0  0  0  0  0  0  0  0  0
   -3.4627   -2.8720    0.1223 H   0  0  0  0  0  0  0  0  0  0  0  0
   -1.5655   -2.2993    0.9573 C   0  0  0  0  0  0  0  0  0  0  0  0
   -0.6064   -2.9888    1.2669 O   0  0  0  0  0  0  0  0  0  0  0  0
   -1.3782   -1.0161    0.4886 N   0  0  0  0  0  0  0  0  0  0  0  0
   -2.2086   -0.4461    0.3361 H   0  0  0  0  0  0  0  0  0  0  0  0
   -0.0815   -0.3255    0.4198 C   0  0  1  0  0  0  0  0  0  0  0  0
    0.6161   -0.8378    1.0901 H   0  0  0  0  0  0  0  0  0  0  0  0
    0.4843   -0.4178   -1.0199 C   0  0  1  0  0  0  0  0  0  0  0  0
    0.4036   -1.4666   -1.3263 H   0  0  0  0  0  0  0  0  0  0  0  0
   -0.3185    0.4274   -2.0267 C   0  0  0  0  0  0  0  0  0  0  0  0
   -0.1532    1.4966   -1.8613 H   0  0  0  0  0  0  0  0  0  0  0  0
   -0.0220    0.1881   -3.0517 H   0  0  0  0  0  0  0  0  0  0  0  0
   -1.3895    0.2249   -1.9329 H   0  0  0  0  0  0  0  0  0  0  0  0
    1.9813   -0.0399   -1.0324 C   0  0  0  0  0  0  0  0  0  0  0  0
    2.0970    1.0395   -0.8878 H   0  0  0  0  0  0  0  0  0  0  0  0
    2.4888   -0.5430   -0.2028 H   0  0  0  0  0  0  0  0  0  0  0  0
    2.6804   -0.4561   -2.3294 C   0  0  0  0  0  0  0  0  0  0  0  0
    2.2791    0.0948   -3.1847 H   0  0  0  0  0  0  0  0  0  0  0  0
    3.7515   -0.2434   -2.2598 H   0  0  0  0  0  0  0  0  0  0  0  0
    2.5516   -1.5282   -2.5086 H   0  0  0  0  0  0  0  0  0  0  0  0
   -0.1993    1.1213    0.9458 C   0  0  0  0  0  0  0  0  0  0  0  0
   -1.2042    1.7828    0.7082 O   0  0  0  0  0  0  0  0  0  0  0  0
    0.7526    1.6329    1.8088 N   0  0  0  0  0  0  0  0  0  0  0  0
    1.5379    1.0358    2.0511 H   0  0  0  0  0  0  0  0  0  0  0  0
    0.6485    2.9488    2.4275 C   0  0  0  0  0  0  0  0  0  0  0  0
   -0.2540    3.0128    3.0447 H   0  0  0  0  0  0  0  0  0  0  0  0
    1.5175    3.1360    3.0656 H   0  0  0  0  0  0  0  0  0  0  0  0
    0.6076    3.7298    1.6610 H   0  0  0  0  0  0  0  0  0  0  0  0
  1  2  1  0  0  0  0
  2  3  1  0  0  0  0
  2  4  1  0  0  0  0
  2  5  1  0  0  0  0
  5  6  2  0  0  0  0
  5  7  1  0  0  0  0
  7  8  1  0  0  0  0
  7  9  1  0  0  0  0
  9 10  1  0  0  0  0
  9 11  1  0  0  0  0
  9 24  1  0  0  0  0
 11 12  1  0  0  0  0
 11 13  1  0  0  0  0
 11 17  1  0  0  0  0
 13 14  1  0  0  0  0
 13 15  1  0  0  0  0
 13 16  1  0  0  0  0
 17 18  1  0  0  0  0
 17 19  1  0  0  0  0
 17 20  1  0  0  0  0
 20 21  1  0  0  0  0
 20 22  1  0  0  0  0
 20 23  1  0  0  0  0
 24 25  2  0  0  0  0
 24 26  1  0  0  0  0
 26 27  1  0  0  0  0
 26 28  1  0  0  0  0
 28 29  1  0  0  0  0
 28 30  1  0  0  0  0
 28 31  1  0  0  0  0
M  END
$$$$

  -OEChem-03222214053D

 31 30  0     1  0  0  0  0  0999 V2000
   -2.9310   -3.8643    1.4791 H   0  0  0  0  0  0  0  0  0  0  0  0
   -2.9696   -2.8431    1.0895 C   0  0  0  0  0  0  0  0  0  0  0  0
   -3.5441   -2.2235    1.7822 H   0  0  0  0  0  0  0  0  0  0  0  0
   -3.4721   -2.8548    0.1194 H   0  0  0  0  0  0  0  0  0  0  0  0
   -1.5659   -2.2875    0.9391 C   0  0  0  0  0  0  0  0  0  0  0  0
   -0.6019   -2.9775    1.2323 O   0  0  0  0  0  0  0  0  0  0  0  0
   -1.3862   -0.9989    0.4815 N   0  0  0  0  0  0  0  0  0  0  0  0
   -2.2198   -0.4304    0.3413 H   0  0  0  0  0  0  0  0  0  0  0  0
   -0.0926   -0.3030    0.4086 C   0  0  1  0  0  0  0  0  0  0  0  0
    0.5992   -0.8180    1.0828 H   0  0  0  0  0  0  0  0  0  0  0  0
    0.4772   -0.4141   -1.0309 C   0  0  1  0  0  0  0  0  0  0  0  0
    0.1852   -1.3929   -1.4274 H   0  0  0  0  0  0  0  0  0  0  0  0
   -0.1074    0.6497   -1.9779 C   0  0  0  0  0  0  0  0  0  0  0  0
    0.2940    1.6418   -1.7490 H   0  0  0  0  0  0  0  0  0  0  0  0
    0.1302    0.4118   -3.0187 H   0  0  0  0  0  0  0  0  0  0  0  0
   -1.1975    0.6840   -1.8854 H   0  0  0  0  0  0  0  0  0  0  0  0
    2.0207   -0.3978   -0.9838 C   0  0  0  0  0  0  0  0  0  0  0  0
    2.3653    0.5248   -0.5058 H   0  0  0  0  0  0  0  0  0  0  0  0
    2.3661   -1.2395   -0.3739 H   0  0  0  0  0  0  0  0  0  0  0  0
    2.6716   -0.5048   -2.3658 C   0  0  0  0  0  0  0  0  0  0  0  0
    2.4683    0.3871   -2.9655 H   0  0  0  0  0  0  0  0  0  0  0  0
    3.7562   -0.6020   -2.2598 H   0  0  0  0  0  0  0  0  0  0  0  0
    2.2960   -1.3836   -2.8991 H   0  0  0  0  0  0  0  0  0  0  0  0
   -0.1965    1.1404    0.9470 C   0  0  0  0  0  0  0  0  0  0  0  0
   -1.2068    1.8038    0.7392 O   0  0  0  0  0  0  0  0  0  0  0  0
    0.7694    1.6381    1.8025 N   0  0  0  0  0  0  0  0  0  0  0  0
    1.5557    1.0352    2.0264 H   0  0  0  0  0  0  0  0  0  0  0  0
    0.6706    2.9400    2.4509 C   0  0  0  0  0  0  0  0  0  0  0  0
   -0.2111    2.9787    3.0991 H   0  0  0  0  0  0  0  0  0  0  0  0
    1.5584    3.1269    3.0626 H   0  0  0  0  0  0  0  0  0  0  0  0
    0.5933    3.7358    1.7027 H   0  0  0  0  0  0  0  0  0  0  0  0
  1  2  1  0  0  0  0
  2  3  1  0  0  0  0
  2  4  1  0  0  0  0
  2  5  1  0  0  0  0
  5  6  2  0  0  0  0
  5  7  1  0  0  0  0
  7  8  1  0  0  0  0
  7  9  1  0  0  0  0
  9 10  1  0  0  0  0
  9 11  1  0  0  0  0
  9 24  1  0  0  0  0
 11 12  1  0  0  0  0
 11 13  1  0  0  0  0
 11 17  1  0  0  0  0
 13 14  1  0  0  0  0
 13 15  1  0  0  0  0
 13 16  1  0  0  0  0
 17 18  1  0  0  0  0
 17 19  1  0  0  0  0
 17 20  1  0  0  0  0
 20 21  1  0  0  0  0
 20 22  1  0  0  0  0
 20 23  1  0  0  0  0
 24 25  2  0  0  0  0
 24 26  1  0  0  0  0
 26 27  1  0  0  0  0
 26 28  1  0  0  0  0
 28 29  1  0  0  0  0
 28 30  1  0  0  0  0
 28 31  1  0  0  0  0
M  END
$$$$

  -OEChem-03222214053D

 31 30  0     1  0  0  0  0  0999 V2000
   -2.9317   -3.8640    1.4761 H   0  0  0  0  0  0  0  0  0  0  0  0
   -2.9685   -2.8435    1.0849 C   0  0  0  0  0  0  0  0  0  0  0  0
   -3.5451   -2.2224    1.7745 H   0  0  0  0  0  0  0  0  0  0  0  0
   -3.4676   -2.8567    0.1129 H   0  0  0  0  0  0  0  0  0  0  0  0
   -1.5641   -2.2885    0.9386 C   0  0  0  0  0  0  0  0  0  0  0  0
   -0.6007   -2.9795    1.2312 O   0  0  0  0  0  0  0  0  0  0  0  0
   -1.3837   -0.9990    0.4841 N   0  0  0  0  0  0  0  0  0  0  0  0
   -2.2171   -0.4296    0.3458 H   0  0  0  0  0  0  0  0  0  0  0  0
   -0.0897   -0.3040    0.4098 C   0  0  1  0  0  0  0  0  0  0  0  0
    0.6063   -0.8214    1.0782 H   0  0  0  0  0  0  0  0  0  0  0  0
    0.4725   -0.4144   -1.0336 C   0  0  1  0  0  0  0  0  0  0  0  0
    0.1809   -1.3908   -1.4367 H   0  0  0  0  0  0  0  0  0  0  0  0
   -0.1329    0.6508   -1.9687 C   0  0  0  0  0  0  0  0  0  0  0  0
    0.2553    1.6468   -1.7336 H   0  0  0  0  0  0  0  0  0  0  0  0
    0.1010    0.4251   -3.0132 H   0  0  0  0  0  0  0  0  0  0  0  0
   -1.2228    0.6698   -1.8699 H   0  0  0  0  0  0  0  0  0  0  0  0
    2.0192   -0.4008   -0.9906 C   0  0  0  0  0  0  0  0  0  0  0  0
    2.3596    0.3786   -0.3016 H   0  0  0  0  0  0  0  0  0  0  0  0
    2.3667   -1.3629   -0.5995 H   0  0  0  0  0  0  0  0  0  0  0  0
    2.6865   -0.1446   -2.3456 C   0  0  0  0  0  0  0  0  0  0  0  0
    2.4801    0.8697   -2.7003 H   0  0  0  0  0  0  0  0  0  0  0  0
    3.7710   -0.2572   -2.2535 H   0  0  0  0  0  0  0  0  0  0  0  0
    2.3270   -0.8617   -3.0902 H   0  0  0  0  0  0  0  0  0  0  0  0
   -0.1960    1.1377    0.9535 C   0  0  0  0  0  0  0  0  0  0  0  0
   -1.2065    1.8009    0.7454 O   0  0  0  0  0  0  0  0  0  0  0  0
    0.7685    1.6370    1.8096 N   0  0  0  0  0  0  0  0  0  0  0  0
    1.5579    1.0374    2.0316 H   0  0  0  0  0  0  0  0  0  0  0  0
    0.6728    2.9442    2.4477 C   0  0  0  0  0  0  0  0  0  0  0  0
   -0.2176    2.9969    3.0830 H   0  0  0  0  0  0  0  0  0  0  0  0
    1.5533    3.1266    3.0712 H   0  0  0  0  0  0  0  0  0  0  0  0
    0.6146    3.7350    1.6923 H   0  0  0  0  0  0  0  0  0  0  0  0
  1  2  1  0  0  0  0
  2  3  1  0  0  0  0
  2  4  1  0  0  0  0
  2  5  1  0  0  0  0
  5  6  2  0  0  0  0
  5  7  1  0  0  0  0
  7  8  1  0  0  0  0
  7  9  1  0  0  0  0
  9 10  1  0  0  0  0
  9 11  1  0  0  0  0
  9 24  1  0  0  0  0
 11 12  1  0  0  0  0
 11 13  1  0  0  0  0
 11 17  1  0  0  0  0
 13 14  1  0  0  0  0
 13 15  1  0  0  0  0
 13 16  1  0  0  0  0
 17 18  1  0  0  0  0
 17 19  1  0  0  0  0
 17 20  1  0  0  0  0
 20 21  1  0  0  0  0
 20 22  1  0  0  0  0
 20 23  1  0  0  0  0
 24 25  2  0  0  0  0
 24 26  1  0  0  0  0
 26 27  1  0  0  0  0
 26 28  1  0  0  0  0
 28 29  1  0  0  0  0
 28 30  1  0  0  0  0
 28 31  1  0  0  0  0
M  END
$$$$

  -OEChem-03222214053D

 31 30  0     1  0  0  0  0  0999 V2000
   -2.9330   -3.8612    1.4755 H   0  0  0  0  0  0  0  0  0  0  0  0
   -2.9702   -2.8405    1.0846 C   0  0  0  0  0  0  0  0  0  0  0  0
   -3.5462   -2.2197    1.7753 H   0  0  0  0  0  0  0  0  0  0  0  0
   -3.4703   -2.8531    0.1131 H   0  0  0  0  0  0  0  0  0  0  0  0
   -1.5657   -2.2856    0.9368 C   0  0  0  0  0  0  0  0  0  0  0  0
   -0.6023   -2.9778    1.2267 O   0  0  0  0  0  0  0  0  0  0  0  0
   -1.3850   -0.9954    0.4845 N   0  0  0  0  0  0  0  0  0  0  0  0
   -2.2182   -0.4253    0.3483 H   0  0  0  0  0  0  0  0  0  0  0  0
   -0.0905   -0.3012    0.4104 C   0  0  1  0  0  0  0  0  0  0  0  0
    0.6044   -0.8215    1.0778 H   0  0  0  0  0  0  0  0  0  0  0  0
    0.4716   -0.4097   -1.0337 C   0  0  1  0  0  0  0  0  0  0  0  0
    0.1835   -1.3879   -1.4348 H   0  0  0  0  0  0  0  0  0  0  0  0
   -0.1590    0.6436   -1.9674 C   0  0  0  0  0  0  0  0  0  0  0  0
    0.1911    1.6513   -1.7227 H   0  0  0  0  0  0  0  0  0  0  0  0
    0.0914    0.4325   -3.0111 H   0  0  0  0  0  0  0  0  0  0  0  0
   -1.2496    0.6263   -1.8782 H   0  0  0  0  0  0  0  0  0  0  0  0
    2.0235   -0.3979   -0.9991 C   0  0  0  0  0  0  0  0  0  0  0  0
    2.3669    0.1808   -0.1363 H   0  0  0  0  0  0  0  0  0  0  0  0
    2.3758   -1.4258   -0.8609 H   0  0  0  0  0  0  0  0  0  0  0  0
    2.7040    0.2010   -2.2349 C   0  0  0  0  0  0  0  0  0  0  0  0
    2.4712    1.2653   -2.3359 H   0  0  0  0  0  0  0  0  0  0  0  0
    3.7899    0.0987   -2.1466 H   0  0  0  0  0  0  0  0  0  0  0  0
    2.3832   -0.3225   -3.1408 H   0  0  0  0  0  0  0  0  0  0  0  0
   -0.1956    1.1397    0.9569 C   0  0  0  0  0  0  0  0  0  0  0  0
   -1.2074    1.8023    0.7529 O   0  0  0  0  0  0  0  0  0  0  0  0
    0.7694    1.6377    1.8131 N   0  0  0  0  0  0  0  0  0  0  0  0
    1.5601    1.0388    2.0320 H   0  0  0  0  0  0  0  0  0  0  0  0
    0.6748    2.9445    2.4520 C   0  0  0  0  0  0  0  0  0  0  0  0
   -0.2173    2.9985    3.0849 H   0  0  0  0  0  0  0  0  0  0  0  0
    1.5542    3.1243    3.0779 H   0  0  0  0  0  0  0  0  0  0  0  0
    0.6202    3.7359    1.6971 H   0  0  0  0  0  0  0  0  0  0  0  0
  1  2  1  0  0  0  0
  2  3  1  0  0  0  0
  2  4  1  0  0  0  0
  2  5  1  0  0  0  0
  5  6  2  0  0  0  0
  5  7  1  0  0  0  0
  7  8  1  0  0  0  0
  7  9  1  0  0  0  0
  9 10  1  0  0  0  0
  9 11  1  0  0  0  0
  9 24  1  0  0  0  0
 11 12  1  0  0  0  0
 11 13  1  0  0  0  0
 11 17  1  0  0  0  0
 13 14  1  0  0  0  0
 13 15  1  0  0  0  0
 13 16  1  0  0  0  0
 17 18  1  0  0  0  0
 17 19  1  0  0  0  0
 17 20  1  0  0  0  0
 20 21  1  0  0  0  0
 20 22  1  0  0  0  0
 20 23  1  0  0  0  0
 24 25  2  0  0  0  0
 24 26  1  0  0  0  0
 26 27  1  0  0  0  0
 26 28  1  0  0  0  0
 28 29  1  0  0  0  0
 28 30  1  0  0  0  0
 28 31  1  0  0  0  0
M  END
$$$$

  -OEChem-03222214053D

 31 30  0     1  0  0  0  0  0999 V2000
   -2.9388   -3.8598    1.4712 H   0  0  0  0  0  0  0  0  0  0  0  0
   -2.9750   -2.8382    1.0829 C   0  0  0  0  0  0  0  0  0  0  0  0
   -3.5507   -2.2188    1.7749 H   0  0  0  0  0  0  0  0  0  0  0  0
   -3.4744   -2.8478    0.1111 H   0  0  0  0  0  0  0  0  0  0  0  0
   -1.5702   -2.2841    0.9372 C   0  0  0  0  0  0  0  0  0  0  0  0
   -0.6075   -2.9775    1.2265 O   0  0  0  0  0  0  0  0  0  0  0  0
   -1.3884   -0.9937    0.4857 N   0  0  0  0  0  0  0  0  0  0  0  0
   -2.2214   -0.4234    0.3492 H   0  0  0  0  0  0  0  0  0  0  0  0
   -0.0937   -0.2990    0.4153 C   0  0  1  0  0  0  0  0  0  0  0  0
    0.5951   -0.8224    1.0860 H   0  0  0  0  0  0  0  0  0  0  0  0
    0.4755   -0.4007   -1.0265 C   0  0  1  0  0  0  0  0  0  0  0  0
    0.1956   -1.3859   -1.4162 H   0  0  0  0  0  0  0  0  0  0  0  0
   -0.1780    0.6274   -1.9728 C   0  0  0  0  0  0  0  0  0  0  0  0
    0.1238    1.6494   -1.7243 H   0  0  0  0  0  0  0  0  0  0  0  0
    0.0998    0.4243   -3.0111 H   0  0  0  0  0  0  0  0  0  0  0  0
   -1.2684    0.5671   -1.9025 H   0  0  0  0  0  0  0  0  0  0  0  0
    2.0315   -0.3882   -1.0012 C   0  0  0  0  0  0  0  0  0  0  0  0
    2.3857   -0.0675   -0.0168 H   0  0  0  0  0  0  0  0  0  0  0  0
    2.3863   -1.4137   -1.1485 H   0  0  0  0  0  0  0  0  0  0  0  0
    2.7124    0.5162   -2.0350 C   0  0  0  0  0  0  0  0  0  0  0  0
    2.4455    1.5648   -1.8733 H   0  0  0  0  0  0  0  0  0  0  0  0
    3.7992    0.4252   -1.9470 H   0  0  0  0  0  0  0  0  0  0  0  0
    2.4288    0.2262   -3.0512 H   0  0  0  0  0  0  0  0  0  0  0  0
   -0.1953    1.1421    0.9605 C   0  0  0  0  0  0  0  0  0  0  0  0
   -1.2055    1.8069    0.7557 O   0  0  0  0  0  0  0  0  0  0  0  0
    0.7703    1.6370    1.8177 N   0  0  0  0  0  0  0  0  0  0  0  0
    1.5625    1.0382    2.0317 H   0  0  0  0  0  0  0  0  0  0  0  0
    0.6807    2.9448    2.4551 C   0  0  0  0  0  0  0  0  0  0  0  0
   -0.2098    3.0023    3.0899 H   0  0  0  0  0  0  0  0  0  0  0  0
    1.5618    3.1225    3.0789 H   0  0  0  0  0  0  0  0  0  0  0  0
    0.6266    3.7357    1.6997 H   0  0  0  0  0  0  0  0  0  0  0  0
  1  2  1  0  0  0  0
  2  3  1  0  0  0  0
  2  4  1  0  0  0  0
  2  5  1  0  0  0  0
  5  6  2  0  0  0  0
  5  7  1  0  0  0  0
  7  8  1  0  0  0  0
  7  9  1  0  0  0  0
  9 10  1  0  0  0  0
  9 11  1  0  0  0  0
  9 24  1  0  0  0  0
 11 12  1  0  0  0  0
 11 13  1  0  0  0  0
 11 17  1  0  0  0  0
 13 14  1  0  0  0  0
 13 15  1  0  0  0  0
 13 16  1  0  0  0  0
 17 18  1  0  0  0  0
 17 19  1  0  0  0  0
 17 20  1  0  0  0  0
 20 21  1  0  0  0  0
 20 22  1  0  0  0  0
 20 23  1  0  0  0  0
 24 25  2  0  0  0  0
 24 26  1  0  0  0  0
 26 27  1  0  0  0  0
 26 28  1  0  0  0  0
 28 29  1  0  0  0  0
 28 30  1  0  0  0  0
 28 31  1  0  0  0  0
M  END
$$$$

  -OEChem-03222214053D

 31 30  0     1  0  0  0  0  0999 V2000
   -2.9469   -3.8591    1.4695 H   0  0  0  0  0  0  0  0  0  0  0  0
   -2.9812   -2.8370    1.0818 C   0  0  0  0  0  0  0  0  0  0  0  0
   -3.5574   -2.2172    1.7731 H   0  0  0  0  0  0  0  0  0  0  0  0
   -3.4789   -2.8456    0.1091 H   0  0  0  0  0  0  0  0  0  0  0  0
   -1.5757   -2.2837    0.9394 C   0  0  0  0  0  0  0  0  0  0  0  0
   -0.6147   -2.9770    1.2342 O   0  0  0  0  0  0  0  0  0  0  0  0
   -1.3919   -0.9936    0.4873 N   0  0  0  0  0  0  0  0  0  0  0  0
   -2.2245   -0.4237    0.3469 H   0  0  0  0  0  0  0  0  0  0  0  0
   -0.0970   -0.2983    0.4221 C   0  0  1  0  0  0  0  0  0  0  0  0
    0.5841   -0.8229    1.0993 H   0  0  0  0  0  0  0  0  0  0  0  0
    0.4814   -0.3910   -1.0160 C   0  0  1  0  0  0  0  0  0  0  0  0
    0.2116   -1.3856   -1.3891 H   0  0  0  0  0  0  0  0  0  0  0  0
   -0.1811    0.6083   -1.9858 C   0  0  0  0  0  0  0  0  0  0  0  0
    0.0763    1.6426   -1.7393 H   0  0  0  0  0  0  0  0  0  0  0  0
    0.1340    0.4061   -3.0138 H   0  0  0  0  0  0  0  0  0  0  0  0
   -1.2701    0.5097   -1.9435 H   0  0  0  0  0  0  0  0  0  0  0  0
    2.0381   -0.3768   -0.9963 C   0  0  0  0  0  0  0  0  0  0  0  0
    2.4076   -0.3535    0.0332 H   0  0  0  0  0  0  0  0  0  0  0  0
    2.3923   -1.3153   -1.4356 H   0  0  0  0  0  0  0  0  0  0  0  0
    2.7032    0.7764   -1.7564 C   0  0  0  0  0  0  0  0  0  0  0  0
    2.3961    1.7410   -1.3405 H   0  0  0  0  0  0  0  0  0  0  0  0
    3.7912    0.6984   -1.6695 H   0  0  0  0  0  0  0  0  0  0  0  0
    2.4459    0.7461   -2.8193 H   0  0  0  0  0  0  0  0  0  0  0  0
   -0.1939    1.1436    0.9633 C   0  0  0  0  0  0  0  0  0  0  0  0
   -1.1997    1.8132    0.7535 O   0  0  0  0  0  0  0  0  0  0  0  0
    0.7726    1.6341    1.8220 N   0  0  0  0  0  0  0  0  0  0  0  0
    1.5636    1.0330    2.0339 H   0  0  0  0  0  0  0  0  0  0  0  0
    0.6902    2.9435    2.4572 C   0  0  0  0  0  0  0  0  0  0  0  0
   -0.2016    3.0069    3.0895 H   0  0  0  0  0  0  0  0  0  0  0  0
    1.5708    3.1166    3.0832 H   0  0  0  0  0  0  0  0  0  0  0  0
    0.6434    3.7338    1.7007 H   0  0  0  0  0  0  0  0  0  0  0  0
  1  2  1  0  0  0  0
  2  3  1  0  0  0  0
  2  4  1  0  0  0  0
  2  5  1  0  0  0  0
  5  6  2  0  0  0  0
  5  7  1  0  0  0  0
  7  8  1  0  0  0  0
  7  9  1  0  0  0  0
  9 10  1  0  0  0  0
  9 11  1  0  0  0  0
  9 24  1  0  0  0  0
 11 12  1  0  0  0  0
 11 13  1  0  0  0  0
 11 17  1  0  0  0  0
 13 14  1  0  0  0  0
 13 15  1  0  0  0  0
 13 16  1  0  0  0  0
 17 18  1  0  0  0  0
 17 19  1  0  0  0  0
 17 20  1  0  0  0  0
 20 21  1  0  0  0  0
 20 22  1  0  0  0  0
 20 23  1  0  0  0  0
 24 25  2  0  0  0  0
 24 26  1  0  0  0  0
 26 27  1  0  0  0  0
 26 28  1  0  0  0  0
 28 29  1  0  0  0  0
 28 30  1  0  0  0  0
 28 31  1  0  0  0  0
M  END
$$$$

  -OEChem-03222214053D

 31 30  0     1  0  0  0  0  0999 V2000
   -2.9494   -3.8578    1.4669 H   0  0  0  0  0  0  0  0  0  0  0  0
   -2.9824   -2.8354    1.0801 C   0  0  0  0  0  0  0  0  0  0  0  0
   -3.5611   -2.2168    1.7702 H   0  0  0  0  0  0  0  0  0  0  0  0
   -3.4766   -2.8429    0.1056 H   0  0  0  0  0  0  0  0  0  0  0  0
   -1.5763   -2.2823    0.9431 C   0  0  0  0  0  0  0  0  0  0  0  0
   -0.6165   -2.9771    1.2382 O   0  0  0  0  0  0  0  0  0  0  0  0
   -1.3902   -0.9927    0.4910 N   0  0  0  0  0  0  0  0  0  0  0  0
   -2.2217   -0.4222    0.3472 H   0  0  0  0  0  0  0  0  0  0  0  0
   -0.0946   -0.2985    0.4306 C   0  0  1  0  0  0  0  0  0  0  0  0
    0.5847   -0.8216    1.1101 H   0  0  0  0  0  0  0  0  0  0  0  0
    0.4856   -0.3888   -1.0064 C   0  0  1  0  0  0  0  0  0  0  0  0
    0.2173   -1.3874   -1.3698 H   0  0  0  0  0  0  0  0  0  0  0  0
   -0.1664    0.6017   -1.9899 C   0  0  0  0  0  0  0  0  0  0  0  0
    0.0604    1.6398   -1.7295 H   0  0  0  0  0  0  0  0  0  0  0  0
    0.1910    0.4129   -3.0068 H   0  0  0  0  0  0  0  0  0  0  0  0
   -1.2538    0.4795   -1.9841 H   0  0  0  0  0  0  0  0  0  0  0  0
    2.0390   -0.3776   -0.9966 C   0  0  0  0  0  0  0  0  0  0  0  0
    2.4202   -0.6446   -0.0065 H   0  0  0  0  0  0  0  0  0  0  0  0
    2.3863   -1.1547   -1.6854 H   0  0  0  0  0  0  0  0  0  0  0  0
    2.6835    0.9425   -1.4348 C   0  0  0  0  0  0  0  0  0  0  0  0
    2.3399    1.7669   -0.8026 H   0  0  0  0  0  0  0  0  0  0  0  0
    3.7716    0.8708   -1.3455 H   0  0  0  0  0  0  0  0  0  0  0  0
    2.4447    1.1708   -2.4778 H   0  0  0  0  0  0  0  0  0  0  0  0
   -0.1934    1.1432    0.9708 C   0  0  0  0  0  0  0  0  0  0  0  0
   -1.1977    1.8132    0.7555 O   0  0  0  0  0  0  0  0  0  0  0  0
    0.7697    1.6335    1.8333 N   0  0  0  0  0  0  0  0  0  0  0  0
    1.5628    1.0345    2.0428 H   0  0  0  0  0  0  0  0  0  0  0  0
    0.6892    2.9457    2.4627 C   0  0  0  0  0  0  0  0  0  0  0  0
   -0.2071    3.0166    3.0878 H   0  0  0  0  0  0  0  0  0  0  0  0
    1.5658    3.1163    3.0951 H   0  0  0  0  0  0  0  0  0  0  0  0
    0.6526    3.7336    1.7030 H   0  0  0  0  0  0  0  0  0  0  0  0
  1  2  1  0  0  0  0
  2  3  1  0  0  0  0
  2  4  1  0  0  0  0
  2  5  1  0  0  0  0
  5  6  2  0  0  0  0
  5  7  1  0  0  0  0
  7  8  1  0  0  0  0
  7  9  1  0  0  0  0
  9 10  1  0  0  0  0
  9 11  1  0  0  0  0
  9 24  1  0  0  0  0
 11 12  1  0  0  0  0
 11 13  1  0  0  0  0
 11 17  1  0  0  0  0
 13 14  1  0  0  0  0
 13 15  1  0  0  0  0
 13 16  1  0  0  0  0
 17 18  1  0  0  0  0
 17 19  1  0  0  0  0
 17 20  1  0  0  0  0
 20 21  1  0  0  0  0
 20 22  1  0  0  0  0
 20 23  1  0  0  0  0
 24 25  2  0  0  0  0
 24 26  1  0  0  0  0
 26 27  1  0  0  0  0
 26 28  1  0  0  0  0
 28 29  1  0  0  0  0
 28 30  1  0  0  0  0
 28 31  1  0  0  0  0
M  END
$$$$

  -OEChem-03222214053D

 31 30  0     1  0  0  0  0  0999 V2000
   -2.9447   -3.8476    1.4596 H   0  0  0  0  0  0  0  0  0  0  0  0
   -2.9726   -2.8246    1.0741 C   0  0  0  0  0  0  0  0  0  0  0  0
   -3.5577   -2.2060    1.7589 H   0  0  0  0  0  0  0  0  0  0  0  0
   -3.4569   -2.8302    0.0946 H   0  0  0  0  0  0  0  0  0  0  0  0
   -1.5647   -2.2728    0.9517 C   0  0  0  0  0  0  0  0  0  0  0  0
   -0.6079   -2.9675    1.2569 O   0  0  0  0  0  0  0  0  0  0  0  0
   -1.3735   -0.9837    0.5007 N   0  0  0  0  0  0  0  0  0  0  0  0
   -2.2025   -0.4105    0.3525 H   0  0  0  0  0  0  0  0  0  0  0  0
   -0.0755   -0.2938    0.4456 C   0  0  1  0  0  0  0  0  0  0  0  0
    0.6115   -0.8123    1.1214 H   0  0  0  0  0  0  0  0  0  0  0  0
    0.4895   -0.3967   -0.9986 C   0  0  1  0  0  0  0  0  0  0  0  0
    0.2051   -1.3912   -1.3604 H   0  0  0  0  0  0  0  0  0  0  0  0
   -0.1444    0.6088   -1.9769 C   0  0  0  0  0  0  0  0  0  0  0  0
    0.0820    1.6423   -1.6989 H   0  0  0  0  0  0  0  0  0  0  0  0
    0.2298    0.4340   -2.9903 H   0  0  0  0  0  0  0  0  0  0  0  0
   -1.2321    0.4895   -1.9886 H   0  0  0  0  0  0  0  0  0  0  0  0
    2.0385   -0.3992   -1.0255 C   0  0  0  0  0  0  0  0  0  0  0  0
    2.4256   -0.9119   -0.1392 H   0  0  0  0  0  0  0  0  0  0  0  0
    2.3616   -0.9830   -1.8939 H   0  0  0  0  0  0  0  0  0  0  0  0
    2.6918    0.9842   -1.1330 C   0  0  0  0  0  0  0  0  0  0  0  0
    2.3626    1.6386   -0.3226 H   0  0  0  0  0  0  0  0  0  0  0  0
    3.7799    0.8844   -1.0733 H   0  0  0  0  0  0  0  0  0  0  0  0
    2.4491    1.4583   -2.0886 H   0  0  0  0  0  0  0  0  0  0  0  0
   -0.1977    1.1451    0.9909 C   0  0  0  0  0  0  0  0  0  0  0  0
   -1.2050    1.8063    0.7617 O   0  0  0  0  0  0  0  0  0  0  0  0
    0.7487    1.6466    1.8656 N   0  0  0  0  0  0  0  0  0  0  0  0
    1.5435    1.0546    2.0891 H   0  0  0  0  0  0  0  0  0  0  0  0
    0.6417    2.9554    2.4981 C   0  0  0  0  0  0  0  0  0  0  0  0
   -0.2722    3.0178    3.0983 H   0  0  0  0  0  0  0  0  0  0  0  0
    1.4989    3.1291    3.1556 H   0  0  0  0  0  0  0  0  0  0  0  0
    0.6208    3.7458    1.7404 H   0  0  0  0  0  0  0  0  0  0  0  0
  1  2  1  0  0  0  0
  2  3  1  0  0  0  0
  2  4  1  0  0  0  0
  2  5  1  0  0  0  0
  5  6  2  0  0  0  0
  5  7  1  0  0  0  0
  7  8  1  0  0  0  0
  7  9  1  0  0  0  0
  9 10  1  0  0  0  0
  9 11  1  0  0  0  0
  9 24  1  0  0  0  0
 11 12  1  0  0  0  0
 11 13  1  0  0  0  0
 11 17  1  0  0  0  0
 13 14  1  0  0  0  0
 13 15  1  0  0  0  0
 13 16  1  0  0  0  0
 17 18  1  0  0  0  0
 17 19  1  0  0  0  0
 17 20  1  0  0  0  0
 20 21  1  0  0  0  0
 20 22  1  0  0  0  0
 20 23  1  0  0  0  0
 24 25  2  0  0  0  0
 24 26  1  0  0  0  0
 26 27  1  0  0  0  0
 26 28  1  0  0  0  0
 28 29  1  0  0  0  0
 28 30  1  0  0  0  0
 28 31  1  0  0  0  0
M  END
$$$$

  -OEChem-03222214053D

 31 30  0     1  0  0  0  0  0999 V2000
   -2.9460   -3.8291    1.4609 H   0  0  0  0  0  0  0  0  0  0  0  0
   -2.9670   -2.8069    1.0729 C   0  0  0  0  0  0  0  0  0  0  0  0
   -3.5514   -2.1835    1.7541 H   0  0  0  0  0  0  0  0  0  0  0  0
   -3.4474   -2.8121    0.0915 H   0  0  0  0  0  0  0  0  0  0  0  0
   -1.5559   -2.2630    0.9552 C   0  0  0  0  0  0  0  0  0  0  0  0
   -0.6036   -2.9613    1.2663 O   0  0  0  0  0  0  0  0  0  0  0  0
   -1.3557   -0.9759    0.5033 N   0  0  0  0  0  0  0  0  0  0  0  0
   -2.1805   -0.3966    0.3527 H   0  0  0  0  0  0  0  0  0  0  0  0
   -0.0536   -0.2925    0.4617 C   0  0  1  0  0  0  0  0  0  0  0  0
    0.6395   -0.8064    1.1353 H   0  0  0  0  0  0  0  0  0  0  0  0
    0.4996   -0.4068   -0.9889 C   0  0  1  0  0  0  0  0  0  0  0  0
    0.1925   -1.3920   -1.3580 H   0  0  0  0  0  0  0  0  0  0  0  0
   -0.1139    0.6229   -1.9538 C   0  0  0  0  0  0  0  0  0  0  0  0
    0.1319    1.6479   -1.6619 H   0  0  0  0  0  0  0  0  0  0  0  0
    0.2580    0.4561   -2.9692 H   0  0  0  0  0  0  0  0  0  0  0  0
   -1.2037    0.5239   -1.9681 H   0  0  0  0  0  0  0  0  0  0  0  0
    2.0448   -0.4291   -1.0600 C   0  0  0  0  0  0  0  0  0  0  0  0
    2.4248   -1.1538   -0.3323 H   0  0  0  0  0  0  0  0  0  0  0  0
    2.3323   -0.7930   -2.0519 H   0  0  0  0  0  0  0  0  0  0  0  0
    2.7491    0.9135   -0.8349 C   0  0  0  0  0  0  0  0  0  0  0  0
    2.5580    1.2985    0.1667 H   0  0  0  0  0  0  0  0  0  0  0  0
    3.8298    0.7814   -0.9438 H   0  0  0  0  0  0  0  0  0  0  0  0
    2.4257    1.6572   -1.5685 H   0  0  0  0  0  0  0  0  0  0  0  0
   -0.2137    1.1445    1.0099 C   0  0  0  0  0  0  0  0  0  0  0  0
   -1.2275    1.7885    0.7592 O   0  0  0  0  0  0  0  0  0  0  0  0
    0.7005    1.6674    1.9059 N   0  0  0  0  0  0  0  0  0  0  0  0
    1.4980    1.0892    2.1541 H   0  0  0  0  0  0  0  0  0  0  0  0
    0.5547    2.9759    2.5316 C   0  0  0  0  0  0  0  0  0  0  0  0
   -0.3675    3.0193    3.1207 H   0  0  0  0  0  0  0  0  0  0  0  0
    1.3999    3.1725    3.1983 H   0  0  0  0  0  0  0  0  0  0  0  0
    0.5244    3.7628    1.7707 H   0  0  0  0  0  0  0  0  0  0  0  0
  1  2  1  0  0  0  0
  2  3  1  0  0  0  0
  2  4  1  0  0  0  0
  2  5  1  0  0  0  0
  5  6  2  0  0  0  0
  5  7  1  0  0  0  0
  7  8  1  0  0  0  0
  7  9  1  0  0  0  0
  9 10  1  0  0  0  0
  9 11  1  0  0  0  0
  9 24  1  0  0  0  0
 11 12  1  0  0  0  0
 11 13  1  0  0  0  0
 11 17  1  0  0  0  0
 13 14  1  0  0  0  0
 13 15  1  0  0  0  0
 13 16  1  0  0  0  0
 17 18  1  0  0  0  0
 17 19  1  0  0  0  0
 17 20  1  0  0  0  0
 20 21  1  0  0  0  0
 20 22  1  0  0  0  0
 20 23  1  0  0  0  0
 24 25  2  0  0  0  0
 24 26  1  0  0  0  0
 26 27  1  0  0  0  0
 26 28  1  0  0  0  0
 28 29  1  0  0  0  0
 28 30  1  0  0  0  0
 28 31  1  0  0  0  0
M  END
$$$$

  -OEChem-03222214053D

 31 30  0     1  0  0  0  0  0999 V2000
   -2.9590   -3.8215    1.4679 H   0  0  0  0  0  0  0  0  0  0  0  0
   -2.9751   -2.8016    1.0736 C   0  0  0  0  0  0  0  0  0  0  0  0
   -3.5610   -2.1724    1.7479 H   0  0  0  0  0  0  0  0  0  0  0  0
   -3.4503   -2.8113    0.0897 H   0  0  0  0  0  0  0  0  0  0  0  0
   -1.5616   -2.2626    0.9598 C   0  0  0  0  0  0  0  0  0  0  0  0
   -0.6132   -2.9619    1.2800 O   0  0  0  0  0  0  0  0  0  0  0  0
   -1.3549   -0.9787    0.5017 N   0  0  0  0  0  0  0  0  0  0  0  0
   -2.1769   -0.3965    0.3473 H   0  0  0  0  0  0  0  0  0  0  0  0
   -0.0504   -0.2996    0.4668 C   0  0  1  0  0  0  0  0  0  0  0  0
    0.6412   -0.8117    1.1433 H   0  0  0  0  0  0  0  0  0  0  0  0
    0.5065   -0.4159   -0.9824 C   0  0  1  0  0  0  0  0  0  0  0  0
    0.1863   -1.3918   -1.3649 H   0  0  0  0  0  0  0  0  0  0  0  0
   -0.0825    0.6352   -1.9403 C   0  0  0  0  0  0  0  0  0  0  0  0
    0.2159    1.6495   -1.6612 H   0  0  0  0  0  0  0  0  0  0  0  0
    0.2584    0.4475   -2.9630 H   0  0  0  0  0  0  0  0  0  0  0  0
   -1.1758    0.5845   -1.9315 H   0  0  0  0  0  0  0  0  0  0  0  0
    2.0504   -0.4462   -1.0616 C   0  0  0  0  0  0  0  0  0  0  0  0
    2.4124   -1.3349   -0.5339 H   0  0  0  0  0  0  0  0  0  0  0  0
    2.3358   -0.5602   -2.1126 H   0  0  0  0  0  0  0  0  0  0  0  0
    2.7789    0.7780   -0.4999 C   0  0  0  0  0  0  0  0  0  0  0  0
    2.7246    0.7929    0.5899 H   0  0  0  0  0  0  0  0  0  0  0  0
    3.8360    0.7357   -0.7795 H   0  0  0  0  0  0  0  0  0  0  0  0
    2.3598    1.7078   -0.8939 H   0  0  0  0  0  0  0  0  0  0  0  0
   -0.2213    1.1409    1.0073 C   0  0  0  0  0  0  0  0  0  0  0  0
   -1.2354    1.7793    0.7426 O   0  0  0  0  0  0  0  0  0  0  0  0
    0.6779    1.6772    1.9105 N   0  0  0  0  0  0  0  0  0  0  0  0
    1.4760    1.1065    2.1736 H   0  0  0  0  0  0  0  0  0  0  0  0
    0.5157    2.9895    2.5243 C   0  0  0  0  0  0  0  0  0  0  0  0
   -0.4147    3.0314    3.1004 H   0  0  0  0  0  0  0  0  0  0  0  0
    1.3505    3.1963    3.2010 H   0  0  0  0  0  0  0  0  0  0  0  0
    0.4910    3.7704    1.7570 H   0  0  0  0  0  0  0  0  0  0  0  0
  1  2  1  0  0  0  0
  2  3  1  0  0  0  0
  2  4  1  0  0  0  0
  2  5  1  0  0  0  0
  5  6  2  0  0  0  0
  5  7  1  0  0  0  0
  7  8  1  0  0  0  0
  7  9  1  0  0  0  0
  9 10  1  0  0  0  0
  9 11  1  0  0  0  0
  9 24  1  0  0  0  0
 11 12  1  0  0  0  0
 11 13  1  0  0  0  0
 11 17  1  0  0  0  0
 13 14  1  0  0  0  0
 13 15  1  0  0  0  0
 13 16  1  0  0  0  0
 17 18  1  0  0  0  0
 17 19  1  0  0  0  0
 17 20  1  0  0  0  0
 20 21  1  0  0  0  0
 20 22  1  0  0  0  0
 20 23  1  0  0  0  0
 24 25  2  0  0  0  0
 24 26  1  0  0  0  0
 26 27  1  0  0  0  0
 26 28  1  0  0  0  0
 28 29  1  0  0  0  0
 28 30  1  0  0  0  0
 28 31  1  0  0  0  0
M  END
$$$$

  -OEChem-03222214053D

 31 30  0     1  0  0  0  0  0999 V2000
   -2.9678   -3.8249    1.4683 H   0  0  0  0  0  0  0  0  0  0  0  0
   -2.9823   -2.8046    1.0747 C   0  0  0  0  0  0  0  0  0  0  0  0
   -3.5713   -2.1759    1.7469 H   0  0  0  0  0  0  0  0  0  0  0  0
   -3.4534   -2.8141    0.0888 H   0  0  0  0  0  0  0  0  0  0  0  0
   -1.5686   -2.2649    0.9677 C   0  0  0  0  0  0  0  0  0  0  0  0
   -0.6222   -2.9616    1.2993 O   0  0  0  0  0  0  0  0  0  0  0  0
   -1.3600   -0.9827    0.5056 N   0  0  0  0  0  0  0  0  0  0  0  0
   -2.1815   -0.4022    0.3422 H   0  0  0  0  0  0  0  0  0  0  0  0
   -0.0557   -0.3032    0.4722 C   0  0  1  0  0  0  0  0  0  0  0  0
    0.6307   -0.8148    1.1544 H   0  0  0  0  0  0  0  0  0  0  0  0
    0.5091   -0.4289   -0.9757 C   0  0  1  0  0  0  0  0  0  0  0  0
    0.1725   -1.3938   -1.3719 H   0  0  0  0  0  0  0  0  0  0  0  0
   -0.0511    0.6502   -1.9194 C   0  0  0  0  0  0  0  0  0  0  0  0
    0.3192    1.6442   -1.6507 H   0  0  0  0  0  0  0  0  0  0  0  0
    0.2457    0.4424   -2.9520 H   0  0  0  0  0  0  0  0  0  0  0  0
   -1.1447    0.6635   -1.8783 H   0  0  0  0  0  0  0  0  0  0  0  0
    2.0540   -0.4606   -1.0692 C   0  0  0  0  0  0  0  0  0  0  0  0
    2.3950   -1.4539   -0.7588 H   0  0  0  0  0  0  0  0  0  0  0  0
    2.3492   -0.3353   -2.1163 H   0  0  0  0  0  0  0  0  0  0  0  0
    2.8003    0.5730   -0.2233 C   0  0  0  0  0  0  0  0  0  0  0  0
    2.7133    0.3397    0.8406 H   0  0  0  0  0  0  0  0  0  0  0  0
    3.8635    0.5619   -0.4819 H   0  0  0  0  0  0  0  0  0  0  0  0
    2.4135    1.5797   -0.4072 H   0  0  0  0  0  0  0  0  0  0  0  0
   -0.2315    1.1398    1.0077 C   0  0  0  0  0  0  0  0  0  0  0  0
   -1.2471    1.7742    0.7388 O   0  0  0  0  0  0  0  0  0  0  0  0
    0.6632    1.6819    1.9122 N   0  0  0  0  0  0  0  0  0  0  0  0
    1.4607    1.1136    2.1813 H   0  0  0  0  0  0  0  0  0  0  0  0
    0.4936    2.9944    2.5236 C   0  0  0  0  0  0  0  0  0  0  0  0
   -0.4371    3.0326    3.0997 H   0  0  0  0  0  0  0  0  0  0  0  0
    1.3272    3.2073    3.1997 H   0  0  0  0  0  0  0  0  0  0  0  0
    0.4647    3.7736    1.7548 H   0  0  0  0  0  0  0  0  0  0  0  0
  1  2  1  0  0  0  0
  2  3  1  0  0  0  0
  2  4  1  0  0  0  0
  2  5  1  0  0  0  0
  5  6  2  0  0  0  0
  5  7  1  0  0  0  0
  7  8  1  0  0  0  0
  7  9  1  0  0  0  0
  9 10  1  0  0  0  0
  9 11  1  0  0  0  0
  9 24  1  0  0  0  0
 11 12  1  0  0  0  0
 11 13  1  0  0  0  0
 11 17  1  0  0  0  0
 13 14  1  0  0  0  0
 13 15  1  0  0  0  0
 13 16  1  0  0  0  0
 17 18  1  0  0  0  0
 17 19  1  0  0  0  0
 17 20  1  0  0  0  0
 20 21  1  0  0  0  0
 20 22  1  0  0  0  0
 20 23  1  0  0  0  0
 24 25  2  0  0  0  0
 24 26  1  0  0  0  0
 26 27  1  0  0  0  0
 26 28  1  0  0  0  0
 28 29  1  0  0  0  0
 28 30  1  0  0  0  0
 28 31  1  0  0  0  0
M  END
$$$$

  -OEChem-03222214053D

 31 30  0     1  0  0  0  0  0999 V2000
   -2.9815   -3.8286    1.4621 H   0  0  0  0  0  0  0  0  0  0  0  0
   -2.9956   -2.8085    1.0683 C   0  0  0  0  0  0  0  0  0  0  0  0
   -3.5868   -2.1800    1.7388 H   0  0  0  0  0  0  0  0  0  0  0  0
   -3.4641   -2.8178    0.0812 H   0  0  0  0  0  0  0  0  0  0  0  0
   -1.5818   -2.2685    0.9645 C   0  0  0  0  0  0  0  0  0  0  0  0
   -0.6355   -2.9658    1.2953 O   0  0  0  0  0  0  0  0  0  0  0  0
   -1.3741   -0.9856    0.5039 N   0  0  0  0  0  0  0  0  0  0  0  0
   -2.1970   -0.4074    0.3393 H   0  0  0  0  0  0  0  0  0  0  0  0
   -0.0729   -0.2994    0.4789 C   0  0  1  0  0  0  0  0  0  0  0  0
    0.5965   -0.8140    1.1739 H   0  0  0  0  0  0  0  0  0  0  0  0
    0.5139   -0.4360   -0.9600 C   0  0  1  0  0  0  0  0  0  0  0  0
    0.1782   -1.4021   -1.3541 H   0  0  0  0  0  0  0  0  0  0  0  0
   -0.0460    0.6397   -1.9073 C   0  0  0  0  0  0  0  0  0  0  0  0
    0.3402    1.6306   -1.6484 H   0  0  0  0  0  0  0  0  0  0  0  0
    0.2376    0.4208   -2.9414 H   0  0  0  0  0  0  0  0  0  0  0  0
   -1.1391    0.6655   -1.8557 H   0  0  0  0  0  0  0  0  0  0  0  0
    2.0627   -0.4604   -1.0648 C   0  0  0  0  0  0  0  0  0  0  0  0
    2.3821   -1.5056   -0.9949 H   0  0  0  0  0  0  0  0  0  0  0  0
    2.3683   -0.1029   -2.0536 H   0  0  0  0  0  0  0  0  0  0  0  0
    2.8419    0.3186   -0.0019 C   0  0  0  0  0  0  0  0  0  0  0  0
    2.6826   -0.0966    0.9965 H   0  0  0  0  0  0  0  0  0  0  0  0
    3.9131    0.2625   -0.2186 H   0  0  0  0  0  0  0  0  0  0  0  0
    2.5494    1.3726   -0.0110 H   0  0  0  0  0  0  0  0  0  0  0  0
   -0.2440    1.1447    1.0100 C   0  0  0  0  0  0  0  0  0  0  0  0
   -1.2591    1.7801    0.7429 O   0  0  0  0  0  0  0  0  0  0  0  0
    0.6519    1.6819    1.9163 N   0  0  0  0  0  0  0  0  0  0  0  0
    1.4536    1.1149    2.1760 H   0  0  0  0  0  0  0  0  0  0  0  0
    0.4872    2.9942    2.5291 C   0  0  0  0  0  0  0  0  0  0  0  0
   -0.4410    3.0333    3.1090 H   0  0  0  0  0  0  0  0  0  0  0  0
    1.3238    3.2048    3.2021 H   0  0  0  0  0  0  0  0  0  0  0  0
    0.4564    3.7741    1.7610 H   0  0  0  0  0  0  0  0  0  0  0  0
  1  2  1  0  0  0  0
  2  3  1  0  0  0  0
  2  4  1  0  0  0  0
  2  5  1  0  0  0  0
  5  6  2  0  0  0  0
  5  7  1  0  0  0  0
  7  8  1  0  0  0  0
  7  9  1  0  0  0  0
  9 10  1  0  0  0  0
  9 11  1  0  0  0  0
  9 24  1  0  0  0  0
 11 12  1  0  0  0  0
 11 13  1  0  0  0  0
 11 17  1  0  0  0  0
 13 14  1  0  0  0  0
 13 15  1  0  0  0  0
 13 16  1  0  0  0  0
 17 18  1  0  0  0  0
 17 19  1  0  0  0  0
 17 20  1  0  0  0  0
 20 21  1  0  0  0  0
 20 22  1  0  0  0  0
 20 23  1  0  0  0  0
 24 25  2  0  0  0  0
 24 26  1  0  0  0  0
 26 27  1  0  0  0  0
 26 28  1  0  0  0  0
 28 29  1  0  0  0  0
 28 30  1  0  0  0  0
 28 31  1  0  0  0  0
M  END
$$$$

  -OEChem-03222214053D

 31 30  0     1  0  0  0  0  0999 V2000
   -3.0019   -3.8358    1.4428 H   0  0  0  0  0  0  0  0  0  0  0  0
   -3.0123   -2.8165    1.0467 C   0  0  0  0  0  0  0  0  0  0  0  0
   -3.6199   -2.1894    1.7036 H   0  0  0  0  0  0  0  0  0  0  0  0
   -3.4601   -2.8304    0.0501 H   0  0  0  0  0  0  0  0  0  0  0  0
   -1.5994   -2.2697    0.9706 C   0  0  0  0  0  0  0  0  0  0  0  0
   -0.6569   -2.9627    1.3209 O   0  0  0  0  0  0  0  0  0  0  0  0
   -1.3885   -0.9868    0.5100 N   0  0  0  0  0  0  0  0  0  0  0  0
   -2.2105   -0.4141    0.3242 H   0  0  0  0  0  0  0  0  0  0  0  0
   -0.0881   -0.2976    0.4962 C   0  0  1  0  0  0  0  0  0  0  0  0
    0.5639   -0.8126    1.2047 H   0  0  0  0  0  0  0  0  0  0  0  0
    0.5160   -0.4332   -0.9368 C   0  0  1  0  0  0  0  0  0  0  0  0
    0.1882   -1.4067   -1.3189 H   0  0  0  0  0  0  0  0  0  0  0  0
   -0.0595    0.6204   -1.8996 C   0  0  0  0  0  0  0  0  0  0  0  0
    0.3094    1.6209   -1.6525 H   0  0  0  0  0  0  0  0  0  0  0  0
    0.2312    0.3917   -2.9296 H   0  0  0  0  0  0  0  0  0  0  0  0
   -1.1529    0.6292   -1.8517 H   0  0  0  0  0  0  0  0  0  0  0  0
    2.0686   -0.4550   -1.0551 C   0  0  0  0  0  0  0  0  0  0  0  0
    2.3668   -1.4873   -1.2668 H   0  0  0  0  0  0  0  0  0  0  0  0
    2.3797    0.1435   -1.9180 H   0  0  0  0  0  0  0  0  0  0  0  0
    2.8848    0.0057    0.1563 C   0  0  0  0  0  0  0  0  0  0  0  0
    2.6918   -0.6168    1.0339 H   0  0  0  0  0  0  0  0  0  0  0  0
    3.9518   -0.0691   -0.0743 H   0  0  0  0  0  0  0  0  0  0  0  0
    2.6662    1.0504    0.3894 H   0  0  0  0  0  0  0  0  0  0  0  0
   -0.2522    1.1484    1.0207 C   0  0  0  0  0  0  0  0  0  0  0  0
   -1.2576    1.7936    0.7410 O   0  0  0  0  0  0  0  0  0  0  0  0
    0.6438    1.6786    1.9305 N   0  0  0  0  0  0  0  0  0  0  0  0
    1.4398    1.1048    2.1935 H   0  0  0  0  0  0  0  0  0  0  0  0
    0.5018    3.0032    2.5215 C   0  0  0  0  0  0  0  0  0  0  0  0
   -0.4449    3.0810    3.0663 H   0  0  0  0  0  0  0  0  0  0  0  0
    1.3200    3.1940    3.2225 H   0  0  0  0  0  0  0  0  0  0  0  0
    0.5257    3.7735    1.7436 H   0  0  0  0  0  0  0  0  0  0  0  0
  1  2  1  0  0  0  0
  2  3  1  0  0  0  0
  2  4  1  0  0  0  0
  2  5  1  0  0  0  0
  5  6  2  0  0  0  0
  5  7  1  0  0  0  0
  7  8  1  0  0  0  0
  7  9  1  0  0  0  0
  9 10  1  0  0  0  0
  9 11  1  0  0  0  0
  9 24  1  0  0  0  0
 11 12  1  0  0  0  0
 11 13  1  0  0  0  0
 11 17  1  0  0  0  0
 13 14  1  0  0  0  0
 13 15  1  0  0  0  0
 13 16  1  0  0  0  0
 17 18  1  0  0  0  0
 17 19  1  0  0  0  0
 17 20  1  0  0  0  0
 20 21  1  0  0  0  0
 20 22  1  0  0  0  0
 20 23  1  0  0  0  0
 24 25  2  0  0  0  0
 24 26  1  0  0  0  0
 26 27  1  0  0  0  0
 26 28  1  0  0  0  0
 28 29  1  0  0  0  0
 28 30  1  0  0  0  0
 28 31  1  0  0  0  0
M  END
$$$$

  -OEChem-03222214053D

 31 30  0     1  0  0  0  0  0999 V2000
   -3.0273   -3.8081    1.4549 H   0  0  0  0  0  0  0  0  0  0  0  0
   -3.0287   -2.7902    1.0554 C   0  0  0  0  0  0  0  0  0  0  0  0
   -3.6314   -2.1557    1.7098 H   0  0  0  0  0  0  0  0  0  0  0  0
   -3.4757   -2.8033    0.0585 H   0  0  0  0  0  0  0  0  0  0  0  0
   -1.6110   -2.2558    0.9789 C   0  0  0  0  0  0  0  0  0  0  0  0
   -0.6753   -2.9530    1.3390 O   0  0  0  0  0  0  0  0  0  0  0  0
   -1.3880   -0.9788    0.5082 N   0  0  0  0  0  0  0  0  0  0  0  0
   -2.2049   -0.4003    0.3176 H   0  0  0  0  0  0  0  0  0  0  0  0
   -0.0827   -0.2989    0.4969 C   0  0  1  0  0  0  0  0  0  0  0  0
    0.5600   -0.8110    1.2153 H   0  0  0  0  0  0  0  0  0  0  0  0
    0.5283   -0.4311   -0.9337 C   0  0  1  0  0  0  0  0  0  0  0  0
    0.2064   -1.4139   -1.2966 H   0  0  0  0  0  0  0  0  0  0  0  0
   -0.0555    0.5975   -1.9177 C   0  0  0  0  0  0  0  0  0  0  0  0
    0.2879    1.6090   -1.6790 H   0  0  0  0  0  0  0  0  0  0  0  0
    0.2554    0.3614   -2.9402 H   0  0  0  0  0  0  0  0  0  0  0  0
   -1.1493    0.5834   -1.8840 H   0  0  0  0  0  0  0  0  0  0  0  0
    2.0810   -0.4626   -1.0575 C   0  0  0  0  0  0  0  0  0  0  0  0
    2.3599   -1.3952   -1.5596 H   0  0  0  0  0  0  0  0  0  0  0  0
    2.4063    0.3549   -1.7097 H   0  0  0  0  0  0  0  0  0  0  0  0
    2.9040   -0.3631    0.2302 C   0  0  0  0  0  0  0  0  0  0  0  0
    2.6784   -1.1927    0.9065 H   0  0  0  0  0  0  0  0  0  0  0  0
    3.9699   -0.4114   -0.0127 H   0  0  0  0  0  0  0  0  0  0  0  0
    2.7195    0.5851    0.7381 H   0  0  0  0  0  0  0  0  0  0  0  0
   -0.2396    1.1525    1.0071 C   0  0  0  0  0  0  0  0  0  0  0  0
   -1.2423    1.7986    0.7197 O   0  0  0  0  0  0  0  0  0  0  0  0
    0.6537    1.6856    1.9178 N   0  0  0  0  0  0  0  0  0  0  0  0
    1.4335    1.1018    2.2062 H   0  0  0  0  0  0  0  0  0  0  0  0
    0.4899    2.9984    2.5301 C   0  0  0  0  0  0  0  0  0  0  0  0
   -0.4496    3.0454    3.0909 H   0  0  0  0  0  0  0  0  0  0  0  0
    1.3149    3.1991    3.2204 H   0  0  0  0  0  0  0  0  0  0  0  0
    0.4825    3.7804    1.7636 H   0  0  0  0  0  0  0  0  0  0  0  0
  1  2  1  0  0  0  0
  2  3  1  0  0  0  0
  2  4  1  0  0  0  0
  2  5  1  0  0  0  0
  5  6  2  0  0  0  0
  5  7  1  0  0  0  0
  7  8  1  0  0  0  0
  7  9  1  0  0  0  0
  9 10  1  0  0  0  0
  9 11  1  0  0  0  0
  9 24  1  0  0  0  0
 11 12  1  0  0  0  0
 11 13  1  0  0  0  0
 11 17  1  0  0  0  0
 13 14  1  0  0  0  0
 13 15  1  0  0  0  0
 13 16  1  0  0  0  0
 17 18  1  0  0  0  0
 17 19  1  0  0  0  0
 17 20  1  0  0  0  0
 20 21  1  0  0  0  0
 20 22  1  0  0  0  0
 20 23  1  0  0  0  0
 24 25  2  0  0  0  0
 24 26  1  0  0  0  0
 26 27  1  0  0  0  0
 26 28  1  0  0  0  0
 28 29  1  0  0  0  0
 28 30  1  0  0  0  0
 28 31  1  0  0  0  0
M  END
$$$$

  -OEChem-03222214053D

 31 30  0     1  0  0  0  0  0999 V2000
   -3.0269   -3.8206    1.4581 H   0  0  0  0  0  0  0  0  0  0  0  0
   -3.0328   -2.8030    1.0576 C   0  0  0  0  0  0  0  0  0  0  0  0
   -3.6344   -2.1694    1.7139 H   0  0  0  0  0  0  0  0  0  0  0  0
   -3.4847   -2.8183    0.0629 H   0  0  0  0  0  0  0  0  0  0  0  0
   -1.6168   -2.2651    0.9745 C   0  0  0  0  0  0  0  0  0  0  0  0
   -0.6778   -2.9611    1.3283 O   0  0  0  0  0  0  0  0  0  0  0  0
   -1.3995   -0.9869    0.5045 N   0  0  0  0  0  0  0  0  0  0  0  0
   -2.2189   -0.4114    0.3170 H   0  0  0  0  0  0  0  0  0  0  0  0
   -0.0968   -0.3033    0.4891 C   0  0  1  0  0  0  0  0  0  0  0  0
    0.5404   -0.8171    1.2110 H   0  0  0  0  0  0  0  0  0  0  0  0
    0.5230   -0.4245   -0.9364 C   0  0  1  0  0  0  0  0  0  0  0  0
    0.2165   -1.4141   -1.2937 H   0  0  0  0  0  0  0  0  0  0  0  0
   -0.0598    0.5925   -1.9318 C   0  0  0  0  0  0  0  0  0  0  0  0
    0.2610    1.6103   -1.6888 H   0  0  0  0  0  0  0  0  0  0  0  0
    0.2748    0.3604   -2.9475 H   0  0  0  0  0  0  0  0  0  0  0  0
   -1.1536    0.5598   -1.9166 H   0  0  0  0  0  0  0  0  0  0  0  0
    2.0746   -0.4441   -1.0407 C   0  0  0  0  0  0  0  0  0  0  0  0
    2.3586   -1.2029   -1.7776 H   0  0  0  0  0  0  0  0  0  0  0  0
    2.4141    0.5214   -1.4302 H   0  0  0  0  0  0  0  0  0  0  0  0
    2.8628   -0.7018    0.2473 C   0  0  0  0  0  0  0  0  0  0  0  0
    2.5725   -1.6593    0.6913 H   0  0  0  0  0  0  0  0  0  0  0  0
    3.9329   -0.7422    0.0226 H   0  0  0  0  0  0  0  0  0  0  0  0
    2.7020    0.0976    0.9740 H   0  0  0  0  0  0  0  0  0  0  0  0
   -0.2314    1.1490    0.9975 C   0  0  0  0  0  0  0  0  0  0  0  0
   -1.2285    1.8070    0.7187 O   0  0  0  0  0  0  0  0  0  0  0  0
    0.6796    1.6681    1.8987 N   0  0  0  0  0  0  0  0  0  0  0  0
    1.4537    1.0731    2.1787 H   0  0  0  0  0  0  0  0  0  0  0  0
    0.5471    2.9867    2.5054 C   0  0  0  0  0  0  0  0  0  0  0  0
   -0.3823    3.0524    3.0807 H   0  0  0  0  0  0  0  0  0  0  0  0
    1.3864    3.1776    3.1810 H   0  0  0  0  0  0  0  0  0  0  0  0
    0.5403    3.7642    1.7342 H   0  0  0  0  0  0  0  0  0  0  0  0
  1  2  1  0  0  0  0
  2  3  1  0  0  0  0
  2  4  1  0  0  0  0
  2  5  1  0  0  0  0
  5  6  2  0  0  0  0
  5  7  1  0  0  0  0
  7  8  1  0  0  0  0
  7  9  1  0  0  0  0
  9 10  1  0  0  0  0
  9 11  1  0  0  0  0
  9 24  1  0  0  0  0
 11 12  1  0  0  0  0
 11 13  1  0  0  0  0
 11 17  1  0  0  0  0
 13 14  1  0  0  0  0
 13 15  1  0  0  0  0
 13 16  1  0  0  0  0
 17 18  1  0  0  0  0
 17 19  1  0  0  0  0
 17 20  1  0  0  0  0
 20 21  1  0  0  0  0
 20 22  1  0  0  0  0
 20 23  1  0  0  0  0
 24 25  2  0  0  0  0
 24 26  1  0  0  0  0
 26 27  1  0  0  0  0
 26 28  1  0  0  0  0
 28 29  1  0  0  0  0
 28 30  1  0  0  0  0
 28 31  1  0  0  0  0
M  END
$$$$

  -OEChem-03222214053D

 31 30  0     1  0  0  0  0  0999 V2000
   -3.0127   -3.8446    1.4524 H   0  0  0  0  0  0  0  0  0  0  0  0
   -3.0265   -2.8252    1.0566 C   0  0  0  0  0  0  0  0  0  0  0  0
   -3.6278   -2.1981    1.7192 H   0  0  0  0  0  0  0  0  0  0  0  0
   -3.4832   -2.8384    0.0641 H   0  0  0  0  0  0  0  0  0  0  0  0
   -1.6142   -2.2782    0.9682 C   0  0  0  0  0  0  0  0  0  0  0  0
   -0.6693   -2.9690    1.3163 O   0  0  0  0  0  0  0  0  0  0  0  0
   -1.4077   -0.9966    0.5018 N   0  0  0  0  0  0  0  0  0  0  0  0
   -2.2322   -0.4291    0.3125 H   0  0  0  0  0  0  0  0  0  0  0  0
   -0.1096   -0.3042    0.4767 C   0  0  1  0  0  0  0  0  0  0  0  0
    0.5276   -0.8180    1.1975 H   0  0  0  0  0  0  0  0  0  0  0  0
    0.5129   -0.4227   -0.9465 C   0  0  1  0  0  0  0  0  0  0  0  0
    0.2165   -1.4137   -1.3089 H   0  0  0  0  0  0  0  0  0  0  0  0
   -0.0605    0.5977   -1.9429 C   0  0  0  0  0  0  0  0  0  0  0  0
    0.2595    1.6147   -1.6954 H   0  0  0  0  0  0  0  0  0  0  0  0
    0.2814    0.3684   -2.9568 H   0  0  0  0  0  0  0  0  0  0  0  0
   -1.1544    0.5659   -1.9357 H   0  0  0  0  0  0  0  0  0  0  0  0
    2.0619   -0.4255   -1.0260 C   0  0  0  0  0  0  0  0  0  0  0  0
    2.3566   -0.9790   -1.9238 H   0  0  0  0  0  0  0  0  0  0  0  0
    2.4118    0.6046   -1.1515 H   0  0  0  0  0  0  0  0  0  0  0  0
    2.8080   -1.0137    0.1757 C   0  0  0  0  0  0  0  0  0  0  0  0
    2.4287   -2.0136    0.4106 H   0  0  0  0  0  0  0  0  0  0  0  0
    3.8744   -1.0962   -0.0551 H   0  0  0  0  0  0  0  0  0  0  0  0
    2.7039   -0.3733    1.0559 H   0  0  0  0  0  0  0  0  0  0  0  0
   -0.2253    1.1469    0.9884 C   0  0  0  0  0  0  0  0  0  0  0  0
   -1.2195    1.8147    0.7248 O   0  0  0  0  0  0  0  0  0  0  0  0
    0.7065    1.6514    1.8766 N   0  0  0  0  0  0  0  0  0  0  0  0
    1.4842    1.0506    2.1334 H   0  0  0  0  0  0  0  0  0  0  0  0
    0.6013    2.9709    2.4872 C   0  0  0  0  0  0  0  0  0  0  0  0
   -0.3213    3.0505    3.0718 H   0  0  0  0  0  0  0  0  0  0  0  0
    1.4498    3.1472    3.1553 H   0  0  0  0  0  0  0  0  0  0  0  0
    0.5994    3.7500    1.7178 H   0  0  0  0  0  0  0  0  0  0  0  0
  1  2  1  0  0  0  0
  2  3  1  0  0  0  0
  2  4  1  0  0  0  0
  2  5  1  0  0  0  0
  5  6  2  0  0  0  0
  5  7  1  0  0  0  0
  7  8  1  0  0  0  0
  7  9  1  0  0  0  0
  9 10  1  0  0  0  0
  9 11  1  0  0  0  0
  9 24  1  0  0  0  0
 11 12  1  0  0  0  0
 11 13  1  0  0  0  0
 11 17  1  0  0  0  0
 13 14  1  0  0  0  0
 13 15  1  0  0  0  0
 13 16  1  0  0  0  0
 17 18  1  0  0  0  0
 17 19  1  0  0  0  0
 17 20  1  0  0  0  0
 20 21  1  0  0  0  0
 20 22  1  0  0  0  0
 20 23  1  0  0  0  0
 24 25  2  0  0  0  0
 24 26  1  0  0  0  0
 26 27  1  0  0  0  0
 26 28  1  0  0  0  0
 28 29  1  0  0  0  0
 28 30  1  0  0  0  0
 28 31  1  0  0  0  0
M  END
$$$$

  -OEChem-03222214053D

 31 30  0     1  0  0  0  0  0999 V2000
   -2.9848   -3.8614    1.4468 H   0  0  0  0  0  0  0  0  0  0  0  0
   -3.0072   -2.8413    1.0535 C   0  0  0  0  0  0  0  0  0  0  0  0
   -3.6141   -2.2211    1.7176 H   0  0  0  0  0  0  0  0  0  0  0  0
   -3.4641   -2.8562    0.0610 H   0  0  0  0  0  0  0  0  0  0  0  0
   -1.5992   -2.2832    0.9666 C   0  0  0  0  0  0  0  0  0  0  0  0
   -0.6487   -2.9692    1.3090 O   0  0  0  0  0  0  0  0  0  0  0  0
   -1.4024   -0.9997    0.5013 N   0  0  0  0  0  0  0  0  0  0  0  0
   -2.2307   -0.4362    0.3174 H   0  0  0  0  0  0  0  0  0  0  0  0
   -0.1070   -0.3036    0.4648 C   0  0  1  0  0  0  0  0  0  0  0  0
    0.5403   -0.8137    1.1791 H   0  0  0  0  0  0  0  0  0  0  0  0
    0.5037   -0.4241   -0.9615 C   0  0  1  0  0  0  0  0  0  0  0  0
    0.2038   -1.4093   -1.3359 H   0  0  0  0  0  0  0  0  0  0  0  0
   -0.0572    0.6143   -1.9459 C   0  0  0  0  0  0  0  0  0  0  0  0
    0.2848    1.6228   -1.6933 H   0  0  0  0  0  0  0  0  0  0  0  0
    0.2727    0.3859   -2.9641 H   0  0  0  0  0  0  0  0  0  0  0  0
   -1.1515    0.6036   -1.9309 H   0  0  0  0  0  0  0  0  0  0  0  0
    2.0496   -0.4201   -1.0207 C   0  0  0  0  0  0  0  0  0  0  0  0
    2.3533   -0.7483   -2.0203 H   0  0  0  0  0  0  0  0  0  0  0  0
    2.4130    0.6043   -0.8885 H   0  0  0  0  0  0  0  0  0  0  0  0
    2.7492   -1.3109    0.0111 C   0  0  0  0  0  0  0  0  0  0  0  0
    2.2960   -2.3075    0.0271 H   0  0  0  0  0  0  0  0  0  0  0  0
    3.8070   -1.4169   -0.2481 H   0  0  0  0  0  0  0  0  0  0  0  0
    2.6928   -0.8766    1.0131 H   0  0  0  0  0  0  0  0  0  0  0  0
   -0.2162    1.1462    0.9803 C   0  0  0  0  0  0  0  0  0  0  0  0
   -1.2134    1.8148    0.7302 O   0  0  0  0  0  0  0  0  0  0  0  0
    0.7265    1.6476    1.8587 N   0  0  0  0  0  0  0  0  0  0  0  0
    1.5095    1.0476    2.1016 H   0  0  0  0  0  0  0  0  0  0  0  0
    0.6269    2.9650    2.4744 C   0  0  0  0  0  0  0  0  0  0  0  0
   -0.3000    3.0498    3.0513 H   0  0  0  0  0  0  0  0  0  0  0  0
    1.4707    3.1314    3.1510 H   0  0  0  0  0  0  0  0  0  0  0  0
    0.6377    3.7470    1.7081 H   0  0  0  0  0  0  0  0  0  0  0  0
  1  2  1  0  0  0  0
  2  3  1  0  0  0  0
  2  4  1  0  0  0  0
  2  5  1  0  0  0  0
  5  6  2  0  0  0  0
  5  7  1  0  0  0  0
  7  8  1  0  0  0  0
  7  9  1  0  0  0  0
  9 10  1  0  0  0  0
  9 11  1  0  0  0  0
  9 24  1  0  0  0  0
 11 12  1  0  0  0  0
 11 13  1  0  0  0  0
 11 17  1  0  0  0  0
 13 14  1  0  0  0  0
 13 15  1  0  0  0  0
 13 16  1  0  0  0  0
 17 18  1  0  0  0  0
 17 19  1  0  0  0  0
 17 20  1  0  0  0  0
 20 21  1  0  0  0  0
 20 22  1  0  0  0  0
 20 23  1  0  0  0  0
 24 25  2  0  0  0  0
 24 26  1  0  0  0  0
 26 27  1  0  0  0  0
 26 28  1  0  0  0  0
 28 29  1  0  0  0  0
 28 30  1  0  0  0  0
 28 31  1  0  0  0  0
M  END
$$$$

  -OEChem-03222214053D

 31 30  0     1  0  0  0  0  0999 V2000
   -2.9591   -3.8690    1.4579 H   0  0  0  0  0  0  0  0  0  0  0  0
   -2.9881   -2.8493    1.0640 C   0  0  0  0  0  0  0  0  0  0  0  0
   -3.5868   -2.2291    1.7354 H   0  0  0  0  0  0  0  0  0  0  0  0
   -3.4583   -2.8657    0.0777 H   0  0  0  0  0  0  0  0  0  0  0  0
   -1.5820   -2.2894    0.9574 C   0  0  0  0  0  0  0  0  0  0  0  0
   -0.6255   -2.9750    1.2840 O   0  0  0  0  0  0  0  0  0  0  0  0
   -1.3932   -1.0039    0.4944 N   0  0  0  0  0  0  0  0  0  0  0  0
   -2.2243   -0.4403    0.3233 H   0  0  0  0  0  0  0  0  0  0  0  0
   -0.0998   -0.3057    0.4464 C   0  0  1  0  0  0  0  0  0  0  0  0
    0.5628   -0.8118    1.1500 H   0  0  0  0  0  0  0  0  0  0  0  0
    0.4988   -0.4248   -0.9840 C   0  0  1  0  0  0  0  0  0  0  0  0
    0.1928   -1.4002   -1.3789 H   0  0  0  0  0  0  0  0  0  0  0  0
   -0.0489    0.6379   -1.9501 C   0  0  0  0  0  0  0  0  0  0  0  0
    0.3151    1.6361   -1.6870 H   0  0  0  0  0  0  0  0  0  0  0  0
    0.2679    0.4174   -2.9740 H   0  0  0  0  0  0  0  0  0  0  0  0
   -1.1431    0.6478   -1.9266 H   0  0  0  0  0  0  0  0  0  0  0  0
    2.0430   -0.4149   -1.0134 C   0  0  0  0  0  0  0  0  0  0  0  0
    2.3685   -0.4974   -2.0557 H   0  0  0  0  0  0  0  0  0  0  0  0
    2.4135    0.5408   -0.6287 H   0  0  0  0  0  0  0  0  0  0  0  0
    2.6929   -1.5582   -0.2253 C   0  0  0  0  0  0  0  0  0  0  0  0
    2.2327   -2.5157   -0.4892 H   0  0  0  0  0  0  0  0  0  0  0  0
    3.7598   -1.6106   -0.4623 H   0  0  0  0  0  0  0  0  0  0  0  0
    2.5981   -1.4071    0.8530 H   0  0  0  0  0  0  0  0  0  0  0  0
   -0.2120    1.1417    0.9694 C   0  0  0  0  0  0  0  0  0  0  0  0
   -1.2139    1.8075    0.7304 O   0  0  0  0  0  0  0  0  0  0  0  0
    0.7366    1.6437    1.8412 N   0  0  0  0  0  0  0  0  0  0  0  0
    1.5226    1.0447    2.0769 H   0  0  0  0  0  0  0  0  0  0  0  0
    0.6392    2.9591    2.4616 C   0  0  0  0  0  0  0  0  0  0  0  0
   -0.2752    3.0345    3.0595 H   0  0  0  0  0  0  0  0  0  0  0  0
    1.4968    3.1316    3.1190 H   0  0  0  0  0  0  0  0  0  0  0  0
    0.6264    3.7427    1.6968 H   0  0  0  0  0  0  0  0  0  0  0  0
  1  2  1  0  0  0  0
  2  3  1  0  0  0  0
  2  4  1  0  0  0  0
  2  5  1  0  0  0  0
  5  6  2  0  0  0  0
  5  7  1  0  0  0  0
  7  8  1  0  0  0  0
  7  9  1  0  0  0  0
  9 10  1  0  0  0  0
  9 11  1  0  0  0  0
  9 24  1  0  0  0  0
 11 12  1  0  0  0  0
 11 13  1  0  0  0  0
 11 17  1  0  0  0  0
 13 14  1  0  0  0  0
 13 15  1  0  0  0  0
 13 16  1  0  0  0  0
 17 18  1  0  0  0  0
 17 19  1  0  0  0  0
 17 20  1  0  0  0  0
 20 21  1  0  0  0  0
 20 22  1  0  0  0  0
 20 23  1  0  0  0  0
 24 25  2  0  0  0  0
 24 26  1  0  0  0  0
 26 27  1  0  0  0  0
 26 28  1  0  0  0  0
 28 29  1  0  0  0  0
 28 30  1  0  0  0  0
 28 31  1  0  0  0  0
M  END
$$$$

  -OEChem-03222214053D

 31 30  0     1  0  0  0  0  0999 V2000
   -2.9261   -3.8730    1.4713 H   0  0  0  0  0  0  0  0  0  0  0  0
   -2.9631   -2.8529    1.0789 C   0  0  0  0  0  0  0  0  0  0  0  0
   -3.5552   -2.2352    1.7585 H   0  0  0  0  0  0  0  0  0  0  0  0
   -3.4456   -2.8699    0.0986 H   0  0  0  0  0  0  0  0  0  0  0  0
   -1.5602   -2.2888    0.9556 C   0  0  0  0  0  0  0  0  0  0  0  0
   -0.5984   -2.9712    1.2726 O   0  0  0  0  0  0  0  0  0  0  0  0
   -1.3795   -1.0029    0.4910 N   0  0  0  0  0  0  0  0  0  0  0  0
   -2.2130   -0.4404    0.3288 H   0  0  0  0  0  0  0  0  0  0  0  0
   -0.0869   -0.3047    0.4297 C   0  0  1  0  0  0  0  0  0  0  0  0
    0.5942   -0.8076    1.1203 H   0  0  0  0  0  0  0  0  0  0  0  0
    0.4936   -0.4248   -1.0071 C   0  0  1  0  0  0  0  0  0  0  0  0
    0.1777   -1.3909   -1.4167 H   0  0  0  0  0  0  0  0  0  0  0  0
   -0.0451    0.6566   -1.9576 C   0  0  0  0  0  0  0  0  0  0  0  0
    0.3343    1.6468   -1.6860 H   0  0  0  0  0  0  0  0  0  0  0  0
    0.2622    0.4429   -2.9860 H   0  0  0  0  0  0  0  0  0  0  0  0
   -1.1390    0.6804   -1.9276 H   0  0  0  0  0  0  0  0  0  0  0  0
    2.0365   -0.4127   -1.0102 C   0  0  0  0  0  0  0  0  0  0  0  0
    2.3924   -0.2373   -2.0310 H   0  0  0  0  0  0  0  0  0  0  0  0
    2.4067    0.4093   -0.3893 H   0  0  0  0  0  0  0  0  0  0  0  0
    2.6358   -1.7382   -0.5277 C   0  0  0  0  0  0  0  0  0  0  0  0
    2.2741   -2.5676   -1.1436 H   0  0  0  0  0  0  0  0  0  0  0  0
    3.7267   -1.7023   -0.6038 H   0  0  0  0  0  0  0  0  0  0  0  0
    2.3732   -1.9399    0.5142 H   0  0  0  0  0  0  0  0  0  0  0  0
   -0.2021    1.1417    0.9567 C   0  0  0  0  0  0  0  0  0  0  0  0
   -1.2100    1.8021    0.7284 O   0  0  0  0  0  0  0  0  0  0  0  0
    0.7510    1.6481    1.8211 N   0  0  0  0  0  0  0  0  0  0  0  0
    1.5380    1.0503    2.0563 H   0  0  0  0  0  0  0  0  0  0  0  0
    0.6433    2.9562    2.4555 C   0  0  0  0  0  0  0  0  0  0  0  0
   -0.2602    3.0109    3.0720 H   0  0  0  0  0  0  0  0  0  0  0  0
    1.5106    3.1374    3.0975 H   0  0  0  0  0  0  0  0  0  0  0  0
    0.6020    3.7465    1.6987 H   0  0  0  0  0  0  0  0  0  0  0  0
  1  2  1  0  0  0  0
  2  3  1  0  0  0  0
  2  4  1  0  0  0  0
  2  5  1  0  0  0  0
  5  6  2  0  0  0  0
  5  7  1  0  0  0  0
  7  8  1  0  0  0  0
  7  9  1  0  0  0  0
  9 10  1  0  0  0  0
  9 11  1  0  0  0  0
  9 24  1  0  0  0  0
 11 12  1  0  0  0  0
 11 13  1  0  0  0  0
 11 17  1  0  0  0  0
 13 14  1  0  0  0  0
 13 15  1  0  0  0  0
 13 16  1  0  0  0  0
 17 18  1  0  0  0  0
 17 19  1  0  0  0  0
 17 20  1  0  0  0  0
 20 21  1  0  0  0  0
 20 22  1  0  0  0  0
 20 23  1  0  0  0  0
 24 25  2  0  0  0  0
 24 26  1  0  0  0  0
 26 27  1  0  0  0  0
 26 28  1  0  0  0  0
 28 29  1  0  0  0  0
 28 30  1  0  0  0  0
 28 31  1  0  0  0  0
M  END
$$$$

  -OEChem-03222214053D

 31 30  0     1  0  0  0  0  0999 V2000
   -2.9073   -3.8783    1.4731 H   0  0  0  0  0  0  0  0  0  0  0  0
   -2.9486   -2.8577    1.0824 C   0  0  0  0  0  0  0  0  0  0  0  0
   -3.5354   -2.2415    1.7680 H   0  0  0  0  0  0  0  0  0  0  0  0
   -3.4395   -2.8736    0.1063 H   0  0  0  0  0  0  0  0  0  0  0  0
   -1.5475   -2.2917    0.9477 C   0  0  0  0  0  0  0  0  0  0  0  0
   -0.5819   -2.9738    1.2540 O   0  0  0  0  0  0  0  0  0  0  0  0
   -1.3725   -1.0037    0.4867 N   0  0  0  0  0  0  0  0  0  0  0  0
   -2.2083   -0.4420    0.3331 H   0  0  0  0  0  0  0  0  0  0  0  0
   -0.0818   -0.3026    0.4174 C   0  0  1  0  0  0  0  0  0  0  0  0
    0.6111   -0.8114    1.0950 H   0  0  0  0  0  0  0  0  0  0  0  0
    0.4901   -0.4226   -1.0212 C   0  0  1  0  0  0  0  0  0  0  0  0
    0.1696   -1.3847   -1.4370 H   0  0  0  0  0  0  0  0  0  0  0  0
   -0.0478    0.6656   -1.9646 C   0  0  0  0  0  0  0  0  0  0  0  0
    0.3330    1.6534   -1.6865 H   0  0  0  0  0  0  0  0  0  0  0  0
    0.2593    0.4578   -2.9942 H   0  0  0  0  0  0  0  0  0  0  0  0
   -1.1417    0.6907   -1.9342 H   0  0  0  0  0  0  0  0  0  0  0  0
    2.0339   -0.4045   -1.0010 C   0  0  0  0  0  0  0  0  0  0  0  0
    2.4105    0.0203   -1.9374 H   0  0  0  0  0  0  0  0  0  0  0  0
    2.4016    0.2291   -0.1879 H   0  0  0  0  0  0  0  0  0  0  0  0
    2.6053   -1.8176   -0.8655 C   0  0  0  0  0  0  0  0  0  0  0  0
    2.2982   -2.4385   -1.7128 H   0  0  0  0  0  0  0  0  0  0  0  0
    3.6985   -1.7808   -0.8422 H   0  0  0  0  0  0  0  0  0  0  0  0
    2.2541   -2.2890    0.0578 H   0  0  0  0  0  0  0  0  0  0  0  0
   -0.1975    1.1416    0.9516 C   0  0  0  0  0  0  0  0  0  0  0  0
   -1.2091    1.7996    0.7323 O   0  0  0  0  0  0  0  0  0  0  0  0
    0.7599    1.6490    1.8107 N   0  0  0  0  0  0  0  0  0  0  0  0
    1.5468    1.0506    2.0445 H   0  0  0  0  0  0  0  0  0  0  0  0
    0.6496    2.9533    2.4521 C   0  0  0  0  0  0  0  0  0  0  0  0
   -0.2467    2.9974    3.0799 H   0  0  0  0  0  0  0  0  0  0  0  0
    1.5234    3.1389    3.0840 H   0  0  0  0  0  0  0  0  0  0  0  0
    0.5925    3.7469    1.6996 H   0  0  0  0  0  0  0  0  0  0  0  0
  1  2  1  0  0  0  0
  2  3  1  0  0  0  0
  2  4  1  0  0  0  0
  2  5  1  0  0  0  0
  5  6  2  0  0  0  0
  5  7  1  0  0  0  0
  7  8  1  0  0  0  0
  7  9  1  0  0  0  0
  9 10  1  0  0  0  0
  9 11  1  0  0  0  0
  9 24  1  0  0  0  0
 11 12  1  0  0  0  0
 11 13  1  0  0  0  0
 11 17  1  0  0  0  0
 13 14  1  0  0  0  0
 13 15  1  0  0  0  0
 13 16  1  0  0  0  0
 17 18  1  0  0  0  0
 17 19  1  0  0  0  0
 17 20  1  0  0  0  0
 20 21  1  0  0  0  0
 20 22  1  0  0  0  0
 20 23  1  0  0  0  0
 24 25  2  0  0  0  0
 24 26  1  0  0  0  0
 26 27  1  0  0  0  0
 26 28  1  0  0  0  0
 28 29  1  0  0  0  0
 28 30  1  0  0  0  0
 28 31  1  0  0  0  0
M  END
$$$$

  -OEChem-03222214053D

 31 30  0     1  0  0  0  0  0999 V2000
   -2.9148   -3.8794    1.4654 H   0  0  0  0  0  0  0  0  0  0  0  0
   -2.9547   -2.8581    1.0765 C   0  0  0  0  0  0  0  0  0  0  0  0
   -3.5433   -2.2433    1.7617 H   0  0  0  0  0  0  0  0  0  0  0  0
   -3.4425   -2.8720    0.0989 H   0  0  0  0  0  0  0  0  0  0  0  0
   -1.5531   -2.2925    0.9465 C   0  0  0  0  0  0  0  0  0  0  0  0
   -0.5888   -2.9765    1.2525 O   0  0  0  0  0  0  0  0  0  0  0  0
   -1.3767   -1.0037    0.4880 N   0  0  0  0  0  0  0  0  0  0  0  0
   -2.2120   -0.4409    0.3357 H   0  0  0  0  0  0  0  0  0  0  0  0
   -0.0856   -0.3028    0.4216 C   0  0  1  0  0  0  0  0  0  0  0  0
    0.6041   -0.8169    1.0990 H   0  0  0  0  0  0  0  0  0  0  0  0
    0.4905   -0.4183   -1.0157 C   0  0  1  0  0  0  0  0  0  0  0  0
    0.1685   -1.3824   -1.4252 H   0  0  0  0  0  0  0  0  0  0  0  0
   -0.0537    0.6616   -1.9654 C   0  0  0  0  0  0  0  0  0  0  0  0
    0.3109    1.6551   -1.6862 H   0  0  0  0  0  0  0  0  0  0  0  0
    0.2656    0.4559   -2.9917 H   0  0  0  0  0  0  0  0  0  0  0  0
   -1.1479    0.6725   -1.9439 H   0  0  0  0  0  0  0  0  0  0  0  0
    2.0379   -0.3997   -0.9945 C   0  0  0  0  0  0  0  0  0  0  0  0
    2.4157    0.2620   -1.7811 H   0  0  0  0  0  0  0  0  0  0  0  0
    2.4114   -0.0078   -0.0435 H   0  0  0  0  0  0  0  0  0  0  0  0
    2.6134   -1.7962   -1.2352 C   0  0  0  0  0  0  0  0  0  0  0  0
    2.3105   -2.1723   -2.2174 H   0  0  0  0  0  0  0  0  0  0  0  0
    3.7065   -1.7649   -1.1987 H   0  0  0  0  0  0  0  0  0  0  0  0
    2.2592   -2.4927   -0.4680 H   0  0  0  0  0  0  0  0  0  0  0  0
   -0.1995    1.1408    0.9575 C   0  0  0  0  0  0  0  0  0  0  0  0
   -1.2079    1.8023    0.7343 O   0  0  0  0  0  0  0  0  0  0  0  0
    0.7578    1.6455    1.8182 N   0  0  0  0  0  0  0  0  0  0  0  0
    1.5449    1.0468    2.0501 H   0  0  0  0  0  0  0  0  0  0  0  0
    0.6564    2.9553    2.4499 C   0  0  0  0  0  0  0  0  0  0  0  0
   -0.2391    3.0096    3.0778 H   0  0  0  0  0  0  0  0  0  0  0  0
    1.5320    3.1408    3.0795 H   0  0  0  0  0  0  0  0  0  0  0  0
    0.6036    3.7431    1.6913 H   0  0  0  0  0  0  0  0  0  0  0  0
  1  2  1  0  0  0  0
  2  3  1  0  0  0  0
  2  4  1  0  0  0  0
  2  5  1  0  0  0  0
  5  6  2  0  0  0  0
  5  7  1  0  0  0  0
  7  8  1  0  0  0  0
  7  9  1  0  0  0  0
  9 10  1  0  0  0  0
  9 11  1  0  0  0  0
  9 24  1  0  0  0  0
 11 12  1  0  0  0  0
 11 13  1  0  0  0  0
 11 17  1  0  0  0  0
 13 14  1  0  0  0  0
 13 15  1  0  0  0  0
 13 16  1  0  0  0  0
 17 18  1  0  0  0  0
 17 19  1  0  0  0  0
 17 20  1  0  0  0  0
 20 21  1  0  0  0  0
 20 22  1  0  0  0  0
 20 23  1  0  0  0  0
 24 25  2  0  0  0  0
 24 26  1  0  0  0  0
 26 27  1  0  0  0  0
 26 28  1  0  0  0  0
 28 29  1  0  0  0  0
 28 30  1  0  0  0  0
 28 31  1  0  0  0  0
M  END
$$$$

  -OEChem-03222214053D

 31 30  0     1  0  0  0  0  0999 V2000
   -2.9301   -3.8685    1.4616 H   0  0  0  0  0  0  0  0  0  0  0  0
   -2.9648   -2.8476    1.0713 C   0  0  0  0  0  0  0  0  0  0  0  0
   -3.5560   -2.2302    1.7520 H   0  0  0  0  0  0  0  0  0  0  0  0
   -3.4468   -2.8611    0.0909 H   0  0  0  0  0  0  0  0  0  0  0  0
   -1.5606   -2.2867    0.9494 C   0  0  0  0  0  0  0  0  0  0  0  0
   -0.5998   -2.9730    1.2611 O   0  0  0  0  0  0  0  0  0  0  0  0
   -1.3781   -0.9991    0.4901 N   0  0  0  0  0  0  0  0  0  0  0  0
   -2.2115   -0.4350    0.3317 H   0  0  0  0  0  0  0  0  0  0  0  0
   -0.0858   -0.2997    0.4287 C   0  0  1  0  0  0  0  0  0  0  0  0
    0.5962   -0.8160    1.1117 H   0  0  0  0  0  0  0  0  0  0  0  0
    0.4960   -0.4136   -1.0061 C   0  0  1  0  0  0  0  0  0  0  0  0
    0.1788   -1.3879   -1.3951 H   0  0  0  0  0  0  0  0  0  0  0  0
   -0.0608    0.6434   -1.9732 C   0  0  0  0  0  0  0  0  0  0  0  0
    0.2785    1.6478   -1.7012 H   0  0  0  0  0  0  0  0  0  0  0  0
    0.2743    0.4327   -2.9935 H   0  0  0  0  0  0  0  0  0  0  0  0
   -1.1552    0.6306   -1.9625 H   0  0  0  0  0  0  0  0  0  0  0  0
    2.0450   -0.3971   -0.9962 C   0  0  0  0  0  0  0  0  0  0  0  0
    2.4153    0.4602   -1.5678 H   0  0  0  0  0  0  0  0  0  0  0  0
    2.4286   -0.2874    0.0226 H   0  0  0  0  0  0  0  0  0  0  0  0
    2.6243   -1.6779   -1.5990 C   0  0  0  0  0  0  0  0  0  0  0  0
    2.2948   -1.7964   -2.6360 H   0  0  0  0  0  0  0  0  0  0  0  0
    3.7177   -1.6396   -1.5849 H   0  0  0  0  0  0  0  0  0  0  0  0
    2.3000   -2.5516   -1.0243 H   0  0  0  0  0  0  0  0  0  0  0  0
   -0.1949    1.1451    0.9604 C   0  0  0  0  0  0  0  0  0  0  0  0
   -1.2016    1.8082    0.7349 O   0  0  0  0  0  0  0  0  0  0  0  0
    0.7616    1.6478    1.8231 N   0  0  0  0  0  0  0  0  0  0  0  0
    1.5446    1.0458    2.0601 H   0  0  0  0  0  0  0  0  0  0  0  0
    0.6565    2.9542    2.4610 C   0  0  0  0  0  0  0  0  0  0  0  0
   -0.2468    3.0077    3.0777 H   0  0  0  0  0  0  0  0  0  0  0  0
    1.5245    3.1329    3.1029 H   0  0  0  0  0  0  0  0  0  0  0  0
    0.6159    3.7466    1.7062 H   0  0  0  0  0  0  0  0  0  0  0  0
  1  2  1  0  0  0  0
  2  3  1  0  0  0  0
  2  4  1  0  0  0  0
  2  5  1  0  0  0  0
  5  6  2  0  0  0  0
  5  7  1  0  0  0  0
  7  8  1  0  0  0  0
  7  9  1  0  0  0  0
  9 10  1  0  0  0  0
  9 11  1  0  0  0  0
  9 24  1  0  0  0  0
 11 12  1  0  0  0  0
 11 13  1  0  0  0  0
 11 17  1  0  0  0  0
 13 14  1  0  0  0  0
 13 15  1  0  0  0  0
 13 16  1  0  0  0  0
 17 18  1  0  0  0  0
 17 19  1  0  0  0  0
 17 20  1  0  0  0  0
 20 21  1  0  0  0  0
 20 22  1  0  0  0  0
 20 23  1  0  0  0  0
 24 25  2  0  0  0  0
 24 26  1  0  0  0  0
 26 27  1  0  0  0  0
 26 28  1  0  0  0  0
 28 29  1  0  0  0  0
 28 30  1  0  0  0  0
 28 31  1  0  0  0  0
M  END
$$$$

  -OEChem-03222214053D

 31 30  0     1  0  0  0  0  0999 V2000
   -2.9400   -3.8644    1.4595 H   0  0  0  0  0  0  0  0  0  0  0  0
   -2.9718   -2.8433    1.0696 C   0  0  0  0  0  0  0  0  0  0  0  0
   -3.5651   -2.2255    1.7481 H   0  0  0  0  0  0  0  0  0  0  0  0
   -3.4498   -2.8560    0.0871 H   0  0  0  0  0  0  0  0  0  0  0  0
   -1.5665   -2.2840    0.9535 C   0  0  0  0  0  0  0  0  0  0  0  0
   -0.6084   -2.9705    1.2727 O   0  0  0  0  0  0  0  0  0  0  0  0
   -1.3798   -0.9977    0.4923 N   0  0  0  0  0  0  0  0  0  0  0  0
   -2.2115   -0.4331    0.3278 H   0  0  0  0  0  0  0  0  0  0  0  0
   -0.0860   -0.3005    0.4339 C   0  0  1  0  0  0  0  0  0  0  0  0
    0.5914   -0.8165    1.1209 H   0  0  0  0  0  0  0  0  0  0  0  0
    0.5001   -0.4092   -0.9997 C   0  0  1  0  0  0  0  0  0  0  0  0
    0.1898   -1.3901   -1.3770 H   0  0  0  0  0  0  0  0  0  0  0  0
   -0.0602    0.6355   -1.9779 C   0  0  0  0  0  0  0  0  0  0  0  0
    0.2679    1.6449   -1.7109 H   0  0  0  0  0  0  0  0  0  0  0  0
    0.2820    0.4216   -2.9949 H   0  0  0  0  0  0  0  0  0  0  0  0
   -1.1544    0.6126   -1.9729 H   0  0  0  0  0  0  0  0  0  0  0  0
    2.0479   -0.3950   -0.9934 C   0  0  0  0  0  0  0  0  0  0  0  0
    2.4166    0.5895   -1.3003 H   0  0  0  0  0  0  0  0  0  0  0  0
    2.4330   -0.5820    0.0134 H   0  0  0  0  0  0  0  0  0  0  0  0
    2.6238   -1.4703   -1.9168 C   0  0  0  0  0  0  0  0  0  0  0  0
    2.2793   -1.3177   -2.9443 H   0  0  0  0  0  0  0  0  0  0  0  0
    3.7172   -1.4271   -1.9075 H   0  0  0  0  0  0  0  0  0  0  0  0
    2.3140   -2.4669   -1.5858 H   0  0  0  0  0  0  0  0  0  0  0  0
   -0.1934    1.1454    0.9619 C   0  0  0  0  0  0  0  0  0  0  0  0
   -1.1978    1.8107    0.7328 O   0  0  0  0  0  0  0  0  0  0  0  0
    0.7622    1.6467    1.8266 N   0  0  0  0  0  0  0  0  0  0  0  0
    1.5442    1.0436    2.0647 H   0  0  0  0  0  0  0  0  0  0  0  0
    0.6587    2.9536    2.4641 C   0  0  0  0  0  0  0  0  0  0  0  0
   -0.2460    3.0090    3.0787 H   0  0  0  0  0  0  0  0  0  0  0  0
    1.5255    3.1303    3.1082 H   0  0  0  0  0  0  0  0  0  0  0  0
    0.6217    3.7461    1.7093 H   0  0  0  0  0  0  0  0  0  0  0  0
  1  2  1  0  0  0  0
  2  3  1  0  0  0  0
  2  4  1  0  0  0  0
  2  5  1  0  0  0  0
  5  6  2  0  0  0  0
  5  7  1  0  0  0  0
  7  8  1  0  0  0  0
  7  9  1  0  0  0  0
  9 10  1  0  0  0  0
  9 11  1  0  0  0  0
  9 24  1  0  0  0  0
 11 12  1  0  0  0  0
 11 13  1  0  0  0  0
 11 17  1  0  0  0  0
 13 14  1  0  0  0  0
 13 15  1  0  0  0  0
 13 16  1  0  0  0  0
 17 18  1  0  0  0  0
 17 19  1  0  0  0  0
 17 20  1  0  0  0  0
 20 21  1  0  0  0  0
 20 22  1  0  0  0  0
 20 23  1  0  0  0  0
 24 25  2  0  0  0  0
 24 26  1  0  0  0  0
 26 27  1  0  0  0  0
 26 28  1  0  0  0  0
 28 29  1  0  0  0  0
 28 30  1  0  0  0  0
 28 31  1  0  0  0  0
M  END
$$$$

  -OEChem-03222214053D

 31 30  0     1  0  0  0  0  0999 V2000
   -2.9413   -3.8660    1.4637 H   0  0  0  0  0  0  0  0  0  0  0  0
   -2.9740   -2.8453    1.0724 C   0  0  0  0  0  0  0  0  0  0  0  0
   -3.5647   -2.2264    1.7521 H   0  0  0  0  0  0  0  0  0  0  0  0
   -3.4553   -2.8592    0.0915 H   0  0  0  0  0  0  0  0  0  0  0  0
   -1.5687   -2.2865    0.9513 C   0  0  0  0  0  0  0  0  0  0  0  0
   -0.6098   -2.9731    1.2678 O   0  0  0  0  0  0  0  0  0  0  0  0
   -1.3828   -0.9999    0.4907 N   0  0  0  0  0  0  0  0  0  0  0  0
   -2.2148   -0.4344    0.3304 H   0  0  0  0  0  0  0  0  0  0  0  0
   -0.0887   -0.3033    0.4304 C   0  0  1  0  0  0  0  0  0  0  0  0
    0.5900   -0.8182    1.1170 H   0  0  0  0  0  0  0  0  0  0  0  0
    0.4952   -0.4098   -1.0043 C   0  0  1  0  0  0  0  0  0  0  0  0
    0.1921   -1.3923   -1.3834 H   0  0  0  0  0  0  0  0  0  0  0  0
   -0.0675    0.6415   -1.9755 C   0  0  0  0  0  0  0  0  0  0  0  0
    0.2797    1.6461   -1.7150 H   0  0  0  0  0  0  0  0  0  0  0  0
    0.2504    0.4244   -2.9994 H   0  0  0  0  0  0  0  0  0  0  0  0
   -1.1616    0.6343   -1.9506 H   0  0  0  0  0  0  0  0  0  0  0  0
    2.0404   -0.3955   -0.9874 C   0  0  0  0  0  0  0  0  0  0  0  0
    2.4061    0.6362   -1.0155 H   0  0  0  0  0  0  0  0  0  0  0  0
    2.4127   -0.8502   -0.0641 H   0  0  0  0  0  0  0  0  0  0  0  0
    2.6301   -1.1906   -2.1550 C   0  0  0  0  0  0  0  0  0  0  0  0
    2.3215   -0.7600   -3.1121 H   0  0  0  0  0  0  0  0  0  0  0  0
    3.7230   -1.1727   -2.1059 H   0  0  0  0  0  0  0  0  0  0  0  0
    2.2999   -2.2335   -2.1161 H   0  0  0  0  0  0  0  0  0  0  0  0
   -0.1939    1.1423    0.9599 C   0  0  0  0  0  0  0  0  0  0  0  0
   -1.1980    1.8090    0.7327 O   0  0  0  0  0  0  0  0  0  0  0  0
    0.7639    1.6420    1.8230 N   0  0  0  0  0  0  0  0  0  0  0  0
    1.5482    1.0399    2.0561 H   0  0  0  0  0  0  0  0  0  0  0  0
    0.6657    2.9513    2.4563 C   0  0  0  0  0  0  0  0  0  0  0  0
   -0.2357    3.0109    3.0752 H   0  0  0  0  0  0  0  0  0  0  0  0
    1.5360    3.1290    3.0953 H   0  0  0  0  0  0  0  0  0  0  0  0
    0.6261    3.7411    1.6988 H   0  0  0  0  0  0  0  0  0  0  0  0
  1  2  1  0  0  0  0
  2  3  1  0  0  0  0
  2  4  1  0  0  0  0
  2  5  1  0  0  0  0
  5  6  2  0  0  0  0
  5  7  1  0  0  0  0
  7  8  1  0  0  0  0
  7  9  1  0  0  0  0
  9 10  1  0  0  0  0
  9 11  1  0  0  0  0
  9 24  1  0  0  0  0
 11 12  1  0  0  0  0
 11 13  1  0  0  0  0
 11 17  1  0  0  0  0
 13 14  1  0  0  0  0
 13 15  1  0  0  0  0
 13 16  1  0  0  0  0
 17 18  1  0  0  0  0
 17 19  1  0  0  0  0
 17 20  1  0  0  0  0
 20 21  1  0  0  0  0
 20 22  1  0  0  0  0
 20 23  1  0  0  0  0
 24 25  2  0  0  0  0
 24 26  1  0  0  0  0
 26 27  1  0  0  0  0
 26 28  1  0  0  0  0
 28 29  1  0  0  0  0
 28 30  1  0  0  0  0
 28 31  1  0  0  0  0
M  END
$$$$

  -OEChem-03222214053D

 31 30  0     1  0  0  0  0  0999 V2000
   -2.9369   -3.8642    1.4753 H   0  0  0  0  0  0  0  0  0  0  0  0
   -2.9722   -2.8441    1.0832 C   0  0  0  0  0  0  0  0  0  0  0  0
   -3.5542   -2.2233    1.7688 H   0  0  0  0  0  0  0  0  0  0  0  0
   -3.4644   -2.8581    0.1078 H   0  0  0  0  0  0  0  0  0  0  0  0
   -1.5675   -2.2878    0.9458 C   0  0  0  0  0  0  0  0  0  0  0  0
   -0.6053   -2.9764    1.2480 O   0  0  0  0  0  0  0  0  0  0  0  0
   -1.3856   -1.0003    0.4862 N   0  0  0  0  0  0  0  0  0  0  0  0
   -2.2190   -0.4343    0.3352 H   0  0  0  0  0  0  0  0  0  0  0  0
   -0.0923   -0.3033    0.4174 C   0  0  1  0  0  0  0  0  0  0  0  0
    0.5938   -0.8171    1.0979 H   0  0  0  0  0  0  0  0  0  0  0  0
    0.4838   -0.4124   -1.0201 C   0  0  1  0  0  0  0  0  0  0  0  0
    0.1879   -1.3941   -1.4067 H   0  0  0  0  0  0  0  0  0  0  0  0
   -0.0881    0.6462   -1.9793 C   0  0  0  0  0  0  0  0  0  0  0  0
    0.2937    1.6433   -1.7384 H   0  0  0  0  0  0  0  0  0  0  0  0
    0.1819    0.4147   -3.0134 H   0  0  0  0  0  0  0  0  0  0  0  0
   -1.1805    0.6666   -1.9149 H   0  0  0  0  0  0  0  0  0  0  0  0
    2.0271   -0.3954   -0.9840 C   0  0  0  0  0  0  0  0  0  0  0  0
    2.3820    0.6125   -0.7459 H   0  0  0  0  0  0  0  0  0  0  0  0
    2.3810   -1.0682   -0.1959 H   0  0  0  0  0  0  0  0  0  0  0  0
    2.6525   -0.8598   -2.3020 C   0  0  0  0  0  0  0  0  0  0  0  0
    2.4101   -0.1704   -3.1156 H   0  0  0  0  0  0  0  0  0  0  0  0
    3.7415   -0.9000   -2.2032 H   0  0  0  0  0  0  0  0  0  0  0  0
    2.2922   -1.8587   -2.5670 H   0  0  0  0  0  0  0  0  0  0  0  0
   -0.1957    1.1415    0.9509 C   0  0  0  0  0  0  0  0  0  0  0  0
   -1.2032    1.8066    0.7354 O   0  0  0  0  0  0  0  0  0  0  0  0
    0.7683    1.6397    1.8082 N   0  0  0  0  0  0  0  0  0  0  0  0
    1.5524    1.0354    2.0360 H   0  0  0  0  0  0  0  0  0  0  0  0
    0.6715    2.9435    2.4530 C   0  0  0  0  0  0  0  0  0  0  0  0
   -0.2199    2.9926    3.0873 H   0  0  0  0  0  0  0  0  0  0  0  0
    1.5512    3.1214    3.0790 H   0  0  0  0  0  0  0  0  0  0  0  0
    0.6146    3.7390    1.7026 H   0  0  0  0  0  0  0  0  0  0  0  0
  1  2  1  0  0  0  0
  2  3  1  0  0  0  0
  2  4  1  0  0  0  0
  2  5  1  0  0  0  0
  5  6  2  0  0  0  0
  5  7  1  0  0  0  0
  7  8  1  0  0  0  0
  7  9  1  0  0  0  0
  9 10  1  0  0  0  0
  9 11  1  0  0  0  0
  9 24  1  0  0  0  0
 11 12  1  0  0  0  0
 11 13  1  0  0  0  0
 11 17  1  0  0  0  0
 13 14  1  0  0  0  0
 13 15  1  0  0  0  0
 13 16  1  0  0  0  0
 17 18  1  0  0  0  0
 17 19  1  0  0  0  0
 17 20  1  0  0  0  0
 20 21  1  0  0  0  0
 20 22  1  0  0  0  0
 20 23  1  0  0  0  0
 24 25  2  0  0  0  0
 24 26  1  0  0  0  0
 26 27  1  0  0  0  0
 26 28  1  0  0  0  0
 28 29  1  0  0  0  0
 28 30  1  0  0  0  0
 28 31  1  0  0  0  0
M  END
$$$$

  -OEChem-03222214053D

 31 30  0     1  0  0  0  0  0999 V2000
   -2.9221   -3.8663    1.4701 H   0  0  0  0  0  0  0  0  0  0  0  0
   -2.9639   -2.8426    1.0877 C   0  0  0  0  0  0  0  0  0  0  0  0
   -3.5342   -2.2279    1.7883 H   0  0  0  0  0  0  0  0  0  0  0  0
   -3.4722   -2.8480    0.1205 H   0  0  0  0  0  0  0  0  0  0  0  0
   -1.5623   -2.2841    0.9315 C   0  0  0  0  0  0  0  0  0  0  0  0
   -0.5946   -2.9758    1.2083 O   0  0  0  0  0  0  0  0  0  0  0  0
   -1.3894   -0.9913    0.4836 N   0  0  0  0  0  0  0  0  0  0  0  0
   -2.2253   -0.4227    0.3580 H   0  0  0  0  0  0  0  0  0  0  0  0
   -0.0973   -0.2937    0.4050 C   0  0  1  0  0  0  0  0  0  0  0  0
    0.5921   -0.8074    1.0827 H   0  0  0  0  0  0  0  0  0  0  0  0
    0.4728   -0.4101   -1.0394 C   0  0  1  0  0  0  0  0  0  0  0  0
   -0.0256   -1.2536   -1.5306 H   0  0  0  0  0  0  0  0  0  0  0  0
    0.1917    0.8338   -1.9035 C   0  0  0  0  0  0  0  0  0  0  0  0
    0.7860    1.6890   -1.5667 H   0  0  0  0  0  0  0  0  0  0  0  0
    0.4312    0.6380   -2.9526 H   0  0  0  0  0  0  0  0  0  0  0  0
   -0.8687    1.1003   -1.8531 H   0  0  0  0  0  0  0  0  0  0  0  0
    1.9736   -0.7678   -0.9711 C   0  0  0  0  0  0  0  0  0  0  0  0
    2.5085   -0.0006   -0.4020 H   0  0  0  0  0  0  0  0  0  0  0  0
    2.0863   -1.7184   -0.4383 H   0  0  0  0  0  0  0  0  0  0  0  0
    2.6324   -0.9074   -2.3463 C   0  0  0  0  0  0  0  0  0  0  0  0
    2.6763    0.0570   -2.8608 H   0  0  0  0  0  0  0  0  0  0  0  0
    3.6559   -1.2775   -2.2327 H   0  0  0  0  0  0  0  0  0  0  0  0
    2.0748   -1.6156   -2.9673 H   0  0  0  0  0  0  0  0  0  0  0  0
   -0.2004    1.1446    0.9578 C   0  0  0  0  0  0  0  0  0  0  0  0
   -1.2158    1.8056    0.7675 O   0  0  0  0  0  0  0  0  0  0  0  0
    0.7711    1.6376    1.8094 N   0  0  0  0  0  0  0  0  0  0  0  0
    1.5644    1.0377    2.0166 H   0  0  0  0  0  0  0  0  0  0  0  0
    0.6764    2.9358    2.4657 C   0  0  0  0  0  0  0  0  0  0  0  0
   -0.2037    2.9728    3.1163 H   0  0  0  0  0  0  0  0  0  0  0  0
    1.5661    3.1166    3.0766 H   0  0  0  0  0  0  0  0  0  0  0  0
    0.5994    3.7362    1.7223 H   0  0  0  0  0  0  0  0  0  0  0  0
  1  2  1  0  0  0  0
  2  3  1  0  0  0  0
  2  4  1  0  0  0  0
  2  5  1  0  0  0  0
  5  6  2  0  0  0  0
  5  7  1  0  0  0  0
  7  8  1  0  0  0  0
  7  9  1  0  0  0  0
  9 10  1  0  0  0  0
  9 11  1  0  0  0  0
  9 24  1  0  0  0  0
 11 12  1  0  0  0  0
 11 13  1  0  0  0  0
 11 17  1  0  0  0  0
 13 14  1  0  0  0  0
 13 15  1  0  0  0  0
 13 16  1  0  0  0  0
 17 18  1  0  0  0  0
 17 19  1  0  0  0  0
 17 20  1  0  0  0  0
 20 21  1  0  0  0  0
 20 22  1  0  0  0  0
 20 23  1  0  0  0  0
 24 25  2  0  0  0  0
 24 26  1  0  0  0  0
 26 27  1  0  0  0  0
 26 28  1  0  0  0  0
 28 29  1  0  0  0  0
 28 30  1  0  0  0  0
 28 31  1  0  0  0  0
M  END
$$$$

  -OEChem-03222214053D

 31 30  0     1  0  0  0  0  0999 V2000
   -2.9213   -3.8630    1.4694 H   0  0  0  0  0  0  0  0  0  0  0  0
   -2.9646   -2.8391    1.0881 C   0  0  0  0  0  0  0  0  0  0  0  0
   -3.5300   -2.2245    1.7928 H   0  0  0  0  0  0  0  0  0  0  0  0
   -3.4792   -2.8432    0.1242 H   0  0  0  0  0  0  0  0  0  0  0  0
   -1.5628   -2.2824    0.9240 C   0  0  0  0  0  0  0  0  0  0  0  0
   -0.5946   -2.9763    1.1928 O   0  0  0  0  0  0  0  0  0  0  0  0
   -1.3904   -0.9881    0.4801 N   0  0  0  0  0  0  0  0  0  0  0  0
   -2.2263   -0.4179    0.3616 H   0  0  0  0  0  0  0  0  0  0  0  0
   -0.0989   -0.2894    0.4003 C   0  0  1  0  0  0  0  0  0  0  0  0
    0.5902   -0.8072    1.0755 H   0  0  0  0  0  0  0  0  0  0  0  0
    0.4700   -0.4083   -1.0445 C   0  0  1  0  0  0  0  0  0  0  0  0
   -0.0216   -1.2543   -1.5378 H   0  0  0  0  0  0  0  0  0  0  0  0
    0.1622    0.8327   -1.9053 C   0  0  0  0  0  0  0  0  0  0  0  0
    0.7403    1.6989   -1.5684 H   0  0  0  0  0  0  0  0  0  0  0  0
    0.4013    0.6436   -2.9559 H   0  0  0  0  0  0  0  0  0  0  0  0
   -0.9031    1.0784   -1.8507 H   0  0  0  0  0  0  0  0  0  0  0  0
    1.9745   -0.7650   -0.9739 C   0  0  0  0  0  0  0  0  0  0  0  0
    2.4594   -0.1449   -0.2129 H   0  0  0  0  0  0  0  0  0  0  0  0
    2.0721   -1.8101   -0.6605 H   0  0  0  0  0  0  0  0  0  0  0  0
    2.7381   -0.5645   -2.2867 C   0  0  0  0  0  0  0  0  0  0  0  0
    2.7843    0.4945   -2.5576 H   0  0  0  0  0  0  0  0  0  0  0  0
    3.7633   -0.9319   -2.1804 H   0  0  0  0  0  0  0  0  0  0  0  0
    2.2552   -1.1186   -3.0977 H   0  0  0  0  0  0  0  0  0  0  0  0
   -0.1996    1.1474    0.9577 C   0  0  0  0  0  0  0  0  0  0  0  0
   -1.2160    1.8087    0.7734 O   0  0  0  0  0  0  0  0  0  0  0  0
    0.7747    1.6374    1.8079 N   0  0  0  0  0  0  0  0  0  0  0  0
    1.5685    1.0367    2.0106 H   0  0  0  0  0  0  0  0  0  0  0  0
    0.6816    2.9325    2.4704 C   0  0  0  0  0  0  0  0  0  0  0  0
   -0.1946    2.9655    3.1265 H   0  0  0  0  0  0  0  0  0  0  0  0
    1.5745    3.1125    3.0768 H   0  0  0  0  0  0  0  0  0  0  0  0
    0.5987    3.7359    1.7309 H   0  0  0  0  0  0  0  0  0  0  0  0
  1  2  1  0  0  0  0
  2  3  1  0  0  0  0
  2  4  1  0  0  0  0
  2  5  1  0  0  0  0
  5  6  2  0  0  0  0
  5  7  1  0  0  0  0
  7  8  1  0  0  0  0
  7  9  1  0  0  0  0
  9 10  1  0  0  0  0
  9 11  1  0  0  0  0
  9 24  1  0  0  0  0
 11 12  1  0  0  0  0
 11 13  1  0  0  0  0
 11 17  1  0  0  0  0
 13 14  1  0  0  0  0
 13 15  1  0  0  0  0
 13 16  1  0  0  0  0
 17 18  1  0  0  0  0
 17 19  1  0  0  0  0
 17 20  1  0  0  0  0
 20 21  1  0  0  0  0
 20 22  1  0  0  0  0
 20 23  1  0  0  0  0
 24 25  2  0  0  0  0
 24 26  1  0  0  0  0
 26 27  1  0  0  0  0
 26 28  1  0  0  0  0
 28 29  1  0  0  0  0
 28 30  1  0  0  0  0
 28 31  1  0  0  0  0
M  END
$$$$

  -OEChem-03222214053D

 31 30  0     1  0  0  0  0  0999 V2000
   -2.9225   -3.8630    1.4610 H   0  0  0  0  0  0  0  0  0  0  0  0
   -2.9661   -2.8381    1.0819 C   0  0  0  0  0  0  0  0  0  0  0  0
   -3.5352   -2.2258    1.7857 H   0  0  0  0  0  0  0  0  0  0  0  0
   -3.4766   -2.8407    0.1158 H   0  0  0  0  0  0  0  0  0  0  0  0
   -1.5649   -2.2786    0.9248 C   0  0  0  0  0  0  0  0  0  0  0  0
   -0.5971   -2.9719    1.1968 O   0  0  0  0  0  0  0  0  0  0  0  0
   -1.3922   -0.9838    0.4821 N   0  0  0  0  0  0  0  0  0  0  0  0
   -2.2283   -0.4148    0.3597 H   0  0  0  0  0  0  0  0  0  0  0  0
   -0.1006   -0.2847    0.4046 C   0  0  1  0  0  0  0  0  0  0  0  0
    0.5828   -0.8053    1.0829 H   0  0  0  0  0  0  0  0  0  0  0  0
    0.4726   -0.4052   -1.0395 C   0  0  1  0  0  0  0  0  0  0  0  0
   -0.0147   -1.2559   -1.5289 H   0  0  0  0  0  0  0  0  0  0  0  0
    0.1349    0.8265   -1.9040 C   0  0  0  0  0  0  0  0  0  0  0  0
    0.6800    1.7120   -1.5625 H   0  0  0  0  0  0  0  0  0  0  0  0
    0.3893    0.6446   -2.9522 H   0  0  0  0  0  0  0  0  0  0  0  0
   -0.9379    1.0385   -1.8580 H   0  0  0  0  0  0  0  0  0  0  0  0
    1.9829   -0.7620   -0.9794 C   0  0  0  0  0  0  0  0  0  0  0  0
    2.4210   -0.3439   -0.0675 H   0  0  0  0  0  0  0  0  0  0  0  0
    2.0822   -1.8511   -0.9183 H   0  0  0  0  0  0  0  0  0  0  0  0
    2.8296   -0.2434   -2.1468 C   0  0  0  0  0  0  0  0  0  0  0  0
    2.8455    0.8504   -2.1667 H   0  0  0  0  0  0  0  0  0  0  0  0
    3.8605   -0.5952   -2.0420 H   0  0  0  0  0  0  0  0  0  0  0  0
    2.4366   -0.6127   -3.0991 H   0  0  0  0  0  0  0  0  0  0  0  0
   -0.1985    1.1520    0.9622 C   0  0  0  0  0  0  0  0  0  0  0  0
   -1.2135    1.8153    0.7780 O   0  0  0  0  0  0  0  0  0  0  0  0
    0.7769    1.6392    1.8127 N   0  0  0  0  0  0  0  0  0  0  0  0
    1.5714    1.0383    2.0120 H   0  0  0  0  0  0  0  0  0  0  0  0
    0.6870    2.9341    2.4760 C   0  0  0  0  0  0  0  0  0  0  0  0
   -0.1929    2.9715    3.1268 H   0  0  0  0  0  0  0  0  0  0  0  0
    1.5771    3.1079    3.0881 H   0  0  0  0  0  0  0  0  0  0  0  0
    0.6135    3.7387    1.7368 H   0  0  0  0  0  0  0  0  0  0  0  0
  1  2  1  0  0  0  0
  2  3  1  0  0  0  0
  2  4  1  0  0  0  0
  2  5  1  0  0  0  0
  5  6  2  0  0  0  0
  5  7  1  0  0  0  0
  7  8  1  0  0  0  0
  7  9  1  0  0  0  0
  9 10  1  0  0  0  0
  9 11  1  0  0  0  0
  9 24  1  0  0  0  0
 11 12  1  0  0  0  0
 11 13  1  0  0  0  0
 11 17  1  0  0  0  0
 13 14  1  0  0  0  0
 13 15  1  0  0  0  0
 13 16  1  0  0  0  0
 17 18  1  0  0  0  0
 17 19  1  0  0  0  0
 17 20  1  0  0  0  0
 20 21  1  0  0  0  0
 20 22  1  0  0  0  0
 20 23  1  0  0  0  0
 24 25  2  0  0  0  0
 24 26  1  0  0  0  0
 26 27  1  0  0  0  0
 26 28  1  0  0  0  0
 28 29  1  0  0  0  0
 28 30  1  0  0  0  0
 28 31  1  0  0  0  0
M  END
$$$$

  -OEChem-03222214053D

 31 30  0     1  0  0  0  0  0999 V2000
   -2.9337   -3.8600    1.4550 H   0  0  0  0  0  0  0  0  0  0  0  0
   -2.9724   -2.8363    1.0721 C   0  0  0  0  0  0  0  0  0  0  0  0
   -3.5497   -2.2219    1.7675 H   0  0  0  0  0  0  0  0  0  0  0  0
   -3.4719   -2.8422    0.1003 H   0  0  0  0  0  0  0  0  0  0  0  0
   -1.5692   -2.2776    0.9292 C   0  0  0  0  0  0  0  0  0  0  0  0
   -0.6050   -2.9721    1.2110 O   0  0  0  0  0  0  0  0  0  0  0  0
   -1.3908   -0.9833    0.4869 N   0  0  0  0  0  0  0  0  0  0  0  0
   -2.2253   -0.4143    0.3547 H   0  0  0  0  0  0  0  0  0  0  0  0
   -0.0980   -0.2847    0.4193 C   0  0  1  0  0  0  0  0  0  0  0  0
    0.5755   -0.8065    1.1056 H   0  0  0  0  0  0  0  0  0  0  0  0
    0.4843   -0.3997   -1.0226 C   0  0  1  0  0  0  0  0  0  0  0  0
    0.0008   -1.2594   -1.5001 H   0  0  0  0  0  0  0  0  0  0  0  0
    0.1145    0.8134   -1.9012 C   0  0  0  0  0  0  0  0  0  0  0  0
    0.6216    1.7226   -1.5639 H   0  0  0  0  0  0  0  0  0  0  0  0
    0.3856    0.6292   -2.9447 H   0  0  0  0  0  0  0  0  0  0  0  0
   -0.9655    0.9885   -1.8671 H   0  0  0  0  0  0  0  0  0  0  0  0
    2.0001   -0.7581   -0.9856 C   0  0  0  0  0  0  0  0  0  0  0  0
    2.3978   -0.6078    0.0224 H   0  0  0  0  0  0  0  0  0  0  0  0
    2.1088   -1.8236   -1.2150 H   0  0  0  0  0  0  0  0  0  0  0  0
    2.9022    0.0430   -1.9313 C   0  0  0  0  0  0  0  0  0  0  0  0
    2.8749    1.1096   -1.6894 H   0  0  0  0  0  0  0  0  0  0  0  0
    3.9365   -0.3003   -1.8338 H   0  0  0  0  0  0  0  0  0  0  0  0
    2.5945   -0.0973   -2.9718 H   0  0  0  0  0  0  0  0  0  0  0  0
   -0.1972    1.1526    0.9738 C   0  0  0  0  0  0  0  0  0  0  0  0
   -1.2090    1.8183    0.7808 O   0  0  0  0  0  0  0  0  0  0  0  0
    0.7730    1.6383    1.8309 N   0  0  0  0  0  0  0  0  0  0  0  0
    1.5701    1.0401    2.0276 H   0  0  0  0  0  0  0  0  0  0  0  0
    0.6901    2.9412    2.4791 C   0  0  0  0  0  0  0  0  0  0  0  0
   -0.2032    2.9994    3.1102 H   0  0  0  0  0  0  0  0  0  0  0  0
    1.5694    3.1066    3.1090 H   0  0  0  0  0  0  0  0  0  0  0  0
    0.6459    3.7392    1.7304 H   0  0  0  0  0  0  0  0  0  0  0  0
  1  2  1  0  0  0  0
  2  3  1  0  0  0  0
  2  4  1  0  0  0  0
  2  5  1  0  0  0  0
  5  6  2  0  0  0  0
  5  7  1  0  0  0  0
  7  8  1  0  0  0  0
  7  9  1  0  0  0  0
  9 10  1  0  0  0  0
  9 11  1  0  0  0  0
  9 24  1  0  0  0  0
 11 12  1  0  0  0  0
 11 13  1  0  0  0  0
 11 17  1  0  0  0  0
 13 14  1  0  0  0  0
 13 15  1  0  0  0  0
 13 16  1  0  0  0  0
 17 18  1  0  0  0  0
 17 19  1  0  0  0  0
 17 20  1  0  0  0  0
 20 21  1  0  0  0  0
 20 22  1  0  0  0  0
 20 23  1  0  0  0  0
 24 25  2  0  0  0  0
 24 26  1  0  0  0  0
 26 27  1  0  0  0  0
 26 28  1  0  0  0  0
 28 29  1  0  0  0  0
 28 30  1  0  0  0  0
 28 31  1  0  0  0  0
M  END
$$$$

  -OEChem-03222214053D

 31 30  0     1  0  0  0  0  0999 V2000
   -2.9441   -3.8555    1.4537 H   0  0  0  0  0  0  0  0  0  0  0  0
   -2.9790   -2.8313    1.0720 C   0  0  0  0  0  0  0  0  0  0  0  0
   -3.5591   -2.2173    1.7652 H   0  0  0  0  0  0  0  0  0  0  0  0
   -3.4735   -2.8350    0.0977 H   0  0  0  0  0  0  0  0  0  0  0  0
   -1.5736   -2.2755    0.9370 C   0  0  0  0  0  0  0  0  0  0  0  0
   -0.6126   -2.9705    1.2280 O   0  0  0  0  0  0  0  0  0  0  0  0
   -1.3890   -0.9833    0.4909 N   0  0  0  0  0  0  0  0  0  0  0  0
   -2.2211   -0.4125    0.3506 H   0  0  0  0  0  0  0  0  0  0  0  0
   -0.0934   -0.2886    0.4298 C   0  0  1  0  0  0  0  0  0  0  0  0
    0.5738   -0.8091    1.1223 H   0  0  0  0  0  0  0  0  0  0  0  0
    0.4965   -0.3941   -1.0097 C   0  0  1  0  0  0  0  0  0  0  0  0
    0.0151   -1.2630   -1.4731 H   0  0  0  0  0  0  0  0  0  0  0  0
    0.1146    0.7998   -1.9078 C   0  0  0  0  0  0  0  0  0  0  0  0
    0.5916    1.7259   -1.5732 H   0  0  0  0  0  0  0  0  0  0  0  0
    0.4125    0.6083   -2.9430 H   0  0  0  0  0  0  0  0  0  0  0  0
   -0.9698    0.9486   -1.8953 H   0  0  0  0  0  0  0  0  0  0  0  0
    2.0120   -0.7566   -0.9884 C   0  0  0  0  0  0  0  0  0  0  0  0
    2.3595   -0.9185    0.0357 H   0  0  0  0  0  0  0  0  0  0  0  0
    2.1404   -1.7085   -1.5144 H   0  0  0  0  0  0  0  0  0  0  0  0
    2.9491    0.2669   -1.6398 C   0  0  0  0  0  0  0  0  0  0  0  0
    2.8687    1.2367   -1.1393 H   0  0  0  0  0  0  0  0  0  0  0  0
    3.9852   -0.0755   -1.5567 H   0  0  0  0  0  0  0  0  0  0  0  0
    2.7188    0.3913   -2.7020 H   0  0  0  0  0  0  0  0  0  0  0  0
   -0.1933    1.1506    0.9786 C   0  0  0  0  0  0  0  0  0  0  0  0
   -1.2017    1.8180    0.7739 O   0  0  0  0  0  0  0  0  0  0  0  0
    0.7711    1.6383    1.8411 N   0  0  0  0  0  0  0  0  0  0  0  0
    1.5666    1.0404    2.0452 H   0  0  0  0  0  0  0  0  0  0  0  0
    0.6849    2.9444    2.4828 C   0  0  0  0  0  0  0  0  0  0  0  0
   -0.2114    3.0055    3.1091 H   0  0  0  0  0  0  0  0  0  0  0  0
    1.5610    3.1137    3.1162 H   0  0  0  0  0  0  0  0  0  0  0  0
    0.6436    3.7386    1.7301 H   0  0  0  0  0  0  0  0  0  0  0  0
  1  2  1  0  0  0  0
  2  3  1  0  0  0  0
  2  4  1  0  0  0  0
  2  5  1  0  0  0  0
  5  6  2  0  0  0  0
  5  7  1  0  0  0  0
  7  8  1  0  0  0  0
  7  9  1  0  0  0  0
  9 10  1  0  0  0  0
  9 11  1  0  0  0  0
  9 24  1  0  0  0  0
 11 12  1  0  0  0  0
 11 13  1  0  0  0  0
 11 17  1  0  0  0  0
 13 14  1  0  0  0  0
 13 15  1  0  0  0  0
 13 16  1  0  0  0  0
 17 18  1  0  0  0  0
 17 19  1  0  0  0  0
 17 20  1  0  0  0  0
 20 21  1  0  0  0  0
 20 22  1  0  0  0  0
 20 23  1  0  0  0  0
 24 25  2  0  0  0  0
 24 26  1  0  0  0  0
 26 27  1  0  0  0  0
 26 28  1  0  0  0  0
 28 29  1  0  0  0  0
 28 30  1  0  0  0  0
 28 31  1  0  0  0  0
M  END
$$$$

  -OEChem-03222214053D

 31 30  0     1  0  0  0  0  0999 V2000
   -2.9476   -3.8552    1.4599 H   0  0  0  0  0  0  0  0  0  0  0  0
   -2.9804   -2.8330    1.0727 C   0  0  0  0  0  0  0  0  0  0  0  0
   -3.5632   -2.2150    1.7601 H   0  0  0  0  0  0  0  0  0  0  0  0
   -3.4703   -2.8415    0.0960 H   0  0  0  0  0  0  0  0  0  0  0  0
   -1.5745   -2.2777    0.9415 C   0  0  0  0  0  0  0  0  0  0  0  0
   -0.6146   -2.9727    1.2361 O   0  0  0  0  0  0  0  0  0  0  0  0
   -1.3880   -0.9860    0.4948 N   0  0  0  0  0  0  0  0  0  0  0  0
   -2.2193   -0.4150    0.3507 H   0  0  0  0  0  0  0  0  0  0  0  0
   -0.0915   -0.2929    0.4358 C   0  0  1  0  0  0  0  0  0  0  0  0
    0.5783   -0.8107    1.1280 H   0  0  0  0  0  0  0  0  0  0  0  0
    0.4986   -0.3926   -1.0030 C   0  0  1  0  0  0  0  0  0  0  0  0
    0.0189   -1.2653   -1.4609 H   0  0  0  0  0  0  0  0  0  0  0  0
    0.1276    0.7949   -1.9119 C   0  0  0  0  0  0  0  0  0  0  0  0
    0.5766    1.7292   -1.5617 H   0  0  0  0  0  0  0  0  0  0  0  0
    0.4691    0.6079   -2.9345 H   0  0  0  0  0  0  0  0  0  0  0  0
   -0.9589    0.9253   -1.9368 H   0  0  0  0  0  0  0  0  0  0  0  0
    2.0097   -0.7562   -0.9855 C   0  0  0  0  0  0  0  0  0  0  0  0
    2.2946   -1.2011   -0.0276 H   0  0  0  0  0  0  0  0  0  0  0  0
    2.1794   -1.5258   -1.7459 H   0  0  0  0  0  0  0  0  0  0  0  0
    2.9587    0.4069   -1.2952 C   0  0  0  0  0  0  0  0  0  0  0  0
    2.8008    1.2286   -0.5900 H   0  0  0  0  0  0  0  0  0  0  0  0
    3.9964    0.0715   -1.2065 H   0  0  0  0  0  0  0  0  0  0  0  0
    2.8096    0.7780   -2.3135 H   0  0  0  0  0  0  0  0  0  0  0  0
   -0.1923    1.1465    0.9833 C   0  0  0  0  0  0  0  0  0  0  0  0
   -1.1975    1.8162    0.7708 O   0  0  0  0  0  0  0  0  0  0  0  0
    0.7704    1.6341    1.8478 N   0  0  0  0  0  0  0  0  0  0  0  0
    1.5655    1.0359    2.0527 H   0  0  0  0  0  0  0  0  0  0  0  0
    0.6895    2.9449    2.4801 C   0  0  0  0  0  0  0  0  0  0  0  0
   -0.2157    3.0203    3.0918 H   0  0  0  0  0  0  0  0  0  0  0  0
    1.5574    3.1079    3.1262 H   0  0  0  0  0  0  0  0  0  0  0  0
    0.6693    3.7346    1.7218 H   0  0  0  0  0  0  0  0  0  0  0  0
  1  2  1  0  0  0  0
  2  3  1  0  0  0  0
  2  4  1  0  0  0  0
  2  5  1  0  0  0  0
  5  6  2  0  0  0  0
  5  7  1  0  0  0  0
  7  8  1  0  0  0  0
  7  9  1  0  0  0  0
  9 10  1  0  0  0  0
  9 11  1  0  0  0  0
  9 24  1  0  0  0  0
 11 12  1  0  0  0  0
 11 13  1  0  0  0  0
 11 17  1  0  0  0  0
 13 14  1  0  0  0  0
 13 15  1  0  0  0  0
 13 16  1  0  0  0  0
 17 18  1  0  0  0  0
 17 19  1  0  0  0  0
 17 20  1  0  0  0  0
 20 21  1  0  0  0  0
 20 22  1  0  0  0  0
 20 23  1  0  0  0  0
 24 25  2  0  0  0  0
 24 26  1  0  0  0  0
 26 27  1  0  0  0  0
 26 28  1  0  0  0  0
 28 29  1  0  0  0  0
 28 30  1  0  0  0  0
 28 31  1  0  0  0  0
M  END
$$$$

  -OEChem-03222214053D

 31 30  0     1  0  0  0  0  0999 V2000
   -2.9389   -3.8504    1.4668 H   0  0  0  0  0  0  0  0  0  0  0  0
   -2.9718   -2.8290    1.0776 C   0  0  0  0  0  0  0  0  0  0  0  0
   -3.5570   -2.2103    1.7621 H   0  0  0  0  0  0  0  0  0  0  0  0
   -3.4588   -2.8399    0.0996 H   0  0  0  0  0  0  0  0  0  0  0  0
   -1.5661   -2.2732    0.9494 C   0  0  0  0  0  0  0  0  0  0  0  0
   -0.6062   -2.9671    1.2471 O   0  0  0  0  0  0  0  0  0  0  0  0
   -1.3790   -0.9829    0.4996 N   0  0  0  0  0  0  0  0  0  0  0  0
   -2.2091   -0.4098    0.3565 H   0  0  0  0  0  0  0  0  0  0  0  0
   -0.0805   -0.2938    0.4394 C   0  0  1  0  0  0  0  0  0  0  0  0
    0.5996   -0.8087    1.1244 H   0  0  0  0  0  0  0  0  0  0  0  0
    0.4964   -0.3976   -1.0044 C   0  0  1  0  0  0  0  0  0  0  0  0
    0.0058   -1.2619   -1.4662 H   0  0  0  0  0  0  0  0  0  0  0  0
    0.1558    0.8016   -1.9082 C   0  0  0  0  0  0  0  0  0  0  0  0
    0.5959    1.7306   -1.5338 H   0  0  0  0  0  0  0  0  0  0  0  0
    0.5301    0.6269   -2.9215 H   0  0  0  0  0  0  0  0  0  0  0  0
   -0.9293    0.9337   -1.9636 H   0  0  0  0  0  0  0  0  0  0  0  0
    2.0004   -0.7690   -0.9970 C   0  0  0  0  0  0  0  0  0  0  0  0
    2.2207   -1.4420   -0.1620 H   0  0  0  0  0  0  0  0  0  0  0  0
    2.2166   -1.3280   -1.9135 H   0  0  0  0  0  0  0  0  0  0  0  0
    2.9552    0.4292   -0.9537 C   0  0  0  0  0  0  0  0  0  0  0  0
    2.7443    1.0607   -0.0865 H   0  0  0  0  0  0  0  0  0  0  0  0
    3.9885    0.0766   -0.8804 H   0  0  0  0  0  0  0  0  0  0  0  0
    2.8688    1.0341   -1.8611 H   0  0  0  0  0  0  0  0  0  0  0  0
   -0.1945    1.1449    0.9876 C   0  0  0  0  0  0  0  0  0  0  0  0
   -1.2017    1.8092    0.7671 O   0  0  0  0  0  0  0  0  0  0  0  0
    0.7598    1.6407    1.8567 N   0  0  0  0  0  0  0  0  0  0  0  0
    1.5526    1.0442    2.0745 H   0  0  0  0  0  0  0  0  0  0  0  0
    0.6643    2.9492    2.4915 C   0  0  0  0  0  0  0  0  0  0  0  0
   -0.2503    3.0195    3.0896 H   0  0  0  0  0  0  0  0  0  0  0  0
    1.5216    3.1127    3.1516 H   0  0  0  0  0  0  0  0  0  0  0  0
    0.6534    3.7415    1.7357 H   0  0  0  0  0  0  0  0  0  0  0  0
  1  2  1  0  0  0  0
  2  3  1  0  0  0  0
  2  4  1  0  0  0  0
  2  5  1  0  0  0  0
  5  6  2  0  0  0  0
  5  7  1  0  0  0  0
  7  8  1  0  0  0  0
  7  9  1  0  0  0  0
  9 10  1  0  0  0  0
  9 11  1  0  0  0  0
  9 24  1  0  0  0  0
 11 12  1  0  0  0  0
 11 13  1  0  0  0  0
 11 17  1  0  0  0  0
 13 14  1  0  0  0  0
 13 15  1  0  0  0  0
 13 16  1  0  0  0  0
 17 18  1  0  0  0  0
 17 19  1  0  0  0  0
 17 20  1  0  0  0  0
 20 21  1  0  0  0  0
 20 22  1  0  0  0  0
 20 23  1  0  0  0  0
 24 25  2  0  0  0  0
 24 26  1  0  0  0  0
 26 27  1  0  0  0  0
 26 28  1  0  0  0  0
 28 29  1  0  0  0  0
 28 30  1  0  0  0  0
 28 31  1  0  0  0  0
M  END
$$$$

  -OEChem-03222214053D

 31 30  0     1  0  0  0  0  0999 V2000
   -2.9401   -3.8366    1.4738 H   0  0  0  0  0  0  0  0  0  0  0  0
   -2.9666   -2.8147    1.0852 C   0  0  0  0  0  0  0  0  0  0  0  0
   -3.5468   -2.1919    1.7705 H   0  0  0  0  0  0  0  0  0  0  0  0
   -3.4549   -2.8218    0.1076 H   0  0  0  0  0  0  0  0  0  0  0  0
   -1.5577   -2.2678    0.9551 C   0  0  0  0  0  0  0  0  0  0  0  0
   -0.6014   -2.9649    1.2564 O   0  0  0  0  0  0  0  0  0  0  0  0
   -1.3638   -0.9800    0.5019 N   0  0  0  0  0  0  0  0  0  0  0  0
   -2.1908   -0.4022    0.3592 H   0  0  0  0  0  0  0  0  0  0  0  0
   -0.0626   -0.2966    0.4454 C   0  0  1  0  0  0  0  0  0  0  0  0
    0.6263   -0.8101    1.1233 H   0  0  0  0  0  0  0  0  0  0  0  0
    0.5000   -0.4072   -1.0042 C   0  0  1  0  0  0  0  0  0  0  0  0
   -0.0075   -1.2564   -1.4757 H   0  0  0  0  0  0  0  0  0  0  0  0
    0.1932    0.8115   -1.8931 C   0  0  0  0  0  0  0  0  0  0  0  0
    0.6519    1.7253   -1.5042 H   0  0  0  0  0  0  0  0  0  0  0  0
    0.5705    0.6428   -2.9063 H   0  0  0  0  0  0  0  0  0  0  0  0
   -0.8882    0.9696   -1.9535 H   0  0  0  0  0  0  0  0  0  0  0  0
    1.9973   -0.7901   -1.0182 C   0  0  0  0  0  0  0  0  0  0  0  0
    2.1584   -1.6424   -0.3494 H   0  0  0  0  0  0  0  0  0  0  0  0
    2.2568   -1.1248   -2.0279 H   0  0  0  0  0  0  0  0  0  0  0  0
    2.9586    0.3393   -0.6331 C   0  0  0  0  0  0  0  0  0  0  0  0
    2.7553    0.6959    0.3787 H   0  0  0  0  0  0  0  0  0  0  0  0
    3.9887   -0.0282   -0.6642 H   0  0  0  0  0  0  0  0  0  0  0  0
    2.8794    1.1799   -1.3282 H   0  0  0  0  0  0  0  0  0  0  0  0
   -0.1996    1.1422    0.9937 C   0  0  0  0  0  0  0  0  0  0  0  0
   -1.2113    1.7946    0.7574 O   0  0  0  0  0  0  0  0  0  0  0  0
    0.7346    1.6567    1.8737 N   0  0  0  0  0  0  0  0  0  0  0  0
    1.5285    1.0699    2.1133 H   0  0  0  0  0  0  0  0  0  0  0  0
    0.6047    2.9633    2.5065 C   0  0  0  0  0  0  0  0  0  0  0  0
   -0.3121    3.0110    3.1037 H   0  0  0  0  0  0  0  0  0  0  0  0
    1.4569    3.1503    3.1668 H   0  0  0  0  0  0  0  0  0  0  0  0
    0.5736    3.7539    1.7494 H   0  0  0  0  0  0  0  0  0  0  0  0
  1  2  1  0  0  0  0
  2  3  1  0  0  0  0
  2  4  1  0  0  0  0
  2  5  1  0  0  0  0
  5  6  2  0  0  0  0
  5  7  1  0  0  0  0
  7  8  1  0  0  0  0
  7  9  1  0  0  0  0
  9 10  1  0  0  0  0
  9 11  1  0  0  0  0
  9 24  1  0  0  0  0
 11 12  1  0  0  0  0
 11 13  1  0  0  0  0
 11 17  1  0  0  0  0
 13 14  1  0  0  0  0
 13 15  1  0  0  0  0
 13 16  1  0  0  0  0
 17 18  1  0  0  0  0
 17 19  1  0  0  0  0
 17 20  1  0  0  0  0
 20 21  1  0  0  0  0
 20 22  1  0  0  0  0
 20 23  1  0  0  0  0
 24 25  2  0  0  0  0
 24 26  1  0  0  0  0
 26 27  1  0  0  0  0
 26 28  1  0  0  0  0
 28 29  1  0  0  0  0
 28 30  1  0  0  0  0
 28 31  1  0  0  0  0
M  END
$$$$

  -OEChem-03222214053D

 31 30  0     1  0  0  0  0  0999 V2000
   -2.9485   -3.8372    1.4798 H   0  0  0  0  0  0  0  0  0  0  0  0
   -2.9752   -2.8158    1.0899 C   0  0  0  0  0  0  0  0  0  0  0  0
   -3.5527   -2.1917    1.7762 H   0  0  0  0  0  0  0  0  0  0  0  0
   -3.4669   -2.8237    0.1143 H   0  0  0  0  0  0  0  0  0  0  0  0
   -1.5660   -2.2706    0.9546 C   0  0  0  0  0  0  0  0  0  0  0  0
   -0.6103   -2.9675    1.2588 O   0  0  0  0  0  0  0  0  0  0  0  0
   -1.3714   -0.9839    0.4980 N   0  0  0  0  0  0  0  0  0  0  0  0
   -2.1985   -0.4072    0.3507 H   0  0  0  0  0  0  0  0  0  0  0  0
   -0.0705   -0.2991    0.4451 C   0  0  1  0  0  0  0  0  0  0  0  0
    0.6134   -0.8140    1.1269 H   0  0  0  0  0  0  0  0  0  0  0  0
    0.5028   -0.4158   -0.9997 C   0  0  1  0  0  0  0  0  0  0  0  0
   -0.0088   -1.2550   -1.4845 H   0  0  0  0  0  0  0  0  0  0  0  0
    0.2256    0.8154   -1.8811 C   0  0  0  0  0  0  0  0  0  0  0  0
    0.7227    1.7102   -1.4959 H   0  0  0  0  0  0  0  0  0  0  0  0
    0.5825    0.6384   -2.9003 H   0  0  0  0  0  0  0  0  0  0  0  0
   -0.8504    1.0108   -1.9276 H   0  0  0  0  0  0  0  0  0  0  0  0
    2.0007   -0.7958   -1.0146 C   0  0  0  0  0  0  0  0  0  0  0  0
    2.1179   -1.7796   -0.5474 H   0  0  0  0  0  0  0  0  0  0  0  0
    2.3264   -0.8935   -2.0554 H   0  0  0  0  0  0  0  0  0  0  0  0
    2.9321    0.1934   -0.3047 C   0  0  0  0  0  0  0  0  0  0  0  0
    2.7377    0.2112    0.7699 H   0  0  0  0  0  0  0  0  0  0  0  0
    3.9725   -0.1119   -0.4526 H   0  0  0  0  0  0  0  0  0  0  0  0
    2.8140    1.2042   -0.7049 H   0  0  0  0  0  0  0  0  0  0  0  0
   -0.2109    1.1418    0.9882 C   0  0  0  0  0  0  0  0  0  0  0  0
   -1.2224    1.7928    0.7469 O   0  0  0  0  0  0  0  0  0  0  0  0
    0.7193    1.6596    1.8702 N   0  0  0  0  0  0  0  0  0  0  0  0
    1.5125    1.0739    2.1139 H   0  0  0  0  0  0  0  0  0  0  0  0
    0.5902    2.9695    2.4962 C   0  0  0  0  0  0  0  0  0  0  0  0
   -0.3187    3.0153    3.1053 H   0  0  0  0  0  0  0  0  0  0  0  0
    1.4504    3.1658    3.1436 H   0  0  0  0  0  0  0  0  0  0  0  0
    0.5448    3.7550    1.7344 H   0  0  0  0  0  0  0  0  0  0  0  0
  1  2  1  0  0  0  0
  2  3  1  0  0  0  0
  2  4  1  0  0  0  0
  2  5  1  0  0  0  0
  5  6  2  0  0  0  0
  5  7  1  0  0  0  0
  7  8  1  0  0  0  0
  7  9  1  0  0  0  0
  9 10  1  0  0  0  0
  9 11  1  0  0  0  0
  9 24  1  0  0  0  0
 11 12  1  0  0  0  0
 11 13  1  0  0  0  0
 11 17  1  0  0  0  0
 13 14  1  0  0  0  0
 13 15  1  0  0  0  0
 13 16  1  0  0  0  0
 17 18  1  0  0  0  0
 17 19  1  0  0  0  0
 17 20  1  0  0  0  0
 20 21  1  0  0  0  0
 20 22  1  0  0  0  0
 20 23  1  0  0  0  0
 24 25  2  0  0  0  0
 24 26  1  0  0  0  0
 26 27  1  0  0  0  0
 26 28  1  0  0  0  0
 28 29  1  0  0  0  0
 28 30  1  0  0  0  0
 28 31  1  0  0  0  0
M  END
$$$$

  -OEChem-03222214053D

 31 30  0     1  0  0  0  0  0999 V2000
   -2.9608   -3.8477    1.4701 H   0  0  0  0  0  0  0  0  0  0  0  0
   -2.9882   -2.8275    1.0772 C   0  0  0  0  0  0  0  0  0  0  0  0
   -3.5774   -2.2050    1.7548 H   0  0  0  0  0  0  0  0  0  0  0  0
   -3.4673   -2.8407    0.0953 H   0  0  0  0  0  0  0  0  0  0  0  0
   -1.5808   -2.2747    0.9575 C   0  0  0  0  0  0  0  0  0  0  0  0
   -0.6251   -2.9685    1.2684 O   0  0  0  0  0  0  0  0  0  0  0  0
   -1.3890   -0.9871    0.5016 N   0  0  0  0  0  0  0  0  0  0  0  0
   -2.2181   -0.4156    0.3467 H   0  0  0  0  0  0  0  0  0  0  0  0
   -0.0921   -0.2941    0.4542 C   0  0  1  0  0  0  0  0  0  0  0  0
    0.5734   -0.8114    1.1500 H   0  0  0  0  0  0  0  0  0  0  0  0
    0.5013   -0.4309   -0.9822 C   0  0  1  0  0  0  0  0  0  0  0  0
   -0.0128   -1.2648   -1.4734 H   0  0  0  0  0  0  0  0  0  0  0  0
    0.2460    0.8071   -1.8600 C   0  0  0  0  0  0  0  0  0  0  0  0
    0.7919    1.6793   -1.4877 H   0  0  0  0  0  0  0  0  0  0  0  0
    0.5686    0.6159   -2.8881 H   0  0  0  0  0  0  0  0  0  0  0  0
   -0.8223    1.0449   -1.8809 H   0  0  0  0  0  0  0  0  0  0  0  0
    2.0047   -0.7989   -1.0093 C   0  0  0  0  0  0  0  0  0  0  0  0
    2.1009   -1.8620   -0.7643 H   0  0  0  0  0  0  0  0  0  0  0  0
    2.3876   -0.6693   -2.0268 H   0  0  0  0  0  0  0  0  0  0  0  0
    2.8974   -0.0126   -0.0406 C   0  0  0  0  0  0  0  0  0  0  0  0
    2.6858   -0.2722    0.9996 H   0  0  0  0  0  0  0  0  0  0  0  0
    3.9476   -0.2500   -0.2357 H   0  0  0  0  0  0  0  0  0  0  0  0
    2.7594    1.0643   -0.1761 H   0  0  0  0  0  0  0  0  0  0  0  0
   -0.2253    1.1489    0.9923 C   0  0  0  0  0  0  0  0  0  0  0  0
   -1.2352    1.8028    0.7530 O   0  0  0  0  0  0  0  0  0  0  0  0
    0.7095    1.6613    1.8729 N   0  0  0  0  0  0  0  0  0  0  0  0
    1.5093    1.0780    2.1007 H   0  0  0  0  0  0  0  0  0  0  0  0
    0.5948    2.9757    2.4918 C   0  0  0  0  0  0  0  0  0  0  0  0
   -0.3264    3.0438    3.0801 H   0  0  0  0  0  0  0  0  0  0  0  0
    1.4438    3.1551    3.1584 H   0  0  0  0  0  0  0  0  0  0  0  0
    0.5840    3.7589    1.7266 H   0  0  0  0  0  0  0  0  0  0  0  0
  1  2  1  0  0  0  0
  2  3  1  0  0  0  0
  2  4  1  0  0  0  0
  2  5  1  0  0  0  0
  5  6  2  0  0  0  0
  5  7  1  0  0  0  0
  7  8  1  0  0  0  0
  7  9  1  0  0  0  0
  9 10  1  0  0  0  0
  9 11  1  0  0  0  0
  9 24  1  0  0  0  0
 11 12  1  0  0  0  0
 11 13  1  0  0  0  0
 11 17  1  0  0  0  0
 13 14  1  0  0  0  0
 13 15  1  0  0  0  0
 13 16  1  0  0  0  0
 17 18  1  0  0  0  0
 17 19  1  0  0  0  0
 17 20  1  0  0  0  0
 20 21  1  0  0  0  0
 20 22  1  0  0  0  0
 20 23  1  0  0  0  0
 24 25  2  0  0  0  0
 24 26  1  0  0  0  0
 26 27  1  0  0  0  0
 26 28  1  0  0  0  0
 28 29  1  0  0  0  0
 28 30  1  0  0  0  0
 28 31  1  0  0  0  0
M  END
$$$$

  -OEChem-03222214053D

 31 30  0     1  0  0  0  0  0999 V2000
   -2.9868   -3.8372    1.4635 H   0  0  0  0  0  0  0  0  0  0  0  0
   -3.0080   -2.8162    1.0725 C   0  0  0  0  0  0  0  0  0  0  0  0
   -3.5991   -2.1926    1.7477 H   0  0  0  0  0  0  0  0  0  0  0  0
   -3.4818   -2.8256    0.0879 H   0  0  0  0  0  0  0  0  0  0  0  0
   -1.5975   -2.2685    0.9630 C   0  0  0  0  0  0  0  0  0  0  0  0
   -0.6466   -2.9618    1.2891 O   0  0  0  0  0  0  0  0  0  0  0  0
   -1.3998   -0.9836    0.5024 N   0  0  0  0  0  0  0  0  0  0  0  0
   -2.2277   -0.4134    0.3369 H   0  0  0  0  0  0  0  0  0  0  0  0
   -0.1033   -0.2888    0.4642 C   0  0  1  0  0  0  0  0  0  0  0  0
    0.5412   -0.8018    1.1792 H   0  0  0  0  0  0  0  0  0  0  0  0
    0.5110   -0.4425   -0.9647 C   0  0  1  0  0  0  0  0  0  0  0  0
   -0.0065   -1.2750   -1.4549 H   0  0  0  0  0  0  0  0  0  0  0  0
    0.2563    0.7942   -1.8449 C   0  0  0  0  0  0  0  0  0  0  0  0
    0.8196    1.6595   -1.4811 H   0  0  0  0  0  0  0  0  0  0  0  0
    0.5618    0.5963   -2.8770 H   0  0  0  0  0  0  0  0  0  0  0  0
   -0.8092    1.0449   -1.8538 H   0  0  0  0  0  0  0  0  0  0  0  0
    2.0206   -0.8082   -1.0149 C   0  0  0  0  0  0  0  0  0  0  0  0
    2.0995   -1.9005   -1.0272 H   0  0  0  0  0  0  0  0  0  0  0  0
    2.4510   -0.4507   -1.9562 H   0  0  0  0  0  0  0  0  0  0  0  0
    2.8943   -0.3060    0.1417 C   0  0  0  0  0  0  0  0  0  0  0  0
    2.6527   -0.8092    1.0815 H   0  0  0  0  0  0  0  0  0  0  0  0
    3.9462   -0.5112   -0.0797 H   0  0  0  0  0  0  0  0  0  0  0  0
    2.7778    0.7743    0.2668 H   0  0  0  0  0  0  0  0  0  0  0  0
   -0.2381    1.1575    0.9916 C   0  0  0  0  0  0  0  0  0  0  0  0
   -1.2483    1.8087    0.7466 O   0  0  0  0  0  0  0  0  0  0  0  0
    0.6909    1.6719    1.8770 N   0  0  0  0  0  0  0  0  0  0  0  0
    1.4836    1.0848    2.1198 H   0  0  0  0  0  0  0  0  0  0  0  0
    0.5642    2.9822    2.5027 C   0  0  0  0  0  0  0  0  0  0  0  0
   -0.3515    3.0343    3.1010 H   0  0  0  0  0  0  0  0  0  0  0  0
    1.4179    3.1710    3.1606 H   0  0  0  0  0  0  0  0  0  0  0  0
    0.5338    3.7685    1.7413 H   0  0  0  0  0  0  0  0  0  0  0  0
  1  2  1  0  0  0  0
  2  3  1  0  0  0  0
  2  4  1  0  0  0  0
  2  5  1  0  0  0  0
  5  6  2  0  0  0  0
  5  7  1  0  0  0  0
  7  8  1  0  0  0  0
  7  9  1  0  0  0  0
  9 10  1  0  0  0  0
  9 11  1  0  0  0  0
  9 24  1  0  0  0  0
 11 12  1  0  0  0  0
 11 13  1  0  0  0  0
 11 17  1  0  0  0  0
 13 14  1  0  0  0  0
 13 15  1  0  0  0  0
 13 16  1  0  0  0  0
 17 18  1  0  0  0  0
 17 19  1  0  0  0  0
 17 20  1  0  0  0  0
 20 21  1  0  0  0  0
 20 22  1  0  0  0  0
 20 23  1  0  0  0  0
 24 25  2  0  0  0  0
 24 26  1  0  0  0  0
 26 27  1  0  0  0  0
 26 28  1  0  0  0  0
 28 29  1  0  0  0  0
 28 30  1  0  0  0  0
 28 31  1  0  0  0  0
M  END
$$$$

  -OEChem-03222214053D

 31 30  0     1  0  0  0  0  0999 V2000
   -3.0112   -3.8230    1.4627 H   0  0  0  0  0  0  0  0  0  0  0  0
   -3.0252   -2.8040    1.0661 C   0  0  0  0  0  0  0  0  0  0  0  0
   -3.6240   -2.1756    1.7299 H   0  0  0  0  0  0  0  0  0  0  0  0
   -3.4856   -2.8176    0.0753 H   0  0  0  0  0  0  0  0  0  0  0  0
   -1.6125   -2.2594    0.9722 C   0  0  0  0  0  0  0  0  0  0  0  0
   -0.6668   -2.9530    1.3126 O   0  0  0  0  0  0  0  0  0  0  0  0
   -1.4059   -0.9779    0.5058 N   0  0  0  0  0  0  0  0  0  0  0  0
   -2.2300   -0.4059    0.3279 H   0  0  0  0  0  0  0  0  0  0  0  0
   -0.1065   -0.2881    0.4782 C   0  0  1  0  0  0  0  0  0  0  0  0
    0.5245   -0.7951    1.2079 H   0  0  0  0  0  0  0  0  0  0  0  0
    0.5209   -0.4413   -0.9474 C   0  0  1  0  0  0  0  0  0  0  0  0
    0.0042   -1.2808   -1.4262 H   0  0  0  0  0  0  0  0  0  0  0  0
    0.2473    0.7802   -1.8430 C   0  0  0  0  0  0  0  0  0  0  0  0
    0.7977    1.6580   -1.4900 H   0  0  0  0  0  0  0  0  0  0  0  0
    0.5556    0.5731   -2.8725 H   0  0  0  0  0  0  0  0  0  0  0  0
   -0.8217    1.0150   -1.8544 H   0  0  0  0  0  0  0  0  0  0  0  0
    2.0329   -0.8129   -1.0174 C   0  0  0  0  0  0  0  0  0  0  0  0
    2.1059   -1.8626   -1.3216 H   0  0  0  0  0  0  0  0  0  0  0  0
    2.5147   -0.2251   -1.8057 H   0  0  0  0  0  0  0  0  0  0  0  0
    2.8669   -0.6541    0.2588 C   0  0  0  0  0  0  0  0  0  0  0  0
    2.5640   -1.3759    1.0227 H   0  0  0  0  0  0  0  0  0  0  0  0
    3.9216   -0.8371    0.0316 H   0  0  0  0  0  0  0  0  0  0  0  0
    2.7761    0.3601    0.6561 H   0  0  0  0  0  0  0  0  0  0  0  0
   -0.2415    1.1616    0.9949 C   0  0  0  0  0  0  0  0  0  0  0  0
   -1.2469    1.8150    0.7365 O   0  0  0  0  0  0  0  0  0  0  0  0
    0.6799    1.6772    1.8875 N   0  0  0  0  0  0  0  0  0  0  0  0
    1.4643    1.0858    2.1462 H   0  0  0  0  0  0  0  0  0  0  0  0
    0.5516    2.9910    2.5053 C   0  0  0  0  0  0  0  0  0  0  0  0
   -0.3735    3.0521    3.0881 H   0  0  0  0  0  0  0  0  0  0  0  0
    1.3956    3.1768    3.1764 H   0  0  0  0  0  0  0  0  0  0  0  0
    0.5391    3.7744    1.7402 H   0  0  0  0  0  0  0  0  0  0  0  0
  1  2  1  0  0  0  0
  2  3  1  0  0  0  0
  2  4  1  0  0  0  0
  2  5  1  0  0  0  0
  5  6  2  0  0  0  0
  5  7  1  0  0  0  0
  7  8  1  0  0  0  0
  7  9  1  0  0  0  0
  9 10  1  0  0  0  0
  9 11  1  0  0  0  0
  9 24  1  0  0  0  0
 11 12  1  0  0  0  0
 11 13  1  0  0  0  0
 11 17  1  0  0  0  0
 13 14  1  0  0  0  0
 13 15  1  0  0  0  0
 13 16  1  0  0  0  0
 17 18  1  0  0  0  0
 17 19  1  0  0  0  0
 17 20  1  0  0  0  0
 20 21  1  0  0  0  0
 20 22  1  0  0  0  0
 20 23  1  0  0  0  0
 24 25  2  0  0  0  0
 24 26  1  0  0  0  0
 26 27  1  0  0  0  0
 26 28  1  0  0  0  0
 28 29  1  0  0  0  0
 28 30  1  0  0  0  0
 28 31  1  0  0  0  0
M  END
$$$$

  -OEChem-03222214053D

 31 30  0     1  0  0  0  0  0999 V2000
   -3.0280   -3.8164    1.4642 H   0  0  0  0  0  0  0  0  0  0  0  0
   -3.0389   -2.7981    1.0657 C   0  0  0  0  0  0  0  0  0  0  0  0
   -3.6370   -2.1670    1.7274 H   0  0  0  0  0  0  0  0  0  0  0  0
   -3.4975   -2.8127    0.0740 H   0  0  0  0  0  0  0  0  0  0  0  0
   -1.6245   -2.2571    0.9737 C   0  0  0  0  0  0  0  0  0  0  0  0
   -0.6819   -2.9516    1.3207 O   0  0  0  0  0  0  0  0  0  0  0  0
   -1.4134   -0.9771    0.5047 N   0  0  0  0  0  0  0  0  0  0  0  0
   -2.2357   -0.4041    0.3223 H   0  0  0  0  0  0  0  0  0  0  0  0
   -0.1122   -0.2900    0.4821 C   0  0  1  0  0  0  0  0  0  0  0  0
    0.5086   -0.7943    1.2217 H   0  0  0  0  0  0  0  0  0  0  0  0
    0.5274   -0.4360   -0.9389 C   0  0  1  0  0  0  0  0  0  0  0  0
    0.0195   -1.2893   -1.4026 H   0  0  0  0  0  0  0  0  0  0  0  0
    0.2354    0.7655   -1.8545 C   0  0  0  0  0  0  0  0  0  0  0  0
    0.7605    1.6617   -1.5090 H   0  0  0  0  0  0  0  0  0  0  0  0
    0.5610    0.5493   -2.8768 H   0  0  0  0  0  0  0  0  0  0  0  0
   -0.8387    0.9752   -1.8796 H   0  0  0  0  0  0  0  0  0  0  0  0
    2.0399   -0.8072   -1.0141 C   0  0  0  0  0  0  0  0  0  0  0  0
    2.1345   -1.7306   -1.5954 H   0  0  0  0  0  0  0  0  0  0  0  0
    2.5706   -0.0286   -1.5720 H   0  0  0  0  0  0  0  0  0  0  0  0
    2.7969   -1.0046    0.3031 C   0  0  0  0  0  0  0  0  0  0  0  0
    2.3882   -1.8521    0.8627 H   0  0  0  0  0  0  0  0  0  0  0  0
    3.8499   -1.2168    0.0945 H   0  0  0  0  0  0  0  0  0  0  0  0
    2.7476   -0.1030    0.9198 H   0  0  0  0  0  0  0  0  0  0  0  0
   -0.2368    1.1621    0.9924 C   0  0  0  0  0  0  0  0  0  0  0  0
   -1.2358    1.8234    0.7290 O   0  0  0  0  0  0  0  0  0  0  0  0
    0.6874    1.6716    1.8857 N   0  0  0  0  0  0  0  0  0  0  0  0
    1.4660    1.0740    2.1475 H   0  0  0  0  0  0  0  0  0  0  0  0
    0.5654    2.9857    2.5047 C   0  0  0  0  0  0  0  0  0  0  0  0
   -0.3582    3.0498    3.0895 H   0  0  0  0  0  0  0  0  0  0  0  0
    1.4115    3.1682    3.1742 H   0  0  0  0  0  0  0  0  0  0  0  0
    0.5540    3.7700    1.7406 H   0  0  0  0  0  0  0  0  0  0  0  0
  1  2  1  0  0  0  0
  2  3  1  0  0  0  0
  2  4  1  0  0  0  0
  2  5  1  0  0  0  0
  5  6  2  0  0  0  0
  5  7  1  0  0  0  0
  7  8  1  0  0  0  0
  7  9  1  0  0  0  0
  9 10  1  0  0  0  0
  9 11  1  0  0  0  0
  9 24  1  0  0  0  0
 11 12  1  0  0  0  0
 11 13  1  0  0  0  0
 11 17  1  0  0  0  0
 13 14  1  0  0  0  0
 13 15  1  0  0  0  0
 13 16  1  0  0  0  0
 17 18  1  0  0  0  0
 17 19  1  0  0  0  0
 17 20  1  0  0  0  0
 20 21  1  0  0  0  0
 20 22  1  0  0  0  0
 20 23  1  0  0  0  0
 24 25  2  0  0  0  0
 24 26  1  0  0  0  0
 26 27  1  0  0  0  0
 26 28  1  0  0  0  0
 28 29  1  0  0  0  0
 28 30  1  0  0  0  0
 28 31  1  0  0  0  0
M  END
$$$$

  -OEChem-03222214053D

 31 30  0     1  0  0  0  0  0999 V2000
   -3.0308   -3.8203    1.4628 H   0  0  0  0  0  0  0  0  0  0  0  0
   -3.0421   -2.8016    1.0652 C   0  0  0  0  0  0  0  0  0  0  0  0
   -3.6413   -2.1717    1.7273 H   0  0  0  0  0  0  0  0  0  0  0  0
   -3.5002   -2.8156    0.0733 H   0  0  0  0  0  0  0  0  0  0  0  0
   -1.6279   -2.2599    0.9746 C   0  0  0  0  0  0  0  0  0  0  0  0
   -0.6856   -2.9545    1.3226 O   0  0  0  0  0  0  0  0  0  0  0  0
   -1.4166   -0.9800    0.5052 N   0  0  0  0  0  0  0  0  0  0  0  0
   -2.2387   -0.4075    0.3201 H   0  0  0  0  0  0  0  0  0  0  0  0
   -0.1152   -0.2932    0.4814 C   0  0  1  0  0  0  0  0  0  0  0  0
    0.5044   -0.7956    1.2228 H   0  0  0  0  0  0  0  0  0  0  0  0
    0.5273   -0.4329   -0.9386 C   0  0  1  0  0  0  0  0  0  0  0  0
    0.0245   -1.2928   -1.3955 H   0  0  0  0  0  0  0  0  0  0  0  0
    0.2352    0.7615   -1.8625 C   0  0  0  0  0  0  0  0  0  0  0  0
    0.7486    1.6639   -1.5157 H   0  0  0  0  0  0  0  0  0  0  0  0
    0.5744    0.5437   -2.8800 H   0  0  0  0  0  0  0  0  0  0  0  0
   -0.8403    0.9622   -1.8992 H   0  0  0  0  0  0  0  0  0  0  0  0
    2.0378   -0.8015   -1.0123 C   0  0  0  0  0  0  0  0  0  0  0  0
    2.1692   -1.5400   -1.8101 H   0  0  0  0  0  0  0  0  0  0  0  0
    2.6037    0.0889   -1.3060 H   0  0  0  0  0  0  0  0  0  0  0  0
    2.7004   -1.3443    0.2577 C   0  0  0  0  0  0  0  0  0  0  0  0
    2.1710   -2.2320    0.6193 H   0  0  0  0  0  0  0  0  0  0  0  0
    3.7348   -1.6290    0.0425 H   0  0  0  0  0  0  0  0  0  0  0  0
    2.7160   -0.5854    1.0454 H   0  0  0  0  0  0  0  0  0  0  0  0
   -0.2327    1.1590    0.9905 C   0  0  0  0  0  0  0  0  0  0  0  0
   -1.2296    1.8240    0.7288 O   0  0  0  0  0  0  0  0  0  0  0  0
    0.6966    1.6637    1.8813 N   0  0  0  0  0  0  0  0  0  0  0  0
    1.4752    1.0639    2.1384 H   0  0  0  0  0  0  0  0  0  0  0  0
    0.5822    2.9784    2.5002 C   0  0  0  0  0  0  0  0  0  0  0  0
   -0.3390    3.0462    3.0886 H   0  0  0  0  0  0  0  0  0  0  0  0
    1.4315    3.1581    3.1663 H   0  0  0  0  0  0  0  0  0  0  0  0
    0.5707    3.7621    1.7354 H   0  0  0  0  0  0  0  0  0  0  0  0
  1  2  1  0  0  0  0
  2  3  1  0  0  0  0
  2  4  1  0  0  0  0
  2  5  1  0  0  0  0
  5  6  2  0  0  0  0
  5  7  1  0  0  0  0
  7  8  1  0  0  0  0
  7  9  1  0  0  0  0
  9 10  1  0  0  0  0
  9 11  1  0  0  0  0
  9 24  1  0  0  0  0
 11 12  1  0  0  0  0
 11 13  1  0  0  0  0
 11 17  1  0  0  0  0
 13 14  1  0  0  0  0
 13 15  1  0  0  0  0
 13 16  1  0  0  0  0
 17 18  1  0  0  0  0
 17 19  1  0  0  0  0
 17 20  1  0  0  0  0
 20 21  1  0  0  0  0
 20 22  1  0  0  0  0
 20 23  1  0  0  0  0
 24 25  2  0  0  0  0
 24 26  1  0  0  0  0
 26 27  1  0  0  0  0
 26 28  1  0  0  0  0
 28 29  1  0  0  0  0
 28 30  1  0  0  0  0
 28 31  1  0  0  0  0
M  END
$$$$

  -OEChem-03222214053D

 31 30  0     1  0  0  0  0  0999 V2000
   -3.0250   -3.8293    1.4611 H   0  0  0  0  0  0  0  0  0  0  0  0
   -3.0364   -2.8107    1.0631 C   0  0  0  0  0  0  0  0  0  0  0  0
   -3.6386   -2.1814    1.7231 H   0  0  0  0  0  0  0  0  0  0  0  0
   -3.4911   -2.8258    0.0696 H   0  0  0  0  0  0  0  0  0  0  0  0
   -1.6229   -2.2666    0.9767 C   0  0  0  0  0  0  0  0  0  0  0  0
   -0.6811   -2.9589    1.3298 O   0  0  0  0  0  0  0  0  0  0  0  0
   -1.4126   -0.9865    0.5077 N   0  0  0  0  0  0  0  0  0  0  0  0
   -2.2354   -0.4162    0.3193 H   0  0  0  0  0  0  0  0  0  0  0  0
   -0.1118   -0.2989    0.4769 C   0  0  1  0  0  0  0  0  0  0  0  0
    0.5176   -0.7988    1.2118 H   0  0  0  0  0  0  0  0  0  0  0  0
    0.5223   -0.4322   -0.9463 C   0  0  1  0  0  0  0  0  0  0  0  0
    0.0188   -1.2884   -1.4095 H   0  0  0  0  0  0  0  0  0  0  0  0
    0.2439    0.7714   -1.8617 C   0  0  0  0  0  0  0  0  0  0  0  0
    0.7641    1.6665   -1.5066 H   0  0  0  0  0  0  0  0  0  0  0  0
    0.5846    0.5588   -2.8798 H   0  0  0  0  0  0  0  0  0  0  0  0
   -0.8297    0.9817   -1.9001 H   0  0  0  0  0  0  0  0  0  0  0  0
    2.0297   -0.7986   -1.0121 C   0  0  0  0  0  0  0  0  0  0  0  0
    2.2099   -1.3212   -1.9575 H   0  0  0  0  0  0  0  0  0  0  0  0
    2.6178    0.1247   -1.0364 H   0  0  0  0  0  0  0  0  0  0  0  0
    2.5862   -1.6581    0.1275 C   0  0  0  0  0  0  0  0  0  0  0  0
    1.9559   -2.5389    0.2871 H   0  0  0  0  0  0  0  0  0  0  0  0
    3.5949   -1.9991   -0.1251 H   0  0  0  0  0  0  0  0  0  0  0  0
    2.6504   -1.0870    1.0581 H   0  0  0  0  0  0  0  0  0  0  0  0
   -0.2285    1.1527    0.9881 C   0  0  0  0  0  0  0  0  0  0  0  0
   -1.2254    1.8187    0.7296 O   0  0  0  0  0  0  0  0  0  0  0  0
    0.7057    1.6568    1.8741 N   0  0  0  0  0  0  0  0  0  0  0  0
    1.4871    1.0578    2.1246 H   0  0  0  0  0  0  0  0  0  0  0  0
    0.5985    2.9738    2.4895 C   0  0  0  0  0  0  0  0  0  0  0  0
   -0.3223    3.0482    3.0776 H   0  0  0  0  0  0  0  0  0  0  0  0
    1.4487    3.1505    3.1553 H   0  0  0  0  0  0  0  0  0  0  0  0
    0.5914    3.7555    1.7228 H   0  0  0  0  0  0  0  0  0  0  0  0
  1  2  1  0  0  0  0
  2  3  1  0  0  0  0
  2  4  1  0  0  0  0
  2  5  1  0  0  0  0
  5  6  2  0  0  0  0
  5  7  1  0  0  0  0
  7  8  1  0  0  0  0
  7  9  1  0  0  0  0
  9 10  1  0  0  0  0
  9 11  1  0  0  0  0
  9 24  1  0  0  0  0
 11 12  1  0  0  0  0
 11 13  1  0  0  0  0
 11 17  1  0  0  0  0
 13 14  1  0  0  0  0
 13 15  1  0  0  0  0
 13 16  1  0  0  0  0
 17 18  1  0  0  0  0
 17 19  1  0  0  0  0
 17 20  1  0  0  0  0
 20 21  1  0  0  0  0
 20 22  1  0  0  0  0
 20 23  1  0  0  0  0
 24 25  2  0  0  0  0
 24 26  1  0  0  0  0
 26 27  1  0  0  0  0
 26 28  1  0  0  0  0
 28 29  1  0  0  0  0
 28 30  1  0  0  0  0
 28 31  1  0  0  0  0
M  END
$$$$

  -OEChem-03222214053D

 31 30  0     1  0  0  0  0  0999 V2000
   -3.0041   -3.8389    1.4634 H   0  0  0  0  0  0  0  0  0  0  0  0
   -3.0190   -2.8198    1.0671 C   0  0  0  0  0  0  0  0  0  0  0  0
   -3.6193   -2.1925    1.7304 H   0  0  0  0  0  0  0  0  0  0  0  0
   -3.4783   -2.8341    0.0758 H   0  0  0  0  0  0  0  0  0  0  0  0
   -1.6068   -2.2729    0.9754 C   0  0  0  0  0  0  0  0  0  0  0  0
   -0.6620   -2.9621    1.3264 O   0  0  0  0  0  0  0  0  0  0  0  0
   -1.4019   -0.9918    0.5072 N   0  0  0  0  0  0  0  0  0  0  0  0
   -2.2268   -0.4233    0.3228 H   0  0  0  0  0  0  0  0  0  0  0  0
   -0.1024   -0.3030    0.4642 C   0  0  1  0  0  0  0  0  0  0  0  0
    0.5443   -0.8001    1.1867 H   0  0  0  0  0  0  0  0  0  0  0  0
    0.5150   -0.4320   -0.9655 C   0  0  1  0  0  0  0  0  0  0  0  0
    0.0054   -1.2768   -1.4423 H   0  0  0  0  0  0  0  0  0  0  0  0
    0.2592    0.7891   -1.8637 C   0  0  0  0  0  0  0  0  0  0  0  0
    0.7972    1.6691   -1.4974 H   0  0  0  0  0  0  0  0  0  0  0  0
    0.5953    0.5841   -2.8849 H   0  0  0  0  0  0  0  0  0  0  0  0
   -0.8103    1.0195   -1.8988 H   0  0  0  0  0  0  0  0  0  0  0  0
    2.0187   -0.7977   -1.0128 C   0  0  0  0  0  0  0  0  0  0  0  0
    2.2647   -1.0915   -2.0387 H   0  0  0  0  0  0  0  0  0  0  0  0
    2.6128    0.0911   -0.7765 H   0  0  0  0  0  0  0  0  0  0  0  0
    2.4597   -1.9271   -0.0747 C   0  0  0  0  0  0  0  0  0  0  0  0
    1.7749   -2.7778   -0.1501 H   0  0  0  0  0  0  0  0  0  0  0  0
    3.4619   -2.2668   -0.3530 H   0  0  0  0  0  0  0  0  0  0  0  0
    2.5003   -1.5927    0.9653 H   0  0  0  0  0  0  0  0  0  0  0  0
   -0.2212    1.1468    0.9812 C   0  0  0  0  0  0  0  0  0  0  0  0
   -1.2231    1.8093    0.7326 O   0  0  0  0  0  0  0  0  0  0  0  0
    0.7185    1.6531    1.8601 N   0  0  0  0  0  0  0  0  0  0  0  0
    1.5013    1.0548    2.1076 H   0  0  0  0  0  0  0  0  0  0  0  0
    0.6098    2.9675    2.4807 C   0  0  0  0  0  0  0  0  0  0  0  0
   -0.3024    3.0329    3.0830 H   0  0  0  0  0  0  0  0  0  0  0  0
    1.4686    3.1495    3.1339 H   0  0  0  0  0  0  0  0  0  0  0  0
    0.5850    3.7511    1.7162 H   0  0  0  0  0  0  0  0  0  0  0  0
  1  2  1  0  0  0  0
  2  3  1  0  0  0  0
  2  4  1  0  0  0  0
  2  5  1  0  0  0  0
  5  6  2  0  0  0  0
  5  7  1  0  0  0  0
  7  8  1  0  0  0  0
  7  9  1  0  0  0  0
  9 10  1  0  0  0  0
  9 11  1  0  0  0  0
  9 24  1  0  0  0  0
 11 12  1  0  0  0  0
 11 13  1  0  0  0  0
 11 17  1  0  0  0  0
 13 14  1  0  0  0  0
 13 15  1  0  0  0  0
 13 16  1  0  0  0  0
 17 18  1  0  0  0  0
 17 19  1  0  0  0  0
 17 20  1  0  0  0  0
 20 21  1  0  0  0  0
 20 22  1  0  0  0  0
 20 23  1  0  0  0  0
 24 25  2  0  0  0  0
 24 26  1  0  0  0  0
 26 27  1  0  0  0  0
 26 28  1  0  0  0  0
 28 29  1  0  0  0  0
 28 30  1  0  0  0  0
 28 31  1  0  0  0  0
M  END
$$$$

  -OEChem-03222214053D

 31 30  0     1  0  0  0  0  0999 V2000
   -2.9653   -3.8545    1.4693 H   0  0  0  0  0  0  0  0  0  0  0  0
   -2.9911   -2.8341    1.0768 C   0  0  0  0  0  0  0  0  0  0  0  0
   -3.5848   -2.2121    1.7509 H   0  0  0  0  0  0  0  0  0  0  0  0
   -3.4647   -2.8472    0.0923 H   0  0  0  0  0  0  0  0  0  0  0  0
   -1.5832   -2.2800    0.9662 C   0  0  0  0  0  0  0  0  0  0  0  0
   -0.6301   -2.9665    1.3000 O   0  0  0  0  0  0  0  0  0  0  0  0
   -1.3901   -0.9960    0.5008 N   0  0  0  0  0  0  0  0  0  0  0  0
   -2.2193   -0.4291    0.3303 H   0  0  0  0  0  0  0  0  0  0  0  0
   -0.0931   -0.3044    0.4443 C   0  0  1  0  0  0  0  0  0  0  0  0
    0.5737   -0.7987    1.1519 H   0  0  0  0  0  0  0  0  0  0  0  0
    0.5048   -0.4294   -0.9919 C   0  0  1  0  0  0  0  0  0  0  0  0
   -0.0110   -1.2598   -1.4871 H   0  0  0  0  0  0  0  0  0  0  0  0
    0.2705    0.8122   -1.8684 C   0  0  0  0  0  0  0  0  0  0  0  0
    0.8298    1.6739   -1.4904 H   0  0  0  0  0  0  0  0  0  0  0  0
    0.5960    0.6177   -2.8950 H   0  0  0  0  0  0  0  0  0  0  0  0
   -0.7940    1.0662   -1.8946 H   0  0  0  0  0  0  0  0  0  0  0  0
    2.0061   -0.7936   -1.0072 C   0  0  0  0  0  0  0  0  0  0  0  0
    2.3392   -0.8518   -2.0487 H   0  0  0  0  0  0  0  0  0  0  0  0
    2.5812    0.0016   -0.5220 H   0  0  0  0  0  0  0  0  0  0  0  0
    2.3354   -2.1314   -0.3326 C   0  0  0  0  0  0  0  0  0  0  0  0
    1.6834   -2.9228   -0.7158 H   0  0  0  0  0  0  0  0  0  0  0  0
    3.3728   -2.4064   -0.5456 H   0  0  0  0  0  0  0  0  0  0  0  0
    2.2210   -2.0792    0.7529 H   0  0  0  0  0  0  0  0  0  0  0  0
   -0.2133    1.1422    0.9704 C   0  0  0  0  0  0  0  0  0  0  0  0
   -1.2203    1.8020    0.7358 O   0  0  0  0  0  0  0  0  0  0  0  0
    0.7341    1.6487    1.8409 N   0  0  0  0  0  0  0  0  0  0  0  0
    1.5203    1.0514    2.0798 H   0  0  0  0  0  0  0  0  0  0  0  0
    0.6244    2.9587    2.4707 C   0  0  0  0  0  0  0  0  0  0  0  0
   -0.2772    3.0121    3.0900 H   0  0  0  0  0  0  0  0  0  0  0  0
    1.4934    3.1460    3.1086 H   0  0  0  0  0  0  0  0  0  0  0  0
    0.5775    3.7460    1.7109 H   0  0  0  0  0  0  0  0  0  0  0  0
  1  2  1  0  0  0  0
  2  3  1  0  0  0  0
  2  4  1  0  0  0  0
  2  5  1  0  0  0  0
  5  6  2  0  0  0  0
  5  7  1  0  0  0  0
  7  8  1  0  0  0  0
  7  9  1  0  0  0  0
  9 10  1  0  0  0  0
  9 11  1  0  0  0  0
  9 24  1  0  0  0  0
 11 12  1  0  0  0  0
 11 13  1  0  0  0  0
 11 17  1  0  0  0  0
 13 14  1  0  0  0  0
 13 15  1  0  0  0  0
 13 16  1  0  0  0  0
 17 18  1  0  0  0  0
 17 19  1  0  0  0  0
 17 20  1  0  0  0  0
 20 21  1  0  0  0  0
 20 22  1  0  0  0  0
 20 23  1  0  0  0  0
 24 25  2  0  0  0  0
 24 26  1  0  0  0  0
 26 27  1  0  0  0  0
 26 28  1  0  0  0  0
 28 29  1  0  0  0  0
 28 30  1  0  0  0  0
 28 31  1  0  0  0  0
M  END
$$$$

  -OEChem-03222214053D

 31 30  0     1  0  0  0  0  0999 V2000
   -2.9368   -3.8682    1.4635 H   0  0  0  0  0  0  0  0  0  0  0  0
   -2.9667   -2.8473    1.0725 C   0  0  0  0  0  0  0  0  0  0  0  0
   -3.5656   -2.2294    1.7460 H   0  0  0  0  0  0  0  0  0  0  0  0
   -3.4375   -2.8613    0.0866 H   0  0  0  0  0  0  0  0  0  0  0  0
   -1.5612   -2.2864    0.9665 C   0  0  0  0  0  0  0  0  0  0  0  0
   -0.6063   -2.9699    1.3001 O   0  0  0  0  0  0  0  0  0  0  0  0
   -1.3742   -1.0005    0.5046 N   0  0  0  0  0  0  0  0  0  0  0  0
   -2.2066   -0.4387    0.3339 H   0  0  0  0  0  0  0  0  0  0  0  0
   -0.0814   -0.3030    0.4306 C   0  0  1  0  0  0  0  0  0  0  0  0
    0.6060   -0.8030    1.1185 H   0  0  0  0  0  0  0  0  0  0  0  0
    0.4930   -0.4279   -1.0139 C   0  0  1  0  0  0  0  0  0  0  0  0
   -0.0286   -1.2492   -1.5180 H   0  0  0  0  0  0  0  0  0  0  0  0
    0.2638    0.8248   -1.8753 C   0  0  0  0  0  0  0  0  0  0  0  0
    0.8357    1.6766   -1.4940 H   0  0  0  0  0  0  0  0  0  0  0  0
    0.5771    0.6371   -2.9069 H   0  0  0  0  0  0  0  0  0  0  0  0
   -0.7983    1.0897   -1.8885 H   0  0  0  0  0  0  0  0  0  0  0  0
    1.9943   -0.7859   -1.0020 C   0  0  0  0  0  0  0  0  0  0  0  0
    2.4151   -0.6108   -1.9978 H   0  0  0  0  0  0  0  0  0  0  0  0
    2.5285   -0.1355   -0.3020 H   0  0  0  0  0  0  0  0  0  0  0  0
    2.2460   -2.2535   -0.6414 C   0  0  0  0  0  0  0  0  0  0  0  0
    1.7053   -2.9152   -1.3252 H   0  0  0  0  0  0  0  0  0  0  0  0
    3.3141   -2.4783   -0.7169 H   0  0  0  0  0  0  0  0  0  0  0  0
    1.9238   -2.4705    0.3804 H   0  0  0  0  0  0  0  0  0  0  0  0
   -0.2010    1.1411    0.9649 C   0  0  0  0  0  0  0  0  0  0  0  0
   -1.2138    1.7973    0.7452 O   0  0  0  0  0  0  0  0  0  0  0  0
    0.7563    1.6503    1.8231 N   0  0  0  0  0  0  0  0  0  0  0  0
    1.5447    1.0534    2.0560 H   0  0  0  0  0  0  0  0  0  0  0  0
    0.6425    2.9535    2.4663 C   0  0  0  0  0  0  0  0  0  0  0  0
   -0.2597    2.9979    3.0854 H   0  0  0  0  0  0  0  0  0  0  0  0
    1.5103    3.1366    3.1072 H   0  0  0  0  0  0  0  0  0  0  0  0
    0.5939    3.7483    1.7147 H   0  0  0  0  0  0  0  0  0  0  0  0
  1  2  1  0  0  0  0
  2  3  1  0  0  0  0
  2  4  1  0  0  0  0
  2  5  1  0  0  0  0
  5  6  2  0  0  0  0
  5  7  1  0  0  0  0
  7  8  1  0  0  0  0
  7  9  1  0  0  0  0
  9 10  1  0  0  0  0
  9 11  1  0  0  0  0
  9 24  1  0  0  0  0
 11 12  1  0  0  0  0
 11 13  1  0  0  0  0
 11 17  1  0  0  0  0
 13 14  1  0  0  0  0
 13 15  1  0  0  0  0
 13 16  1  0  0  0  0
 17 18  1  0  0  0  0
 17 19  1  0  0  0  0
 17 20  1  0  0  0  0
 20 21  1  0  0  0  0
 20 22  1  0  0  0  0
 20 23  1  0  0  0  0
 24 25  2  0  0  0  0
 24 26  1  0  0  0  0
 26 27  1  0  0  0  0
 26 28  1  0  0  0  0
 28 29  1  0  0  0  0
 28 30  1  0  0  0  0
 28 31  1  0  0  0  0
M  END
$$$$

  -OEChem-03222214053D

 31 30  0     1  0  0  0  0  0999 V2000
   -2.9213   -3.8811    1.4582 H   0  0  0  0  0  0  0  0  0  0  0  0
   -2.9584   -2.8596    1.0691 C   0  0  0  0  0  0  0  0  0  0  0  0
   -3.5570   -2.2459    1.7468 H   0  0  0  0  0  0  0  0  0  0  0  0
   -3.4344   -2.8745    0.0857 H   0  0  0  0  0  0  0  0  0  0  0  0
   -1.5561   -2.2914    0.9573 C   0  0  0  0  0  0  0  0  0  0  0  0
   -0.5969   -2.9716    1.2856 O   0  0  0  0  0  0  0  0  0  0  0  0
   -1.3759   -1.0025    0.5005 N   0  0  0  0  0  0  0  0  0  0  0  0
   -2.2109   -0.4432    0.3344 H   0  0  0  0  0  0  0  0  0  0  0  0
   -0.0850   -0.3010    0.4233 C   0  0  1  0  0  0  0  0  0  0  0  0
    0.6043   -0.8104    1.1040 H   0  0  0  0  0  0  0  0  0  0  0  0
    0.4877   -0.4236   -1.0215 C   0  0  1  0  0  0  0  0  0  0  0  0
   -0.0359   -1.2403   -1.5311 H   0  0  0  0  0  0  0  0  0  0  0  0
    0.2588    0.8336   -1.8780 C   0  0  0  0  0  0  0  0  0  0  0  0
    0.8310    1.6842   -1.4940 H   0  0  0  0  0  0  0  0  0  0  0  0
    0.5721    0.6494   -2.9103 H   0  0  0  0  0  0  0  0  0  0  0  0
   -0.8031    1.0993   -1.8901 H   0  0  0  0  0  0  0  0  0  0  0  0
    1.9918   -0.7769   -0.9894 C   0  0  0  0  0  0  0  0  0  0  0  0
    2.4845   -0.3729   -1.8799 H   0  0  0  0  0  0  0  0  0  0  0  0
    2.4763   -0.3215   -0.1200 H   0  0  0  0  0  0  0  0  0  0  0  0
    2.2172   -2.2901   -0.9851 C   0  0  0  0  0  0  0  0  0  0  0  0
    1.7818   -2.7474   -1.8791 H   0  0  0  0  0  0  0  0  0  0  0  0
    3.2889   -2.5097   -0.9715 H   0  0  0  0  0  0  0  0  0  0  0  0
    1.7601   -2.7450   -0.1014 H   0  0  0  0  0  0  0  0  0  0  0  0
   -0.2004    1.1407    0.9643 C   0  0  0  0  0  0  0  0  0  0  0  0
   -1.2134    1.7986    0.7517 O   0  0  0  0  0  0  0  0  0  0  0  0
    0.7623    1.6462    1.8187 N   0  0  0  0  0  0  0  0  0  0  0  0
    1.5557    1.0513    2.0389 H   0  0  0  0  0  0  0  0  0  0  0  0
    0.6583    2.9510    2.4603 C   0  0  0  0  0  0  0  0  0  0  0  0
   -0.2378    2.9996    3.0879 H   0  0  0  0  0  0  0  0  0  0  0  0
    1.5327    3.1322    3.0927 H   0  0  0  0  0  0  0  0  0  0  0  0
    0.6056    3.7449    1.7079 H   0  0  0  0  0  0  0  0  0  0  0  0
  1  2  1  0  0  0  0
  2  3  1  0  0  0  0
  2  4  1  0  0  0  0
  2  5  1  0  0  0  0
  5  6  2  0  0  0  0
  5  7  1  0  0  0  0
  7  8  1  0  0  0  0
  7  9  1  0  0  0  0
  9 10  1  0  0  0  0
  9 11  1  0  0  0  0
  9 24  1  0  0  0  0
 11 12  1  0  0  0  0
 11 13  1  0  0  0  0
 11 17  1  0  0  0  0
 13 14  1  0  0  0  0
 13 15  1  0  0  0  0
 13 16  1  0  0  0  0
 17 18  1  0  0  0  0
 17 19  1  0  0  0  0
 17 20  1  0  0  0  0
 20 21  1  0  0  0  0
 20 22  1  0  0  0  0
 20 23  1  0  0  0  0
 24 25  2  0  0  0  0
 24 26  1  0  0  0  0
 26 27  1  0  0  0  0
 26 28  1  0  0  0  0
 28 29  1  0  0  0  0
 28 30  1  0  0  0  0
 28 31  1  0  0  0  0
M  END
$$$$

  -OEChem-03222214053D

 31 30  0     1  0  0  0  0  0999 V2000
   -2.9184   -3.8726    1.4583 H   0  0  0  0  0  0  0  0  0  0  0  0
   -2.9576   -2.8485    1.0769 C   0  0  0  0  0  0  0  0  0  0  0  0
   -3.5417   -2.2369    1.7689 H   0  0  0  0  0  0  0  0  0  0  0  0
   -3.4501   -2.8544    0.1017 H   0  0  0  0  0  0  0  0  0  0  0  0
   -1.5553   -2.2852    0.9445 C   0  0  0  0  0  0  0  0  0  0  0  0
   -0.5917   -2.9721    1.2460 O   0  0  0  0  0  0  0  0  0  0  0  0
   -1.3778   -0.9951    0.4895 N   0  0  0  0  0  0  0  0  0  0  0  0
   -2.2128   -0.4310    0.3399 H   0  0  0  0  0  0  0  0  0  0  0  0
   -0.0861   -0.2949    0.4201 C   0  0  1  0  0  0  0  0  0  0  0  0
    0.5930   -0.8069    1.1087 H   0  0  0  0  0  0  0  0  0  0  0  0
    0.4950   -0.4224   -1.0208 C   0  0  1  0  0  0  0  0  0  0  0  0
   -0.0318   -1.2419   -1.5230 H   0  0  0  0  0  0  0  0  0  0  0  0
    0.2586    0.8266   -1.8873 C   0  0  0  0  0  0  0  0  0  0  0  0
    0.8186    1.6861   -1.5052 H   0  0  0  0  0  0  0  0  0  0  0  0
    0.5812    0.6382   -2.9161 H   0  0  0  0  0  0  0  0  0  0  0  0
   -0.8060    1.0808   -1.9077 H   0  0  0  0  0  0  0  0  0  0  0  0
    2.0024   -0.7785   -0.9880 C   0  0  0  0  0  0  0  0  0  0  0  0
    2.5474   -0.1645   -1.7125 H   0  0  0  0  0  0  0  0  0  0  0  0
    2.4381   -0.5673   -0.0068 H   0  0  0  0  0  0  0  0  0  0  0  0
    2.2354   -2.2461   -1.3505 C   0  0  0  0  0  0  0  0  0  0  0  0
    1.8702   -2.4564   -2.3607 H   0  0  0  0  0  0  0  0  0  0  0  0
    3.3041   -2.4778   -1.3134 H   0  0  0  0  0  0  0  0  0  0  0  0
    1.7134   -2.9007   -0.6448 H   0  0  0  0  0  0  0  0  0  0  0  0
   -0.2008    1.1464    0.9616 C   0  0  0  0  0  0  0  0  0  0  0  0
   -1.2135    1.8044    0.7481 O   0  0  0  0  0  0  0  0  0  0  0  0
    0.7587    1.6489    1.8211 N   0  0  0  0  0  0  0  0  0  0  0  0
    1.5490    1.0515    2.0455 H   0  0  0  0  0  0  0  0  0  0  0  0
    0.6489    2.9485    2.4722 C   0  0  0  0  0  0  0  0  0  0  0  0
   -0.2387    2.9821    3.1128 H   0  0  0  0  0  0  0  0  0  0  0  0
    1.5305    3.1364    3.0926 H   0  0  0  0  0  0  0  0  0  0  0  0
    0.5757    3.7463    1.7255 H   0  0  0  0  0  0  0  0  0  0  0  0
  1  2  1  0  0  0  0
  2  3  1  0  0  0  0
  2  4  1  0  0  0  0
  2  5  1  0  0  0  0
  5  6  2  0  0  0  0
  5  7  1  0  0  0  0
  7  8  1  0  0  0  0
  7  9  1  0  0  0  0
  9 10  1  0  0  0  0
  9 11  1  0  0  0  0
  9 24  1  0  0  0  0
 11 12  1  0  0  0  0
 11 13  1  0  0  0  0
 11 17  1  0  0  0  0
 13 14  1  0  0  0  0
 13 15  1  0  0  0  0
 13 16  1  0  0  0  0
 17 18  1  0  0  0  0
 17 19  1  0  0  0  0
 17 20  1  0  0  0  0
 20 21  1  0  0  0  0
 20 22  1  0  0  0  0
 20 23  1  0  0  0  0
 24 25  2  0  0  0  0
 24 26  1  0  0  0  0
 26 27  1  0  0  0  0
 26 28  1  0  0  0  0
 28 29  1  0  0  0  0
 28 30  1  0  0  0  0
 28 31  1  0  0  0  0
M  END
$$$$

  -OEChem-03222214053D

 31 30  0     1  0  0  0  0  0999 V2000
   -2.9317   -3.8633    1.4612 H   0  0  0  0  0  0  0  0  0  0  0  0
   -2.9663   -2.8422    1.0714 C   0  0  0  0  0  0  0  0  0  0  0  0
   -3.5568   -2.2248    1.7526 H   0  0  0  0  0  0  0  0  0  0  0  0
   -3.4486   -2.8552    0.0911 H   0  0  0  0  0  0  0  0  0  0  0  0
   -1.5622   -2.2814    0.9489 C   0  0  0  0  0  0  0  0  0  0  0  0
   -0.6013   -2.9707    1.2540 O   0  0  0  0  0  0  0  0  0  0  0  0
   -1.3801   -0.9923    0.4934 N   0  0  0  0  0  0  0  0  0  0  0  0
   -2.2134   -0.4266    0.3405 H   0  0  0  0  0  0  0  0  0  0  0  0
   -0.0868   -0.2941    0.4319 C   0  0  1  0  0  0  0  0  0  0  0  0
    0.5828   -0.8063    1.1288 H   0  0  0  0  0  0  0  0  0  0  0  0
    0.5028   -0.4188   -1.0060 C   0  0  1  0  0  0  0  0  0  0  0  0
   -0.0220   -1.2498   -1.4907 H   0  0  0  0  0  0  0  0  0  0  0  0
    0.2482    0.8129   -1.8905 C   0  0  0  0  0  0  0  0  0  0  0  0
    0.7874    1.6884   -1.5153 H   0  0  0  0  0  0  0  0  0  0  0  0
    0.5829    0.6165   -2.9138 H   0  0  0  0  0  0  0  0  0  0  0  0
   -0.8210    1.0456   -1.9214 H   0  0  0  0  0  0  0  0  0  0  0  0
    2.0121   -0.7770   -0.9887 C   0  0  0  0  0  0  0  0  0  0  0  0
    2.5907    0.0128   -1.4792 H   0  0  0  0  0  0  0  0  0  0  0  0
    2.3920   -0.8547    0.0341 H   0  0  0  0  0  0  0  0  0  0  0  0
    2.2817   -2.1006   -1.7068 C   0  0  0  0  0  0  0  0  0  0  0  0
    1.9529   -2.0459   -2.7493 H   0  0  0  0  0  0  0  0  0  0  0  0
    3.3523   -2.3257   -1.6919 H   0  0  0  0  0  0  0  0  0  0  0  0
    1.7487   -2.9190   -1.2116 H   0  0  0  0  0  0  0  0  0  0  0  0
   -0.1991    1.1484    0.9697 C   0  0  0  0  0  0  0  0  0  0  0  0
   -1.2076    1.8103    0.7484 O   0  0  0  0  0  0  0  0  0  0  0  0
    0.7575    1.6485    1.8339 N   0  0  0  0  0  0  0  0  0  0  0  0
    1.5468    1.0503    2.0600 H   0  0  0  0  0  0  0  0  0  0  0  0
    0.6525    2.9528    2.4760 C   0  0  0  0  0  0  0  0  0  0  0  0
   -0.2584    3.0089    3.0814 H   0  0  0  0  0  0  0  0  0  0  0  0
    1.5127    3.1238    3.1302 H   0  0  0  0  0  0  0  0  0  0  0  0
    0.6264    3.7483    1.7240 H   0  0  0  0  0  0  0  0  0  0  0  0
  1  2  1  0  0  0  0
  2  3  1  0  0  0  0
  2  4  1  0  0  0  0
  2  5  1  0  0  0  0
  5  6  2  0  0  0  0
  5  7  1  0  0  0  0
  7  8  1  0  0  0  0
  7  9  1  0  0  0  0
  9 10  1  0  0  0  0
  9 11  1  0  0  0  0
  9 24  1  0  0  0  0
 11 12  1  0  0  0  0
 11 13  1  0  0  0  0
 11 17  1  0  0  0  0
 13 14  1  0  0  0  0
 13 15  1  0  0  0  0
 13 16  1  0  0  0  0
 17 18  1  0  0  0  0
 17 19  1  0  0  0  0
 17 20  1  0  0  0  0
 20 21  1  0  0  0  0
 20 22  1  0  0  0  0
 20 23  1  0  0  0  0
 24 25  2  0  0  0  0
 24 26  1  0  0  0  0
 26 27  1  0  0  0  0
 26 28  1  0  0  0  0
 28 29  1  0  0  0  0
 28 30  1  0  0  0  0
 28 31  1  0  0  0  0
M  END
$$$$

  -OEChem-03222214053D

 31 30  0     1  0  0  0  0  0999 V2000
   -2.9401   -3.8567    1.4644 H   0  0  0  0  0  0  0  0  0  0  0  0
   -2.9723   -2.8350    1.0759 C   0  0  0  0  0  0  0  0  0  0  0  0
   -3.5599   -2.2166    1.7586 H   0  0  0  0  0  0  0  0  0  0  0  0
   -3.4563   -2.8454    0.0963 H   0  0  0  0  0  0  0  0  0  0  0  0
   -1.5664   -2.2784    0.9529 C   0  0  0  0  0  0  0  0  0  0  0  0
   -0.6078   -2.9678    1.2646 O   0  0  0  0  0  0  0  0  0  0  0  0
   -1.3794   -0.9912    0.4942 N   0  0  0  0  0  0  0  0  0  0  0  0
   -2.2105   -0.4235    0.3368 H   0  0  0  0  0  0  0  0  0  0  0  0
   -0.0834   -0.2976    0.4358 C   0  0  1  0  0  0  0  0  0  0  0  0
    0.5847   -0.8074    1.1352 H   0  0  0  0  0  0  0  0  0  0  0  0
    0.5087   -0.4164   -1.0017 C   0  0  1  0  0  0  0  0  0  0  0  0
   -0.0136   -1.2546   -1.4767 H   0  0  0  0  0  0  0  0  0  0  0  0
    0.2542    0.8096   -1.8941 C   0  0  0  0  0  0  0  0  0  0  0  0
    0.7872    1.6895   -1.5205 H   0  0  0  0  0  0  0  0  0  0  0  0
    0.5954    0.6107   -2.9146 H   0  0  0  0  0  0  0  0  0  0  0  0
   -0.8157    1.0377   -1.9310 H   0  0  0  0  0  0  0  0  0  0  0  0
    2.0148   -0.7795   -0.9882 C   0  0  0  0  0  0  0  0  0  0  0  0
    2.6188    0.1097   -1.1966 H   0  0  0  0  0  0  0  0  0  0  0  0
    2.3200   -1.1511   -0.0057 H   0  0  0  0  0  0  0  0  0  0  0  0
    2.3376   -1.8736   -2.0083 C   0  0  0  0  0  0  0  0  0  0  0  0
    2.0672   -1.5499   -3.0180 H   0  0  0  0  0  0  0  0  0  0  0  0
    3.4081   -2.0989   -1.9911 H   0  0  0  0  0  0  0  0  0  0  0  0
    1.7879   -2.7908   -1.7738 H   0  0  0  0  0  0  0  0  0  0  0  0
   -0.1967    1.1463    0.9698 C   0  0  0  0  0  0  0  0  0  0  0  0
   -1.2032    1.8087    0.7413 O   0  0  0  0  0  0  0  0  0  0  0  0
    0.7558    1.6483    1.8374 N   0  0  0  0  0  0  0  0  0  0  0  0
    1.5442    1.0507    2.0684 H   0  0  0  0  0  0  0  0  0  0  0  0
    0.6462    2.9527    2.4790 C   0  0  0  0  0  0  0  0  0  0  0  0
   -0.2588    3.0028    3.0935 H   0  0  0  0  0  0  0  0  0  0  0  0
    1.5117    3.1312    3.1241 H   0  0  0  0  0  0  0  0  0  0  0  0
    0.6058    3.7474    1.7268 H   0  0  0  0  0  0  0  0  0  0  0  0
  1  2  1  0  0  0  0
  2  3  1  0  0  0  0
  2  4  1  0  0  0  0
  2  5  1  0  0  0  0
  5  6  2  0  0  0  0
  5  7  1  0  0  0  0
  7  8  1  0  0  0  0
  7  9  1  0  0  0  0
  9 10  1  0  0  0  0
  9 11  1  0  0  0  0
  9 24  1  0  0  0  0
 11 12  1  0  0  0  0
 11 13  1  0  0  0  0
 11 17  1  0  0  0  0
 13 14  1  0  0  0  0
 13 15  1  0  0  0  0
 13 16  1  0  0  0  0
 17 18  1  0  0  0  0
 17 19  1  0  0  0  0
 17 20  1  0  0  0  0
 20 21  1  0  0  0  0
 20 22  1  0  0  0  0
 20 23  1  0  0  0  0
 24 25  2  0  0  0  0
 24 26  1  0  0  0  0
 26 27  1  0  0  0  0
 26 28  1  0  0  0  0
 28 29  1  0  0  0  0
 28 30  1  0  0  0  0
 28 31  1  0  0  0  0
M  END
$$$$

  -OEChem-03222214053D

 31 30  0     1  0  0  0  0  0999 V2000
   -2.9401   -3.8559    1.4699 H   0  0  0  0  0  0  0  0  0  0  0  0
   -2.9730   -2.8344    1.0812 C   0  0  0  0  0  0  0  0  0  0  0  0
   -3.5565   -2.2151    1.7667 H   0  0  0  0  0  0  0  0  0  0  0  0
   -3.4619   -2.8445    0.1041 H   0  0  0  0  0  0  0  0  0  0  0  0
   -1.5674   -2.2793    0.9498 C   0  0  0  0  0  0  0  0  0  0  0  0
   -0.6073   -2.9689    1.2564 O   0  0  0  0  0  0  0  0  0  0  0  0
   -1.3820   -0.9914    0.4924 N   0  0  0  0  0  0  0  0  0  0  0  0
   -2.2137   -0.4228    0.3408 H   0  0  0  0  0  0  0  0  0  0  0  0
   -0.0862   -0.2981    0.4284 C   0  0  1  0  0  0  0  0  0  0  0  0
    0.5878   -0.8067    1.1233 H   0  0  0  0  0  0  0  0  0  0  0  0
    0.5010   -0.4148   -1.0112 C   0  0  1  0  0  0  0  0  0  0  0  0
   -0.0138   -1.2569   -1.4874 H   0  0  0  0  0  0  0  0  0  0  0  0
    0.2421    0.8163   -1.8966 C   0  0  0  0  0  0  0  0  0  0  0  0
    0.7908    1.6893   -1.5296 H   0  0  0  0  0  0  0  0  0  0  0  0
    0.5586    0.6212   -2.9252 H   0  0  0  0  0  0  0  0  0  0  0  0
   -0.8262    1.0544   -1.9126 H   0  0  0  0  0  0  0  0  0  0  0  0
    2.0040   -0.7775   -0.9838 C   0  0  0  0  0  0  0  0  0  0  0  0
    2.6080    0.1327   -0.9091 H   0  0  0  0  0  0  0  0  0  0  0  0
    2.2287   -1.3947   -0.1082 H   0  0  0  0  0  0  0  0  0  0  0  0
    2.4216   -1.5838   -2.2165 C   0  0  0  0  0  0  0  0  0  0  0  0
    2.2601   -1.0068   -3.1316 H   0  0  0  0  0  0  0  0  0  0  0  0
    3.4837   -1.8392   -2.1535 H   0  0  0  0  0  0  0  0  0  0  0  0
    1.8471   -2.5132   -2.2809 H   0  0  0  0  0  0  0  0  0  0  0  0
   -0.1971    1.1448    0.9658 C   0  0  0  0  0  0  0  0  0  0  0  0
   -1.2061    1.8068    0.7473 O   0  0  0  0  0  0  0  0  0  0  0  0
    0.7604    1.6443    1.8296 N   0  0  0  0  0  0  0  0  0  0  0  0
    1.5489    1.0451    2.0558 H   0  0  0  0  0  0  0  0  0  0  0  0
    0.6541    2.9466    2.4756 C   0  0  0  0  0  0  0  0  0  0  0  0
   -0.2462    2.9932    3.0972 H   0  0  0  0  0  0  0  0  0  0  0  0
    1.5244    3.1248    3.1143 H   0  0  0  0  0  0  0  0  0  0  0  0
    0.6070    3.7433    1.7257 H   0  0  0  0  0  0  0  0  0  0  0  0
  1  2  1  0  0  0  0
  2  3  1  0  0  0  0
  2  4  1  0  0  0  0
  2  5  1  0  0  0  0
  5  6  2  0  0  0  0
  5  7  1  0  0  0  0
  7  8  1  0  0  0  0
  7  9  1  0  0  0  0
  9 10  1  0  0  0  0
  9 11  1  0  0  0  0
  9 24  1  0  0  0  0
 11 12  1  0  0  0  0
 11 13  1  0  0  0  0
 11 17  1  0  0  0  0
 13 14  1  0  0  0  0
 13 15  1  0  0  0  0
 13 16  1  0  0  0  0
 17 18  1  0  0  0  0
 17 19  1  0  0  0  0
 17 20  1  0  0  0  0
 20 21  1  0  0  0  0
 20 22  1  0  0  0  0
 20 23  1  0  0  0  0
 24 25  2  0  0  0  0
 24 26  1  0  0  0  0
 26 27  1  0  0  0  0
 26 28  1  0  0  0  0
 28 29  1  0  0  0  0
 28 30  1  0  0  0  0
 28 31  1  0  0  0  0
M  END
$$$$

  -OEChem-03222214053D

 31 30  0     1  0  0  0  0  0999 V2000
   -2.9290   -3.8637    1.4711 H   0  0  0  0  0  0  0  0  0  0  0  0
   -2.9685   -2.8409    1.0860 C   0  0  0  0  0  0  0  0  0  0  0  0
   -3.5448   -2.2247    1.7805 H   0  0  0  0  0  0  0  0  0  0  0  0
   -3.4693   -2.8489    0.1150 H   0  0  0  0  0  0  0  0  0  0  0  0
   -1.5654   -2.2827    0.9403 C   0  0  0  0  0  0  0  0  0  0  0  0
   -0.6008   -2.9724    1.2322 O   0  0  0  0  0  0  0  0  0  0  0  0
   -1.3866   -0.9924    0.4873 N   0  0  0  0  0  0  0  0  0  0  0  0
   -2.2203   -0.4237    0.3483 H   0  0  0  0  0  0  0  0  0  0  0  0
   -0.0924   -0.2973    0.4154 C   0  0  1  0  0  0  0  0  0  0  0  0
    0.5908   -0.8077    1.1011 H   0  0  0  0  0  0  0  0  0  0  0  0
    0.4848   -0.4121   -1.0270 C   0  0  1  0  0  0  0  0  0  0  0  0
   -0.0214   -1.2546   -1.5111 H   0  0  0  0  0  0  0  0  0  0  0  0
    0.2190    0.8292   -1.8985 C   0  0  0  0  0  0  0  0  0  0  0  0
    0.8013    1.6875   -1.5488 H   0  0  0  0  0  0  0  0  0  0  0  0
    0.4863    0.6343   -2.9406 H   0  0  0  0  0  0  0  0  0  0  0  0
   -0.8433    1.0916   -1.8726 H   0  0  0  0  0  0  0  0  0  0  0  0
    1.9855   -0.7727   -0.9758 C   0  0  0  0  0  0  0  0  0  0  0  0
    2.5642    0.0921   -0.6356 H   0  0  0  0  0  0  0  0  0  0  0  0
    2.1399   -1.5827   -0.2549 H   0  0  0  0  0  0  0  0  0  0  0  0
    2.5251   -1.2543   -2.3258 C   0  0  0  0  0  0  0  0  0  0  0  0
    2.4965   -0.4526   -3.0690 H   0  0  0  0  0  0  0  0  0  0  0  0
    3.5641   -1.5797   -2.2162 H   0  0  0  0  0  0  0  0  0  0  0  0
    1.9356   -2.0993   -2.6952 H   0  0  0  0  0  0  0  0  0  0  0  0
   -0.1994    1.1432    0.9606 C   0  0  0  0  0  0  0  0  0  0  0  0
   -1.2116    1.8050    0.7561 O   0  0  0  0  0  0  0  0  0  0  0  0
    0.7655    1.6392    1.8179 N   0  0  0  0  0  0  0  0  0  0  0  0
    1.5573    1.0403    2.0334 H   0  0  0  0  0  0  0  0  0  0  0  0
    0.6665    2.9405    2.4672 C   0  0  0  0  0  0  0  0  0  0  0  0
   -0.2210    2.9829    3.1075 H   0  0  0  0  0  0  0  0  0  0  0  0
    1.5492    3.1215    3.0878 H   0  0  0  0  0  0  0  0  0  0  0  0
    0.6005    3.7379    1.7195 H   0  0  0  0  0  0  0  0  0  0  0  0
  1  2  1  0  0  0  0
  2  3  1  0  0  0  0
  2  4  1  0  0  0  0
  2  5  1  0  0  0  0
  5  6  2  0  0  0  0
  5  7  1  0  0  0  0
  7  8  1  0  0  0  0
  7  9  1  0  0  0  0
  9 10  1  0  0  0  0
  9 11  1  0  0  0  0
  9 24  1  0  0  0  0
 11 12  1  0  0  0  0
 11 13  1  0  0  0  0
 11 17  1  0  0  0  0
 13 14  1  0  0  0  0
 13 15  1  0  0  0  0
 13 16  1  0  0  0  0
 17 18  1  0  0  0  0
 17 19  1  0  0  0  0
 17 20  1  0  0  0  0
 20 21  1  0  0  0  0
 20 22  1  0  0  0  0
 20 23  1  0  0  0  0
 24 25  2  0  0  0  0
 24 26  1  0  0  0  0
 26 27  1  0  0  0  0
 26 28  1  0  0  0  0
 28 29  1  0  0  0  0
 28 30  1  0  0  0  0
 28 31  1  0  0  0  0
M  END
$$$$

  -OEChem-03222214053D

 31 30  0     1  0  0  0  0  0999 V2000
   -2.9079   -3.8594    1.4778 H   0  0  0  0  0  0  0  0  0  0  0  0
   -2.9509   -2.8368    1.0927 C   0  0  0  0  0  0  0  0  0  0  0  0
   -3.5199   -2.2201    1.7927 H   0  0  0  0  0  0  0  0  0  0  0  0
   -3.4614   -2.8452    0.1266 H   0  0  0  0  0  0  0  0  0  0  0  0
   -1.5494   -2.2788    0.9328 C   0  0  0  0  0  0  0  0  0  0  0  0
   -0.5814   -2.9706    1.2082 O   0  0  0  0  0  0  0  0  0  0  0  0
   -1.3761   -0.9854    0.4869 N   0  0  0  0  0  0  0  0  0  0  0  0
   -2.2106   -0.4132    0.3666 H   0  0  0  0  0  0  0  0  0  0  0  0
   -0.0819   -0.2922    0.4041 C   0  0  1  0  0  0  0  0  0  0  0  0
    0.6152   -0.7987    1.0796 H   0  0  0  0  0  0  0  0  0  0  0  0
    0.4703   -0.4054   -1.0526 C   0  0  1  0  0  0  0  0  0  0  0  0
   -0.2125   -1.0349   -1.6344 H   0  0  0  0  0  0  0  0  0  0  0  0
    0.5546    0.9471   -1.7883 C   0  0  0  0  0  0  0  0  0  0  0  0
    1.3077    1.5957   -1.3298 H   0  0  0  0  0  0  0  0  0  0  0  0
    0.8166    0.8012   -2.8398 H   0  0  0  0  0  0  0  0  0  0  0  0
   -0.4134    1.4572   -1.7664 H   0  0  0  0  0  0  0  0  0  0  0  0
    1.8345   -1.1312   -1.0131 C   0  0  0  0  0  0  0  0  0  0  0  0
    2.5264   -0.5785   -0.3691 H   0  0  0  0  0  0  0  0  0  0  0  0
    1.6895   -2.1235   -0.5716 H   0  0  0  0  0  0  0  0  0  0  0  0
    2.4842   -1.3078   -2.3887 C   0  0  0  0  0  0  0  0  0  0  0  0
    2.7985   -0.3452   -2.8024 H   0  0  0  0  0  0  0  0  0  0  0  0
    3.3702   -1.9442   -2.3020 H   0  0  0  0  0  0  0  0  0  0  0  0
    1.7845   -1.7821   -3.0839 H   0  0  0  0  0  0  0  0  0  0  0  0
   -0.2049    1.1412    0.9666 C   0  0  0  0  0  0  0  0  0  0  0  0
   -1.2272    1.7914    0.7750 O   0  0  0  0  0  0  0  0  0  0  0  0
    0.7585    1.6414    1.8232 N   0  0  0  0  0  0  0  0  0  0  0  0
    1.5615    1.0528    2.0250 H   0  0  0  0  0  0  0  0  0  0  0  0
    0.6468    2.9353    2.4849 C   0  0  0  0  0  0  0  0  0  0  0  0
   -0.2467    2.9668    3.1173 H   0  0  0  0  0  0  0  0  0  0  0  0
    1.5226    3.1153    3.1158 H   0  0  0  0  0  0  0  0  0  0  0  0
    0.5832    3.7391    1.7440 H   0  0  0  0  0  0  0  0  0  0  0  0
  1  2  1  0  0  0  0
  2  3  1  0  0  0  0
  2  4  1  0  0  0  0
  2  5  1  0  0  0  0
  5  6  2  0  0  0  0
  5  7  1  0  0  0  0
  7  8  1  0  0  0  0
  7  9  1  0  0  0  0
  9 10  1  0  0  0  0
  9 11  1  0  0  0  0
  9 24  1  0  0  0  0
 11 12  1  0  0  0  0
 11 13  1  0  0  0  0
 11 17  1  0  0  0  0
 13 14  1  0  0  0  0
 13 15  1  0  0  0  0
 13 16  1  0  0  0  0
 17 18  1  0  0  0  0
 17 19  1  0  0  0  0
 17 20  1  0  0  0  0
 20 21  1  0  0  0  0
 20 22  1  0  0  0  0
 20 23  1  0  0  0  0
 24 25  2  0  0  0  0
 24 26  1  0  0  0  0
 26 27  1  0  0  0  0
 26 28  1  0  0  0  0
 28 29  1  0  0  0  0
 28 30  1  0  0  0  0
 28 31  1  0  0  0  0
M  END
$$$$

  -OEChem-03222214053D

 31 30  0     1  0  0  0  0  0999 V2000
   -2.9055   -3.8639    1.4698 H   0  0  0  0  0  0  0  0  0  0  0  0
   -2.9511   -2.8410    1.0853 C   0  0  0  0  0  0  0  0  0  0  0  0
   -3.5242   -2.2273    1.7846 H   0  0  0  0  0  0  0  0  0  0  0  0
   -3.4596   -2.8507    0.1182 H   0  0  0  0  0  0  0  0  0  0  0  0
   -1.5509   -2.2782    0.9291 C   0  0  0  0  0  0  0  0  0  0  0  0
   -0.5818   -2.9694    1.2022 O   0  0  0  0  0  0  0  0  0  0  0  0
   -1.3795   -0.9831    0.4873 N   0  0  0  0  0  0  0  0  0  0  0  0
   -2.2150   -0.4128    0.3662 H   0  0  0  0  0  0  0  0  0  0  0  0
   -0.0865   -0.2873    0.4049 C   0  0  1  0  0  0  0  0  0  0  0  0
    0.6068   -0.7977    1.0811 H   0  0  0  0  0  0  0  0  0  0  0  0
    0.4666   -0.4033   -1.0524 C   0  0  1  0  0  0  0  0  0  0  0  0
   -0.2109   -1.0360   -1.6368 H   0  0  0  0  0  0  0  0  0  0  0  0
    0.5240    0.9534   -1.7860 C   0  0  0  0  0  0  0  0  0  0  0  0
    1.2680    1.6147   -1.3304 H   0  0  0  0  0  0  0  0  0  0  0  0
    0.7817    0.8145   -2.8400 H   0  0  0  0  0  0  0  0  0  0  0  0
   -0.4526    1.4469   -1.7577 H   0  0  0  0  0  0  0  0  0  0  0  0
    1.8362   -1.1277   -1.0153 C   0  0  0  0  0  0  0  0  0  0  0  0
    2.4419   -0.7215   -0.1988 H   0  0  0  0  0  0  0  0  0  0  0  0
    1.6622   -2.1880   -0.8017 H   0  0  0  0  0  0  0  0  0  0  0  0
    2.6665   -1.0069   -2.2972 C   0  0  0  0  0  0  0  0  0  0  0  0
    2.9944    0.0243   -2.4591 H   0  0  0  0  0  0  0  0  0  0  0  0
    3.5578   -1.6372   -2.2220 H   0  0  0  0  0  0  0  0  0  0  0  0
    2.0829   -1.3359   -3.1626 H   0  0  0  0  0  0  0  0  0  0  0  0
   -0.2063    1.1451    0.9714 C   0  0  0  0  0  0  0  0  0  0  0  0
   -1.2281    1.7973    0.7842 O   0  0  0  0  0  0  0  0  0  0  0  0
    0.7604    1.6411    1.8268 N   0  0  0  0  0  0  0  0  0  0  0  0
    1.5651    1.0521    2.0204 H   0  0  0  0  0  0  0  0  0  0  0  0
    0.6587    2.9372    2.4861 C   0  0  0  0  0  0  0  0  0  0  0  0
   -0.2385    2.9802    3.1126 H   0  0  0  0  0  0  0  0  0  0  0  0
    1.5324    3.1067    3.1226 H   0  0  0  0  0  0  0  0  0  0  0  0
    0.6097    3.7412    1.7444 H   0  0  0  0  0  0  0  0  0  0  0  0
  1  2  1  0  0  0  0
  2  3  1  0  0  0  0
  2  4  1  0  0  0  0
  2  5  1  0  0  0  0
  5  6  2  0  0  0  0
  5  7  1  0  0  0  0
  7  8  1  0  0  0  0
  7  9  1  0  0  0  0
  9 10  1  0  0  0  0
  9 11  1  0  0  0  0
  9 24  1  0  0  0  0
 11 12  1  0  0  0  0
 11 13  1  0  0  0  0
 11 17  1  0  0  0  0
 13 14  1  0  0  0  0
 13 15  1  0  0  0  0
 13 16  1  0  0  0  0
 17 18  1  0  0  0  0
 17 19  1  0  0  0  0
 17 20  1  0  0  0  0
 20 21  1  0  0  0  0
 20 22  1  0  0  0  0
 20 23  1  0  0  0  0
 24 25  2  0  0  0  0
 24 26  1  0  0  0  0
 26 27  1  0  0  0  0
 26 28  1  0  0  0  0
 28 29  1  0  0  0  0
 28 30  1  0  0  0  0
 28 31  1  0  0  0  0
M  END
$$$$

  -OEChem-03222214053D

 31 30  0     1  0  0  0  0  0999 V2000
   -2.9152   -3.8517    1.4634 H   0  0  0  0  0  0  0  0  0  0  0  0
   -2.9562   -2.8257    1.0873 C   0  0  0  0  0  0  0  0  0  0  0  0
   -3.5208   -2.2137    1.7949 H   0  0  0  0  0  0  0  0  0  0  0  0
   -3.4703   -2.8239    0.1232 H   0  0  0  0  0  0  0  0  0  0  0  0
   -1.5534   -2.2707    0.9263 C   0  0  0  0  0  0  0  0  0  0  0  0
   -0.5868   -2.9669    1.1954 O   0  0  0  0  0  0  0  0  0  0  0  0
   -1.3773   -0.9761    0.4845 N   0  0  0  0  0  0  0  0  0  0  0  0
   -2.2114   -0.4027    0.3675 H   0  0  0  0  0  0  0  0  0  0  0  0
   -0.0826   -0.2819    0.4078 C   0  0  1  0  0  0  0  0  0  0  0  0
    0.5993   -0.7930    1.0934 H   0  0  0  0  0  0  0  0  0  0  0  0
    0.4797   -0.4049   -1.0478 C   0  0  1  0  0  0  0  0  0  0  0  0
   -0.1943   -1.0469   -1.6260 H   0  0  0  0  0  0  0  0  0  0  0  0
    0.4992    0.9478   -1.7919 C   0  0  0  0  0  0  0  0  0  0  0  0
    1.2165    1.6381   -1.3371 H   0  0  0  0  0  0  0  0  0  0  0  0
    0.7676    0.8093   -2.8432 H   0  0  0  0  0  0  0  0  0  0  0  0
   -0.4934    1.4084   -1.7723 H   0  0  0  0  0  0  0  0  0  0  0  0
    1.8559   -1.1310   -1.0267 C   0  0  0  0  0  0  0  0  0  0  0  0
    2.3686   -0.9237   -0.0825 H   0  0  0  0  0  0  0  0  0  0  0  0
    1.6784   -2.2111   -1.0686 H   0  0  0  0  0  0  0  0  0  0  0  0
    2.8378   -0.7375   -2.1368 C   0  0  0  0  0  0  0  0  0  0  0  0
    3.1280    0.3140   -2.0527 H   0  0  0  0  0  0  0  0  0  0  0  0
    3.7446   -1.3454   -2.0617 H   0  0  0  0  0  0  0  0  0  0  0  0
    2.3925   -0.9088   -3.1216 H   0  0  0  0  0  0  0  0  0  0  0  0
   -0.2019    1.1516    0.9725 C   0  0  0  0  0  0  0  0  0  0  0  0
   -1.2246    1.8025    0.7857 O   0  0  0  0  0  0  0  0  0  0  0  0
    0.7615    1.6476    1.8319 N   0  0  0  0  0  0  0  0  0  0  0  0
    1.5637    1.0573    2.0318 H   0  0  0  0  0  0  0  0  0  0  0  0
    0.6471    2.9356    2.5053 C   0  0  0  0  0  0  0  0  0  0  0  0
   -0.2400    2.9551    3.1472 H   0  0  0  0  0  0  0  0  0  0  0  0
    1.5282    3.1167    3.1283 H   0  0  0  0  0  0  0  0  0  0  0  0
    0.5698    3.7455    1.7723 H   0  0  0  0  0  0  0  0  0  0  0  0
  1  2  1  0  0  0  0
  2  3  1  0  0  0  0
  2  4  1  0  0  0  0
  2  5  1  0  0  0  0
  5  6  2  0  0  0  0
  5  7  1  0  0  0  0
  7  8  1  0  0  0  0
  7  9  1  0  0  0  0
  9 10  1  0  0  0  0
  9 11  1  0  0  0  0
  9 24  1  0  0  0  0
 11 12  1  0  0  0  0
 11 13  1  0  0  0  0
 11 17  1  0  0  0  0
 13 14  1  0  0  0  0
 13 15  1  0  0  0  0
 13 16  1  0  0  0  0
 17 18  1  0  0  0  0
 17 19  1  0  0  0  0
 17 20  1  0  0  0  0
 20 21  1  0  0  0  0
 20 22  1  0  0  0  0
 20 23  1  0  0  0  0
 24 25  2  0  0  0  0
 24 26  1  0  0  0  0
 26 27  1  0  0  0  0
 26 28  1  0  0  0  0
 28 29  1  0  0  0  0
 28 30  1  0  0  0  0
 28 31  1  0  0  0  0
M  END
$$$$

  -OEChem-03222214053D

 31 30  0     1  0  0  0  0  0999 V2000
   -2.9267   -3.8437    1.4630 H   0  0  0  0  0  0  0  0  0  0  0  0
   -2.9624   -2.8188    1.0831 C   0  0  0  0  0  0  0  0  0  0  0  0
   -3.5323   -2.2034    1.7835 H   0  0  0  0  0  0  0  0  0  0  0  0
   -3.4682   -2.8192    0.1146 H   0  0  0  0  0  0  0  0  0  0  0  0
   -1.5571   -2.2671    0.9330 C   0  0  0  0  0  0  0  0  0  0  0  0
   -0.5941   -2.9642    1.2126 O   0  0  0  0  0  0  0  0  0  0  0  0
   -1.3751   -0.9745    0.4884 N   0  0  0  0  0  0  0  0  0  0  0  0
   -2.2070   -0.3999    0.3616 H   0  0  0  0  0  0  0  0  0  0  0  0
   -0.0788   -0.2828    0.4209 C   0  0  1  0  0  0  0  0  0  0  0  0
    0.5932   -0.7909    1.1175 H   0  0  0  0  0  0  0  0  0  0  0  0
    0.4953   -0.4039   -1.0312 C   0  0  1  0  0  0  0  0  0  0  0  0
   -0.1767   -1.0578   -1.5986 H   0  0  0  0  0  0  0  0  0  0  0  0
    0.4775    0.9385   -1.7937 C   0  0  0  0  0  0  0  0  0  0  0  0
    1.1652    1.6618   -1.3446 H   0  0  0  0  0  0  0  0  0  0  0  0
    0.7584    0.7916   -2.8404 H   0  0  0  0  0  0  0  0  0  0  0  0
   -0.5302    1.3657   -1.7871 H   0  0  0  0  0  0  0  0  0  0  0  0
    1.8766   -1.1310   -1.0328 C   0  0  0  0  0  0  0  0  0  0  0  0
    2.2805   -1.1885   -0.0183 H   0  0  0  0  0  0  0  0  0  0  0  0
    1.7196   -2.1620   -1.3670 H   0  0  0  0  0  0  0  0  0  0  0  0
    2.9759   -0.4992   -1.8957 C   0  0  0  0  0  0  0  0  0  0  0  0
    3.2057    0.5156   -1.5575 H   0  0  0  0  0  0  0  0  0  0  0  0
    3.8903   -1.0959   -1.8230 H   0  0  0  0  0  0  0  0  0  0  0  0
    2.6747   -0.4689   -2.9471 H   0  0  0  0  0  0  0  0  0  0  0  0
   -0.2004    1.1525    0.9793 C   0  0  0  0  0  0  0  0  0  0  0  0
   -1.2202    1.8051    0.7829 O   0  0  0  0  0  0  0  0  0  0  0  0
    0.7573    1.6478    1.8451 N   0  0  0  0  0  0  0  0  0  0  0  0
    1.5592    1.0577    2.0470 H   0  0  0  0  0  0  0  0  0  0  0  0
    0.6446    2.9395    2.5112 C   0  0  0  0  0  0  0  0  0  0  0  0
   -0.2527    2.9709    3.1382 H   0  0  0  0  0  0  0  0  0  0  0  0
    1.5170    3.1135    3.1482 H   0  0  0  0  0  0  0  0  0  0  0  0
    0.5878    3.7471    1.7740 H   0  0  0  0  0  0  0  0  0  0  0  0
  1  2  1  0  0  0  0
  2  3  1  0  0  0  0
  2  4  1  0  0  0  0
  2  5  1  0  0  0  0
  5  6  2  0  0  0  0
  5  7  1  0  0  0  0
  7  8  1  0  0  0  0
  7  9  1  0  0  0  0
  9 10  1  0  0  0  0
  9 11  1  0  0  0  0
  9 24  1  0  0  0  0
 11 12  1  0  0  0  0
 11 13  1  0  0  0  0
 11 17  1  0  0  0  0
 13 14  1  0  0  0  0
 13 15  1  0  0  0  0
 13 16  1  0  0  0  0
 17 18  1  0  0  0  0
 17 19  1  0  0  0  0
 17 20  1  0  0  0  0
 20 21  1  0  0  0  0
 20 22  1  0  0  0  0
 20 23  1  0  0  0  0
 24 25  2  0  0  0  0
 24 26  1  0  0  0  0
 26 27  1  0  0  0  0
 26 28  1  0  0  0  0
 28 29  1  0  0  0  0
 28 30  1  0  0  0  0
 28 31  1  0  0  0  0
M  END
$$$$

  -OEChem-03222214053D

 31 30  0     1  0  0  0  0  0999 V2000
   -2.9362   -3.8445    1.4666 H   0  0  0  0  0  0  0  0  0  0  0  0
   -2.9684   -2.8217    1.0809 C   0  0  0  0  0  0  0  0  0  0  0  0
   -3.5451   -2.2023    1.7720 H   0  0  0  0  0  0  0  0  0  0  0  0
   -3.4639   -2.8276    0.1071 H   0  0  0  0  0  0  0  0  0  0  0  0
   -1.5620   -2.2703    0.9424 C   0  0  0  0  0  0  0  0  0  0  0  0
   -0.6017   -2.9666    1.2331 O   0  0  0  0  0  0  0  0  0  0  0  0
   -1.3758   -0.9792    0.4949 N   0  0  0  0  0  0  0  0  0  0  0  0
   -2.2060   -0.4033    0.3631 H   0  0  0  0  0  0  0  0  0  0  0  0
   -0.0769   -0.2914    0.4328 C   0  0  1  0  0  0  0  0  0  0  0  0
    0.5938   -0.7965    1.1324 H   0  0  0  0  0  0  0  0  0  0  0  0
    0.5049   -0.3991   -1.0166 C   0  0  1  0  0  0  0  0  0  0  0  0
   -0.1669   -1.0618   -1.5737 H   0  0  0  0  0  0  0  0  0  0  0  0
    0.4721    0.9329   -1.7954 C   0  0  0  0  0  0  0  0  0  0  0  0
    1.1345    1.6785   -1.3451 H   0  0  0  0  0  0  0  0  0  0  0  0
    0.7769    0.7759   -2.8343 H   0  0  0  0  0  0  0  0  0  0  0  0
   -0.5449    1.3372   -1.8109 H   0  0  0  0  0  0  0  0  0  0  0  0
    1.8847   -1.1280   -1.0324 C   0  0  0  0  0  0  0  0  0  0  0  0
    2.1545   -1.4838   -0.0344 H   0  0  0  0  0  0  0  0  0  0  0  0
    1.7832   -2.0219   -1.6569 H   0  0  0  0  0  0  0  0  0  0  0  0
    3.0676   -0.3180   -1.5761 C   0  0  0  0  0  0  0  0  0  0  0  0
    3.2166    0.5914   -0.9861 H   0  0  0  0  0  0  0  0  0  0  0  0
    3.9819   -0.9165   -1.5177 H   0  0  0  0  0  0  0  0  0  0  0  0
    2.9109   -0.0447   -2.6237 H   0  0  0  0  0  0  0  0  0  0  0  0
   -0.1986    1.1454    0.9868 C   0  0  0  0  0  0  0  0  0  0  0  0
   -1.2135    1.8017    0.7771 O   0  0  0  0  0  0  0  0  0  0  0  0
    0.7542    1.6425    1.8571 N   0  0  0  0  0  0  0  0  0  0  0  0
    1.5556    1.0536    2.0648 H   0  0  0  0  0  0  0  0  0  0  0  0
    0.6490    2.9462    2.5006 C   0  0  0  0  0  0  0  0  0  0  0  0
   -0.2589    3.0006    3.1105 H   0  0  0  0  0  0  0  0  0  0  0  0
    1.5122    3.1179    3.1507 H   0  0  0  0  0  0  0  0  0  0  0  0
    0.6179    3.7425    1.7495 H   0  0  0  0  0  0  0  0  0  0  0  0
  1  2  1  0  0  0  0
  2  3  1  0  0  0  0
  2  4  1  0  0  0  0
  2  5  1  0  0  0  0
  5  6  2  0  0  0  0
  5  7  1  0  0  0  0
  7  8  1  0  0  0  0
  7  9  1  0  0  0  0
  9 10  1  0  0  0  0
  9 11  1  0  0  0  0
  9 24  1  0  0  0  0
 11 12  1  0  0  0  0
 11 13  1  0  0  0  0
 11 17  1  0  0  0  0
 13 14  1  0  0  0  0
 13 15  1  0  0  0  0
 13 16  1  0  0  0  0
 17 18  1  0  0  0  0
 17 19  1  0  0  0  0
 17 20  1  0  0  0  0
 20 21  1  0  0  0  0
 20 22  1  0  0  0  0
 20 23  1  0  0  0  0
 24 25  2  0  0  0  0
 24 26  1  0  0  0  0
 26 27  1  0  0  0  0
 26 28  1  0  0  0  0
 28 29  1  0  0  0  0
 28 30  1  0  0  0  0
 28 31  1  0  0  0  0
M  END
$$$$

  -OEChem-03222214053D

 31 30  0     1  0  0  0  0  0999 V2000
   -2.9380   -3.8431    1.4745 H   0  0  0  0  0  0  0  0  0  0  0  0
   -2.9693   -2.8202    1.0889 C   0  0  0  0  0  0  0  0  0  0  0  0
   -3.5422   -2.1996    1.7822 H   0  0  0  0  0  0  0  0  0  0  0  0
   -3.4682   -2.8251    0.1167 H   0  0  0  0  0  0  0  0  0  0  0  0
   -1.5621   -2.2718    0.9458 C   0  0  0  0  0  0  0  0  0  0  0  0
   -0.6025   -2.9692    1.2361 O   0  0  0  0  0  0  0  0  0  0  0  0
   -1.3737   -0.9821    0.4956 N   0  0  0  0  0  0  0  0  0  0  0  0
   -2.2029   -0.4052    0.3618 H   0  0  0  0  0  0  0  0  0  0  0  0
   -0.0737   -0.2966    0.4327 C   0  0  1  0  0  0  0  0  0  0  0  0
    0.6044   -0.7997    1.1272 H   0  0  0  0  0  0  0  0  0  0  0  0
    0.5064   -0.3975   -1.0154 C   0  0  1  0  0  0  0  0  0  0  0  0
   -0.1658   -1.0626   -1.5691 H   0  0  0  0  0  0  0  0  0  0  0  0
    0.4884    0.9276   -1.8039 C   0  0  0  0  0  0  0  0  0  0  0  0
    1.1277    1.6839   -1.3383 H   0  0  0  0  0  0  0  0  0  0  0  0
    0.8357    0.7620   -2.8284 H   0  0  0  0  0  0  0  0  0  0  0  0
   -0.5312    1.3220   -1.8577 H   0  0  0  0  0  0  0  0  0  0  0  0
    1.8798   -1.1270   -1.0274 C   0  0  0  0  0  0  0  0  0  0  0  0
    2.0131   -1.7266   -0.1218 H   0  0  0  0  0  0  0  0  0  0  0  0
    1.8739   -1.8350   -1.8627 H   0  0  0  0  0  0  0  0  0  0  0  0
    3.1011   -0.2198   -1.2148 C   0  0  0  0  0  0  0  0  0  0  0  0
    3.1338    0.5449   -0.4327 H   0  0  0  0  0  0  0  0  0  0  0  0
    4.0170   -0.8154   -1.1529 H   0  0  0  0  0  0  0  0  0  0  0  0
    3.0840    0.2708   -2.1924 H   0  0  0  0  0  0  0  0  0  0  0  0
   -0.1967    1.1404    0.9840 C   0  0  0  0  0  0  0  0  0  0  0  0
   -1.2087    1.7984    0.7663 O   0  0  0  0  0  0  0  0  0  0  0  0
    0.7549    1.6388    1.8547 N   0  0  0  0  0  0  0  0  0  0  0  0
    1.5527    1.0475    2.0690 H   0  0  0  0  0  0  0  0  0  0  0  0
    0.6475    2.9421    2.4985 C   0  0  0  0  0  0  0  0  0  0  0  0
   -0.2572    2.9927    3.1137 H   0  0  0  0  0  0  0  0  0  0  0  0
    1.5139    3.1181    3.1435 H   0  0  0  0  0  0  0  0  0  0  0  0
    0.6082    3.7378    1.7471 H   0  0  0  0  0  0  0  0  0  0  0  0
  1  2  1  0  0  0  0
  2  3  1  0  0  0  0
  2  4  1  0  0  0  0
  2  5  1  0  0  0  0
  5  6  2  0  0  0  0
  5  7  1  0  0  0  0
  7  8  1  0  0  0  0
  7  9  1  0  0  0  0
  9 10  1  0  0  0  0
  9 11  1  0  0  0  0
  9 24  1  0  0  0  0
 11 12  1  0  0  0  0
 11 13  1  0  0  0  0
 11 17  1  0  0  0  0
 13 14  1  0  0  0  0
 13 15  1  0  0  0  0
 13 16  1  0  0  0  0
 17 18  1  0  0  0  0
 17 19  1  0  0  0  0
 17 20  1  0  0  0  0
 20 21  1  0  0  0  0
 20 22  1  0  0  0  0
 20 23  1  0  0  0  0
 24 25  2  0  0  0  0
 24 26  1  0  0  0  0
 26 27  1  0  0  0  0
 26 28  1  0  0  0  0
 28 29  1  0  0  0  0
 28 30  1  0  0  0  0
 28 31  1  0  0  0  0
M  END
$$$$

  -OEChem-03222214053D

 31 30  0     1  0  0  0  0  0999 V2000
   -2.9330   -3.8495    1.4758 H   0  0  0  0  0  0  0  0  0  0  0  0
   -2.9645   -2.8262    1.0914 C   0  0  0  0  0  0  0  0  0  0  0  0
   -3.5382   -2.2066    1.7850 H   0  0  0  0  0  0  0  0  0  0  0  0
   -3.4625   -2.8299    0.1189 H   0  0  0  0  0  0  0  0  0  0  0  0
   -1.5578   -2.2765    0.9493 C   0  0  0  0  0  0  0  0  0  0  0  0
   -0.5972   -2.9727    1.2389 O   0  0  0  0  0  0  0  0  0  0  0  0
   -1.3715   -0.9866    0.4987 N   0  0  0  0  0  0  0  0  0  0  0  0
   -2.2011   -0.4103    0.3652 H   0  0  0  0  0  0  0  0  0  0  0  0
   -0.0716   -0.3016    0.4319 C   0  0  1  0  0  0  0  0  0  0  0  0
    0.6157   -0.8071    1.1169 H   0  0  0  0  0  0  0  0  0  0  0  0
    0.4989   -0.3994   -1.0184 C   0  0  1  0  0  0  0  0  0  0  0  0
   -0.1768   -1.0554   -1.5787 H   0  0  0  0  0  0  0  0  0  0  0  0
    0.5159    0.9296   -1.7983 C   0  0  0  0  0  0  0  0  0  0  0  0
    1.1416    1.6804   -1.3062 H   0  0  0  0  0  0  0  0  0  0  0  0
    0.9025    0.7669   -2.8091 H   0  0  0  0  0  0  0  0  0  0  0  0
   -0.4993    1.3297   -1.8855 H   0  0  0  0  0  0  0  0  0  0  0  0
    1.8653   -1.1293   -1.0262 C   0  0  0  0  0  0  0  0  0  0  0  0
    1.8809   -1.9110   -0.2595 H   0  0  0  0  0  0  0  0  0  0  0  0
    1.9744   -1.6367   -1.9903 H   0  0  0  0  0  0  0  0  0  0  0  0
    3.0797   -0.2111   -0.8499 C   0  0  0  0  0  0  0  0  0  0  0  0
    2.9832    0.3809    0.0650 H   0  0  0  0  0  0  0  0  0  0  0  0
    3.9913   -0.8122   -0.7780 H   0  0  0  0  0  0  0  0  0  0  0  0
    3.1889    0.4668   -1.7016 H   0  0  0  0  0  0  0  0  0  0  0  0
   -0.1973    1.1347    0.9850 C   0  0  0  0  0  0  0  0  0  0  0  0
   -1.2072    1.7940    0.7614 O   0  0  0  0  0  0  0  0  0  0  0  0
    0.7540    1.6356    1.8545 N   0  0  0  0  0  0  0  0  0  0  0  0
    1.5487    1.0424    2.0752 H   0  0  0  0  0  0  0  0  0  0  0  0
    0.6483    2.9428    2.4908 C   0  0  0  0  0  0  0  0  0  0  0  0
   -0.2548    2.9969    3.1079 H   0  0  0  0  0  0  0  0  0  0  0  0
    1.5163    3.1232    3.1322 H   0  0  0  0  0  0  0  0  0  0  0  0
    0.6066    3.7341    1.7348 H   0  0  0  0  0  0  0  0  0  0  0  0
  1  2  1  0  0  0  0
  2  3  1  0  0  0  0
  2  4  1  0  0  0  0
  2  5  1  0  0  0  0
  5  6  2  0  0  0  0
  5  7  1  0  0  0  0
  7  8  1  0  0  0  0
  7  9  1  0  0  0  0
  9 10  1  0  0  0  0
  9 11  1  0  0  0  0
  9 24  1  0  0  0  0
 11 12  1  0  0  0  0
 11 13  1  0  0  0  0
 11 17  1  0  0  0  0
 13 14  1  0  0  0  0
 13 15  1  0  0  0  0
 13 16  1  0  0  0  0
 17 18  1  0  0  0  0
 17 19  1  0  0  0  0
 17 20  1  0  0  0  0
 20 21  1  0  0  0  0
 20 22  1  0  0  0  0
 20 23  1  0  0  0  0
 24 25  2  0  0  0  0
 24 26  1  0  0  0  0
 26 27  1  0  0  0  0
 26 28  1  0  0  0  0
 28 29  1  0  0  0  0
 28 30  1  0  0  0  0
 28 31  1  0  0  0  0
M  END
$$$$

  -OEChem-03222214053D

 31 30  0     1  0  0  0  0  0999 V2000
   -2.9285   -3.8499    1.4830 H   0  0  0  0  0  0  0  0  0  0  0  0
   -2.9612   -2.8283    1.0942 C   0  0  0  0  0  0  0  0  0  0  0  0
   -3.5378   -2.2069    1.7837 H   0  0  0  0  0  0  0  0  0  0  0  0
   -3.4572   -2.8375    0.1206 H   0  0  0  0  0  0  0  0  0  0  0  0
   -1.5549   -2.2772    0.9534 C   0  0  0  0  0  0  0  0  0  0  0  0
   -0.5947   -2.9732    1.2447 O   0  0  0  0  0  0  0  0  0  0  0  0
   -1.3680   -0.9879    0.5016 N   0  0  0  0  0  0  0  0  0  0  0  0
   -2.1974   -0.4117    0.3658 H   0  0  0  0  0  0  0  0  0  0  0  0
   -0.0686   -0.3022    0.4336 C   0  0  1  0  0  0  0  0  0  0  0  0
    0.6230   -0.8103    1.1129 H   0  0  0  0  0  0  0  0  0  0  0  0
    0.4937   -0.4063   -1.0188 C   0  0  1  0  0  0  0  0  0  0  0  0
   -0.1876   -1.0492   -1.5874 H   0  0  0  0  0  0  0  0  0  0  0  0
    0.5475    0.9276   -1.7875 C   0  0  0  0  0  0  0  0  0  0  0  0
    1.1738    1.6655   -1.2774 H   0  0  0  0  0  0  0  0  0  0  0  0
    0.9542    0.7671   -2.7907 H   0  0  0  0  0  0  0  0  0  0  0  0
   -0.4596    1.3433   -1.8931 H   0  0  0  0  0  0  0  0  0  0  0  0
    1.8560   -1.1357   -1.0311 C   0  0  0  0  0  0  0  0  0  0  0  0
    1.7797   -2.0518   -0.4349 H   0  0  0  0  0  0  0  0  0  0  0  0
    2.0802   -1.4412   -2.0584 H   0  0  0  0  0  0  0  0  0  0  0  0
    3.0292   -0.2941   -0.5148 C   0  0  0  0  0  0  0  0  0  0  0  0
    2.8329    0.0687    0.4976 H   0  0  0  0  0  0  0  0  0  0  0  0
    3.9376   -0.9035   -0.4910 H   0  0  0  0  0  0  0  0  0  0  0  0
    3.2151    0.5635   -1.1676 H   0  0  0  0  0  0  0  0  0  0  0  0
   -0.2004    1.1340    0.9862 C   0  0  0  0  0  0  0  0  0  0  0  0
   -1.2106    1.7906    0.7556 O   0  0  0  0  0  0  0  0  0  0  0  0
    0.7468    1.6411    1.8567 N   0  0  0  0  0  0  0  0  0  0  0  0
    1.5424    1.0511    2.0822 H   0  0  0  0  0  0  0  0  0  0  0  0
    0.6334    2.9483    2.4916 C   0  0  0  0  0  0  0  0  0  0  0  0
   -0.2782    3.0043    3.0959 H   0  0  0  0  0  0  0  0  0  0  0  0
    1.4921    3.1269    3.1457 H   0  0  0  0  0  0  0  0  0  0  0  0
    0.6039    3.7397    1.7354 H   0  0  0  0  0  0  0  0  0  0  0  0
  1  2  1  0  0  0  0
  2  3  1  0  0  0  0
  2  4  1  0  0  0  0
  2  5  1  0  0  0  0
  5  6  2  0  0  0  0
  5  7  1  0  0  0  0
  7  8  1  0  0  0  0
  7  9  1  0  0  0  0
  9 10  1  0  0  0  0
  9 11  1  0  0  0  0
  9 24  1  0  0  0  0
 11 12  1  0  0  0  0
 11 13  1  0  0  0  0
 11 17  1  0  0  0  0
 13 14  1  0  0  0  0
 13 15  1  0  0  0  0
 13 16  1  0  0  0  0
 17 18  1  0  0  0  0
 17 19  1  0  0  0  0
 17 20  1  0  0  0  0
 20 21  1  0  0  0  0
 20 22  1  0  0  0  0
 20 23  1  0  0  0  0
 24 25  2  0  0  0  0
 24 26  1  0  0  0  0
 26 27  1  0  0  0  0
 26 28  1  0  0  0  0
 28 29  1  0  0  0  0
 28 30  1  0  0  0  0
 28 31  1  0  0  0  0
M  END
$$$$

  -OEChem-03222214053D

 31 30  0     1  0  0  0  0  0999 V2000
   -2.9415   -3.8486    1.4818 H   0  0  0  0  0  0  0  0  0  0  0  0
   -2.9726   -2.8266    1.0941 C   0  0  0  0  0  0  0  0  0  0  0  0
   -3.5500   -2.2054    1.7831 H   0  0  0  0  0  0  0  0  0  0  0  0
   -3.4668   -2.8343    0.1195 H   0  0  0  0  0  0  0  0  0  0  0  0
   -1.5657   -2.2763    0.9565 C   0  0  0  0  0  0  0  0  0  0  0  0
   -0.6065   -2.9706    1.2555 O   0  0  0  0  0  0  0  0  0  0  0  0
   -1.3782   -0.9881    0.5011 N   0  0  0  0  0  0  0  0  0  0  0  0
   -2.2086   -0.4148    0.3599 H   0  0  0  0  0  0  0  0  0  0  0  0
   -0.0806   -0.2978    0.4386 C   0  0  1  0  0  0  0  0  0  0  0  0
    0.5947   -0.8090    1.1295 H   0  0  0  0  0  0  0  0  0  0  0  0
    0.4965   -0.4198   -1.0073 C   0  0  1  0  0  0  0  0  0  0  0  0
   -0.1845   -1.0548   -1.5849 H   0  0  0  0  0  0  0  0  0  0  0  0
    0.5751    0.9158   -1.7707 C   0  0  0  0  0  0  0  0  0  0  0  0
    1.2315    1.6314   -1.2671 H   0  0  0  0  0  0  0  0  0  0  0  0
    0.9607    0.7509   -2.7815 H   0  0  0  0  0  0  0  0  0  0  0  0
   -0.4211    1.3606   -1.8598 H   0  0  0  0  0  0  0  0  0  0  0  0
    1.8646   -1.1396   -1.0309 C   0  0  0  0  0  0  0  0  0  0  0  0
    1.7289   -2.1553   -0.6435 H   0  0  0  0  0  0  0  0  0  0  0  0
    2.1985   -1.2331   -2.0695 H   0  0  0  0  0  0  0  0  0  0  0  0
    2.9746   -0.4566   -0.2180 C   0  0  0  0  0  0  0  0  0  0  0  0
    2.7280   -0.4160    0.8455 H   0  0  0  0  0  0  0  0  0  0  0  0
    3.9059   -1.0210   -0.3256 H   0  0  0  0  0  0  0  0  0  0  0  0
    3.1520    0.5610   -0.5768 H   0  0  0  0  0  0  0  0  0  0  0  0
   -0.2121    1.1416    0.9827 C   0  0  0  0  0  0  0  0  0  0  0  0
   -1.2233    1.7959    0.7506 O   0  0  0  0  0  0  0  0  0  0  0  0
    0.7326    1.6510    1.8543 N   0  0  0  0  0  0  0  0  0  0  0  0
    1.5289    1.0626    2.0815 H   0  0  0  0  0  0  0  0  0  0  0  0
    0.6145    2.9579    2.4892 C   0  0  0  0  0  0  0  0  0  0  0  0
   -0.2964    3.0089    3.0953 H   0  0  0  0  0  0  0  0  0  0  0  0
    1.4738    3.1407    3.1416 H   0  0  0  0  0  0  0  0  0  0  0  0
    0.5796    3.7494    1.7332 H   0  0  0  0  0  0  0  0  0  0  0  0
  1  2  1  0  0  0  0
  2  3  1  0  0  0  0
  2  4  1  0  0  0  0
  2  5  1  0  0  0  0
  5  6  2  0  0  0  0
  5  7  1  0  0  0  0
  7  8  1  0  0  0  0
  7  9  1  0  0  0  0
  9 10  1  0  0  0  0
  9 11  1  0  0  0  0
  9 24  1  0  0  0  0
 11 12  1  0  0  0  0
 11 13  1  0  0  0  0
 11 17  1  0  0  0  0
 13 14  1  0  0  0  0
 13 15  1  0  0  0  0
 13 16  1  0  0  0  0
 17 18  1  0  0  0  0
 17 19  1  0  0  0  0
 17 20  1  0  0  0  0
 20 21  1  0  0  0  0
 20 22  1  0  0  0  0
 20 23  1  0  0  0  0
 24 25  2  0  0  0  0
 24 26  1  0  0  0  0
 26 27  1  0  0  0  0
 26 28  1  0  0  0  0
 28 29  1  0  0  0  0
 28 30  1  0  0  0  0
 28 31  1  0  0  0  0
M  END
$$$$

  -OEChem-03222214053D

 31 30  0     1  0  0  0  0  0999 V2000
   -2.9604   -3.8463    1.4826 H   0  0  0  0  0  0  0  0  0  0  0  0
   -2.9905   -2.8264    1.0889 C   0  0  0  0  0  0  0  0  0  0  0  0
   -3.5792   -2.2042    1.7674 H   0  0  0  0  0  0  0  0  0  0  0  0
   -3.4722   -2.8413    0.1082 H   0  0  0  0  0  0  0  0  0  0  0  0
   -1.5842   -2.2712    0.9657 C   0  0  0  0  0  0  0  0  0  0  0  0
   -0.6269   -2.9618    1.2790 O   0  0  0  0  0  0  0  0  0  0  0  0
   -1.3955   -0.9849    0.5046 N   0  0  0  0  0  0  0  0  0  0  0  0
   -2.2259   -0.4159    0.3473 H   0  0  0  0  0  0  0  0  0  0  0  0
   -0.0989   -0.2916    0.4509 C   0  0  1  0  0  0  0  0  0  0  0  0
    0.5552   -0.7971    1.1618 H   0  0  0  0  0  0  0  0  0  0  0  0
    0.4982   -0.4365   -0.9879 C   0  0  1  0  0  0  0  0  0  0  0  0
   -0.1850   -1.0611   -1.5746 H   0  0  0  0  0  0  0  0  0  0  0  0
    0.6015    0.9025   -1.7433 C   0  0  0  0  0  0  0  0  0  0  0  0
    1.2943    1.5879   -1.2459 H   0  0  0  0  0  0  0  0  0  0  0  0
    0.9595    0.7367   -2.7640 H   0  0  0  0  0  0  0  0  0  0  0  0
   -0.3807    1.3811   -1.8101 H   0  0  0  0  0  0  0  0  0  0  0  0
    1.8742   -1.1499   -1.0310 C   0  0  0  0  0  0  0  0  0  0  0  0
    1.7071   -2.2232   -0.8894 H   0  0  0  0  0  0  0  0  0  0  0  0
    2.3112   -1.0245   -2.0271 H   0  0  0  0  0  0  0  0  0  0  0  0
    2.9012   -0.6960    0.0174 C   0  0  0  0  0  0  0  0  0  0  0  0
    2.6433   -1.0529    1.0178 H   0  0  0  0  0  0  0  0  0  0  0  0
    3.8841   -1.1060   -0.2341 H   0  0  0  0  0  0  0  0  0  0  0  0
    2.9798    0.3949    0.0359 H   0  0  0  0  0  0  0  0  0  0  0  0
   -0.2293    1.1522    0.9837 C   0  0  0  0  0  0  0  0  0  0  0  0
   -1.2375    1.8079    0.7429 O   0  0  0  0  0  0  0  0  0  0  0  0
    0.7121    1.6620    1.8588 N   0  0  0  0  0  0  0  0  0  0  0  0
    1.5081    1.0741    2.0885 H   0  0  0  0  0  0  0  0  0  0  0  0
    0.6010    2.9765    2.4789 C   0  0  0  0  0  0  0  0  0  0  0  0
   -0.3169    3.0440    3.0723 H   0  0  0  0  0  0  0  0  0  0  0  0
    1.4536    3.1563    3.1406 H   0  0  0  0  0  0  0  0  0  0  0  0
    0.5851    3.7602    1.7143 H   0  0  0  0  0  0  0  0  0  0  0  0
  1  2  1  0  0  0  0
  2  3  1  0  0  0  0
  2  4  1  0  0  0  0
  2  5  1  0  0  0  0
  5  6  2  0  0  0  0
  5  7  1  0  0  0  0
  7  8  1  0  0  0  0
  7  9  1  0  0  0  0
  9 10  1  0  0  0  0
  9 11  1  0  0  0  0
  9 24  1  0  0  0  0
 11 12  1  0  0  0  0
 11 13  1  0  0  0  0
 11 17  1  0  0  0  0
 13 14  1  0  0  0  0
 13 15  1  0  0  0  0
 13 16  1  0  0  0  0
 17 18  1  0  0  0  0
 17 19  1  0  0  0  0
 17 20  1  0  0  0  0
 20 21  1  0  0  0  0
 20 22  1  0  0  0  0
 20 23  1  0  0  0  0
 24 25  2  0  0  0  0
 24 26  1  0  0  0  0
 26 27  1  0  0  0  0
 26 28  1  0  0  0  0
 28 29  1  0  0  0  0
 28 30  1  0  0  0  0
 28 31  1  0  0  0  0
M  END
$$$$

  -OEChem-03222214053D

 31 30  0     1  0  0  0  0  0999 V2000
   -2.9831   -3.8256    1.4934 H   0  0  0  0  0  0  0  0  0  0  0  0
   -3.0061   -2.8078    1.0939 C   0  0  0  0  0  0  0  0  0  0  0  0
   -3.5967   -2.1794    1.7649 H   0  0  0  0  0  0  0  0  0  0  0  0
   -3.4815   -2.8261    0.1103 H   0  0  0  0  0  0  0  0  0  0  0  0
   -1.5965   -2.2593    0.9771 C   0  0  0  0  0  0  0  0  0  0  0  0
   -0.6439   -2.9500    1.3044 O   0  0  0  0  0  0  0  0  0  0  0  0
   -1.4001   -0.9775    0.5071 N   0  0  0  0  0  0  0  0  0  0  0  0
   -2.2273   -0.4061    0.3415 H   0  0  0  0  0  0  0  0  0  0  0  0
   -0.1015   -0.2880    0.4624 C   0  0  1  0  0  0  0  0  0  0  0  0
    0.5377   -0.7809    1.1933 H   0  0  0  0  0  0  0  0  0  0  0  0
    0.5082   -0.4474   -0.9739 C   0  0  1  0  0  0  0  0  0  0  0  0
   -0.1814   -1.0627   -1.5625 H   0  0  0  0  0  0  0  0  0  0  0  0
    0.6186    0.8935   -1.7261 C   0  0  0  0  0  0  0  0  0  0  0  0
    1.3337    1.5616   -1.2356 H   0  0  0  0  0  0  0  0  0  0  0  0
    0.9544    0.7277   -2.7546 H   0  0  0  0  0  0  0  0  0  0  0  0
   -0.3557    1.3900   -1.7756 H   0  0  0  0  0  0  0  0  0  0  0  0
    1.8876   -1.1643   -1.0438 C   0  0  0  0  0  0  0  0  0  0  0  0
    1.7010   -2.2362   -1.1693 H   0  0  0  0  0  0  0  0  0  0  0  0
    2.4261   -0.8334   -1.9379 H   0  0  0  0  0  0  0  0  0  0  0  0
    2.8183   -1.0078    0.1655 C   0  0  0  0  0  0  0  0  0  0  0  0
    2.4711   -1.6027    1.0152 H   0  0  0  0  0  0  0  0  0  0  0  0
    3.8202   -1.3618   -0.0953 H   0  0  0  0  0  0  0  0  0  0  0  0
    2.8914    0.0427    0.4622 H   0  0  0  0  0  0  0  0  0  0  0  0
   -0.2401    1.1600    0.9823 C   0  0  0  0  0  0  0  0  0  0  0  0
   -1.2497    1.8101    0.7318 O   0  0  0  0  0  0  0  0  0  0  0  0
    0.6901    1.6771    1.8652 N   0  0  0  0  0  0  0  0  0  0  0  0
    1.4809    1.0894    2.1127 H   0  0  0  0  0  0  0  0  0  0  0  0
    0.5622    2.9897    2.4859 C   0  0  0  0  0  0  0  0  0  0  0  0
   -0.3606    3.0477    3.0729 H   0  0  0  0  0  0  0  0  0  0  0  0
    1.4087    3.1766    3.1538 H   0  0  0  0  0  0  0  0  0  0  0  0
    0.5442    3.7744    1.7222 H   0  0  0  0  0  0  0  0  0  0  0  0
  1  2  1  0  0  0  0
  2  3  1  0  0  0  0
  2  4  1  0  0  0  0
  2  5  1  0  0  0  0
  5  6  2  0  0  0  0
  5  7  1  0  0  0  0
  7  8  1  0  0  0  0
  7  9  1  0  0  0  0
  9 10  1  0  0  0  0
  9 11  1  0  0  0  0
  9 24  1  0  0  0  0
 11 12  1  0  0  0  0
 11 13  1  0  0  0  0
 11 17  1  0  0  0  0
 13 14  1  0  0  0  0
 13 15  1  0  0  0  0
 13 16  1  0  0  0  0
 17 18  1  0  0  0  0
 17 19  1  0  0  0  0
 17 20  1  0  0  0  0
 20 21  1  0  0  0  0
 20 22  1  0  0  0  0
 20 23  1  0  0  0  0
 24 25  2  0  0  0  0
 24 26  1  0  0  0  0
 26 27  1  0  0  0  0
 26 28  1  0  0  0  0
 28 29  1  0  0  0  0
 28 30  1  0  0  0  0
 28 31  1  0  0  0  0
M  END
$$$$

  -OEChem-03222214053D

 31 30  0     1  0  0  0  0  0999 V2000
   -3.0039   -3.8117    1.4986 H   0  0  0  0  0  0  0  0  0  0  0  0
   -3.0222   -2.7961    1.0934 C   0  0  0  0  0  0  0  0  0  0  0  0
   -3.6162   -2.1627    1.7567 H   0  0  0  0  0  0  0  0  0  0  0  0
   -3.4900   -2.8189    0.1062 H   0  0  0  0  0  0  0  0  0  0  0  0
   -1.6109   -2.2510    0.9846 C   0  0  0  0  0  0  0  0  0  0  0  0
   -0.6632   -2.9424    1.3240 O   0  0  0  0  0  0  0  0  0  0  0  0
   -1.4066   -0.9722    0.5095 N   0  0  0  0  0  0  0  0  0  0  0  0
   -2.2305   -0.3986    0.3353 H   0  0  0  0  0  0  0  0  0  0  0  0
   -0.1049   -0.2874    0.4743 C   0  0  1  0  0  0  0  0  0  0  0  0
    0.5234   -0.7720    1.2189 H   0  0  0  0  0  0  0  0  0  0  0  0
    0.5194   -0.4481   -0.9580 C   0  0  1  0  0  0  0  0  0  0  0  0
   -0.1705   -1.0701   -1.5394 H   0  0  0  0  0  0  0  0  0  0  0  0
    0.6103    0.8863   -1.7245 C   0  0  0  0  0  0  0  0  0  0  0  0
    1.3174    1.5688   -1.2424 H   0  0  0  0  0  0  0  0  0  0  0  0
    0.9466    0.7127   -2.7516 H   0  0  0  0  0  0  0  0  0  0  0  0
   -0.3702    1.3698   -1.7773 H   0  0  0  0  0  0  0  0  0  0  0  0
    1.9016   -1.1680   -1.0465 C   0  0  0  0  0  0  0  0  0  0  0  0
    1.7283   -2.1692   -1.4556 H   0  0  0  0  0  0  0  0  0  0  0  0
    2.5419   -0.6454   -1.7645 H   0  0  0  0  0  0  0  0  0  0  0  0
    2.7063   -1.3444    0.2460 C   0  0  0  0  0  0  0  0  0  0  0  0
    2.2165   -2.0549    0.9193 H   0  0  0  0  0  0  0  0  0  0  0  0
    3.6988   -1.7405    0.0108 H   0  0  0  0  0  0  0  0  0  0  0  0
    2.8325   -0.3852    0.7569 H   0  0  0  0  0  0  0  0  0  0  0  0
   -0.2453    1.1635    0.9854 C   0  0  0  0  0  0  0  0  0  0  0  0
   -1.2524    1.8138    0.7253 O   0  0  0  0  0  0  0  0  0  0  0  0
    0.6777    1.6815    1.8754 N   0  0  0  0  0  0  0  0  0  0  0  0
    1.4682    1.0953    2.1273 H   0  0  0  0  0  0  0  0  0  0  0  0
    0.5484    2.9966    2.4905 C   0  0  0  0  0  0  0  0  0  0  0  0
   -0.3792    3.0600    3.0691 H   0  0  0  0  0  0  0  0  0  0  0  0
    1.3894    3.1827    3.1654 H   0  0  0  0  0  0  0  0  0  0  0  0
    0.5401    3.7786    1.7241 H   0  0  0  0  0  0  0  0  0  0  0  0
  1  2  1  0  0  0  0
  2  3  1  0  0  0  0
  2  4  1  0  0  0  0
  2  5  1  0  0  0  0
  5  6  2  0  0  0  0
  5  7  1  0  0  0  0
  7  8  1  0  0  0  0
  7  9  1  0  0  0  0
  9 10  1  0  0  0  0
  9 11  1  0  0  0  0
  9 24  1  0  0  0  0
 11 12  1  0  0  0  0
 11 13  1  0  0  0  0
 11 17  1  0  0  0  0
 13 14  1  0  0  0  0
 13 15  1  0  0  0  0
 13 16  1  0  0  0  0
 17 18  1  0  0  0  0
 17 19  1  0  0  0  0
 17 20  1  0  0  0  0
 20 21  1  0  0  0  0
 20 22  1  0  0  0  0
 20 23  1  0  0  0  0
 24 25  2  0  0  0  0
 24 26  1  0  0  0  0
 26 27  1  0  0  0  0
 26 28  1  0  0  0  0
 28 29  1  0  0  0  0
 28 30  1  0  0  0  0
 28 31  1  0  0  0  0
M  END
$$$$

  -OEChem-03222214053D

 31 30  0     1  0  0  0  0  0999 V2000
   -3.0397   -3.8012    1.4928 H   0  0  0  0  0  0  0  0  0  0  0  0
   -3.0428   -2.7865    1.0851 C   0  0  0  0  0  0  0  0  0  0  0  0
   -3.6450   -2.1473    1.7352 H   0  0  0  0  0  0  0  0  0  0  0  0
   -3.4921   -2.8084    0.0894 H   0  0  0  0  0  0  0  0  0  0  0  0
   -1.6257   -2.2517    1.0019 C   0  0  0  0  0  0  0  0  0  0  0  0
   -0.6905   -2.9448    1.3699 O   0  0  0  0  0  0  0  0  0  0  0  0
   -1.4061   -0.9772    0.5229 N   0  0  0  0  0  0  0  0  0  0  0  0
   -2.2252   -0.4036    0.3272 H   0  0  0  0  0  0  0  0  0  0  0  0
   -0.1020   -0.2958    0.4893 C   0  0  1  0  0  0  0  0  0  0  0  0
    0.5251   -0.7771    1.2376 H   0  0  0  0  0  0  0  0  0  0  0  0
    0.5299   -0.4464   -0.9417 C   0  0  1  0  0  0  0  0  0  0  0  0
   -0.1582   -1.0833   -1.5089 H   0  0  0  0  0  0  0  0  0  0  0  0
    0.5946    0.8778   -1.7264 C   0  0  0  0  0  0  0  0  0  0  0  0
    1.2802    1.5847   -1.2485 H   0  0  0  0  0  0  0  0  0  0  0  0
    0.9452    0.6964   -2.7472 H   0  0  0  0  0  0  0  0  0  0  0  0
   -0.3971    1.3361   -1.7933 H   0  0  0  0  0  0  0  0  0  0  0  0
    1.9129   -1.1637   -1.0487 C   0  0  0  0  0  0  0  0  0  0  0  0
    1.7952   -2.0190   -1.7226 H   0  0  0  0  0  0  0  0  0  0  0  0
    2.6335   -0.4884   -1.5221 H   0  0  0  0  0  0  0  0  0  0  0  0
    2.5679   -1.6754    0.2381 C   0  0  0  0  0  0  0  0  0  0  0  0
    1.9379   -2.4278    0.7223 H   0  0  0  0  0  0  0  0  0  0  0  0
    3.5291   -2.1424    0.0028 H   0  0  0  0  0  0  0  0  0  0  0  0
    2.7520   -0.8517    0.9344 H   0  0  0  0  0  0  0  0  0  0  0  0
   -0.2435    1.1576    0.9927 C   0  0  0  0  0  0  0  0  0  0  0  0
   -1.2465    1.8097    0.7213 O   0  0  0  0  0  0  0  0  0  0  0  0
    0.6763    1.6781    1.8842 N   0  0  0  0  0  0  0  0  0  0  0  0
    1.4627    1.0903    2.1449 H   0  0  0  0  0  0  0  0  0  0  0  0
    0.5512    2.9995    2.4865 C   0  0  0  0  0  0  0  0  0  0  0  0
   -0.3796    3.0736    3.0586 H   0  0  0  0  0  0  0  0  0  0  0  0
    1.3891    3.1865    3.1648 H   0  0  0  0  0  0  0  0  0  0  0  0
    0.5527    3.7741    1.7125 H   0  0  0  0  0  0  0  0  0  0  0  0
  1  2  1  0  0  0  0
  2  3  1  0  0  0  0
  2  4  1  0  0  0  0
  2  5  1  0  0  0  0
  5  6  2  0  0  0  0
  5  7  1  0  0  0  0
  7  8  1  0  0  0  0
  7  9  1  0  0  0  0
  9 10  1  0  0  0  0
  9 11  1  0  0  0  0
  9 24  1  0  0  0  0
 11 12  1  0  0  0  0
 11 13  1  0  0  0  0
 11 17  1  0  0  0  0
 13 14  1  0  0  0  0
 13 15  1  0  0  0  0
 13 16  1  0  0  0  0
 17 18  1  0  0  0  0
 17 19  1  0  0  0  0
 17 20  1  0  0  0  0
 20 21  1  0  0  0  0
 20 22  1  0  0  0  0
 20 23  1  0  0  0  0
 24 25  2  0  0  0  0
 24 26  1  0  0  0  0
 26 27  1  0  0  0  0
 26 28  1  0  0  0  0
 28 29  1  0  0  0  0
 28 30  1  0  0  0  0
 28 31  1  0  0  0  0
M  END
$$$$

  -OEChem-03222214053D

 31 30  0     1  0  0  0  0  0999 V2000
   -3.0687   -3.7913    1.4918 H   0  0  0  0  0  0  0  0  0  0  0  0
   -3.0572   -2.7792    1.0779 C   0  0  0  0  0  0  0  0  0  0  0  0
   -3.6735   -2.1337    1.7084 H   0  0  0  0  0  0  0  0  0  0  0  0
   -3.4805   -2.8057    0.0709 H   0  0  0  0  0  0  0  0  0  0  0  0
   -1.6363   -2.2502    1.0282 C   0  0  0  0  0  0  0  0  0  0  0  0
   -0.7181   -2.9367    1.4459 O   0  0  0  0  0  0  0  0  0  0  0  0
   -1.4000   -0.9817    0.5416 N   0  0  0  0  0  0  0  0  0  0  0  0
   -2.2129   -0.4118    0.3125 H   0  0  0  0  0  0  0  0  0  0  0  0
   -0.0924   -0.3057    0.5002 C   0  0  1  0  0  0  0  0  0  0  0  0
    0.5444   -0.7856    1.2419 H   0  0  0  0  0  0  0  0  0  0  0  0
    0.5340   -0.4464   -0.9343 C   0  0  1  0  0  0  0  0  0  0  0  0
   -0.1568   -1.0888   -1.4920 H   0  0  0  0  0  0  0  0  0  0  0  0
    0.5951    0.8729   -1.7272 C   0  0  0  0  0  0  0  0  0  0  0  0
    1.2701    1.5896   -1.2486 H   0  0  0  0  0  0  0  0  0  0  0  0
    0.9577    0.6869   -2.7431 H   0  0  0  0  0  0  0  0  0  0  0  0
   -0.4001    1.3220   -1.8057 H   0  0  0  0  0  0  0  0  0  0  0  0
    1.9123   -1.1641   -1.0554 C   0  0  0  0  0  0  0  0  0  0  0  0
    1.8733   -1.8207   -1.9310 H   0  0  0  0  0  0  0  0  0  0  0  0
    2.6850   -0.4142   -1.2548 H   0  0  0  0  0  0  0  0  0  0  0  0
    2.4080   -1.9897    0.1354 C   0  0  0  0  0  0  0  0  0  0  0  0
    1.6717   -2.7487    0.4126 H   0  0  0  0  0  0  0  0  0  0  0  0
    3.3371   -2.5017   -0.1331 H   0  0  0  0  0  0  0  0  0  0  0  0
    2.6158   -1.3514    0.9990 H   0  0  0  0  0  0  0  0  0  0  0  0
   -0.2358    1.1505    0.9948 C   0  0  0  0  0  0  0  0  0  0  0  0
   -1.2376    1.8018    0.7166 O   0  0  0  0  0  0  0  0  0  0  0  0
    0.6837    1.6776    1.8829 N   0  0  0  0  0  0  0  0  0  0  0  0
    1.4669    1.0895    2.1531 H   0  0  0  0  0  0  0  0  0  0  0  0
    0.5521    2.9992    2.4830 C   0  0  0  0  0  0  0  0  0  0  0  0
   -0.3773    3.0687    3.0579 H   0  0  0  0  0  0  0  0  0  0  0  0
    1.3910    3.1930    3.1582 H   0  0  0  0  0  0  0  0  0  0  0  0
    0.5461    3.7724    1.7078 H   0  0  0  0  0  0  0  0  0  0  0  0
  1  2  1  0  0  0  0
  2  3  1  0  0  0  0
  2  4  1  0  0  0  0
  2  5  1  0  0  0  0
  5  6  2  0  0  0  0
  5  7  1  0  0  0  0
  7  8  1  0  0  0  0
  7  9  1  0  0  0  0
  9 10  1  0  0  0  0
  9 11  1  0  0  0  0
  9 24  1  0  0  0  0
 11 12  1  0  0  0  0
 11 13  1  0  0  0  0
 11 17  1  0  0  0  0
 13 14  1  0  0  0  0
 13 15  1  0  0  0  0
 13 16  1  0  0  0  0
 17 18  1  0  0  0  0
 17 19  1  0  0  0  0
 17 20  1  0  0  0  0
 20 21  1  0  0  0  0
 20 22  1  0  0  0  0
 20 23  1  0  0  0  0
 24 25  2  0  0  0  0
 24 26  1  0  0  0  0
 26 27  1  0  0  0  0
 26 28  1  0  0  0  0
 28 29  1  0  0  0  0
 28 30  1  0  0  0  0
 28 31  1  0  0  0  0
M  END
$$$$

  -OEChem-03222214053D

 31 30  0     1  0  0  0  0  0999 V2000
   -3.0647   -3.7964    1.4927 H   0  0  0  0  0  0  0  0  0  0  0  0
   -3.0504   -2.7852    1.0766 C   0  0  0  0  0  0  0  0  0  0  0  0
   -3.6784   -2.1402    1.6960 H   0  0  0  0  0  0  0  0  0  0  0  0
   -3.4582   -2.8154    0.0633 H   0  0  0  0  0  0  0  0  0  0  0  0
   -1.6307   -2.2512    1.0469 C   0  0  0  0  0  0  0  0  0  0  0  0
   -0.7179   -2.9279    1.4915 O   0  0  0  0  0  0  0  0  0  0  0  0
   -1.3916   -0.9856    0.5550 N   0  0  0  0  0  0  0  0  0  0  0  0
   -2.2028   -0.4207    0.3082 H   0  0  0  0  0  0  0  0  0  0  0  0
   -0.0823   -0.3144    0.5009 C   0  0  1  0  0  0  0  0  0  0  0  0
    0.5716   -0.7919    1.2294 H   0  0  0  0  0  0  0  0  0  0  0  0
    0.5270   -0.4456   -0.9406 C   0  0  1  0  0  0  0  0  0  0  0  0
   -0.1710   -1.0777   -1.5009 H   0  0  0  0  0  0  0  0  0  0  0  0
    0.6098    0.8792   -1.7215 C   0  0  0  0  0  0  0  0  0  0  0  0
    1.2915    1.5832   -1.2336 H   0  0  0  0  0  0  0  0  0  0  0  0
    0.9758    0.6978   -2.7370 H   0  0  0  0  0  0  0  0  0  0  0  0
   -0.3790    1.3420   -1.8014 H   0  0  0  0  0  0  0  0  0  0  0  0
    1.8976   -1.1682   -1.0636 C   0  0  0  0  0  0  0  0  0  0  0  0
    1.9588   -1.6079   -2.0647 H   0  0  0  0  0  0  0  0  0  0  0  0
    2.6961   -0.4223   -0.9900 H   0  0  0  0  0  0  0  0  0  0  0  0
    2.2179   -2.2628   -0.0412 C   0  0  0  0  0  0  0  0  0  0  0  0
    1.4111   -2.9996   -0.0050 H   0  0  0  0  0  0  0  0  0  0  0  0
    3.1364   -2.7800   -0.3344 H   0  0  0  0  0  0  0  0  0  0  0  0
    2.3772   -1.8492    0.9580 H   0  0  0  0  0  0  0  0  0  0  0  0
   -0.2273    1.1425    0.9945 C   0  0  0  0  0  0  0  0  0  0  0  0
   -1.2287    1.7937    0.7142 O   0  0  0  0  0  0  0  0  0  0  0  0
    0.6952    1.6749    1.8763 N   0  0  0  0  0  0  0  0  0  0  0  0
    1.4750    1.0856    2.1534 H   0  0  0  0  0  0  0  0  0  0  0  0
    0.5628    2.9986    2.4721 C   0  0  0  0  0  0  0  0  0  0  0  0
   -0.3651    3.0680    3.0496 H   0  0  0  0  0  0  0  0  0  0  0  0
    1.4034    3.1970    3.1439 H   0  0  0  0  0  0  0  0  0  0  0  0
    0.5524    3.7693    1.6942 H   0  0  0  0  0  0  0  0  0  0  0  0
  1  2  1  0  0  0  0
  2  3  1  0  0  0  0
  2  4  1  0  0  0  0
  2  5  1  0  0  0  0
  5  6  2  0  0  0  0
  5  7  1  0  0  0  0
  7  8  1  0  0  0  0
  7  9  1  0  0  0  0
  9 10  1  0  0  0  0
  9 11  1  0  0  0  0
  9 24  1  0  0  0  0
 11 12  1  0  0  0  0
 11 13  1  0  0  0  0
 11 17  1  0  0  0  0
 13 14  1  0  0  0  0
 13 15  1  0  0  0  0
 13 16  1  0  0  0  0
 17 18  1  0  0  0  0
 17 19  1  0  0  0  0
 17 20  1  0  0  0  0
 20 21  1  0  0  0  0
 20 22  1  0  0  0  0
 20 23  1  0  0  0  0
 24 25  2  0  0  0  0
 24 26  1  0  0  0  0
 26 27  1  0  0  0  0
 26 28  1  0  0  0  0
 28 29  1  0  0  0  0
 28 30  1  0  0  0  0
 28 31  1  0  0  0  0
M  END
$$$$

  -OEChem-03222214053D

 31 30  0     1  0  0  0  0  0999 V2000
   -3.0302   -3.8113    1.5005 H   0  0  0  0  0  0  0  0  0  0  0  0
   -3.0245   -2.7996    1.0856 C   0  0  0  0  0  0  0  0  0  0  0  0
   -3.6464   -2.1573    1.7140 H   0  0  0  0  0  0  0  0  0  0  0  0
   -3.4453   -2.8299    0.0776 H   0  0  0  0  0  0  0  0  0  0  0  0
   -1.6071   -2.2613    1.0386 C   0  0  0  0  0  0  0  0  0  0  0  0
   -0.6858   -2.9368    1.4677 O   0  0  0  0  0  0  0  0  0  0  0  0
   -1.3784   -0.9928    0.5494 N   0  0  0  0  0  0  0  0  0  0  0  0
   -2.1937   -0.4287    0.3147 H   0  0  0  0  0  0  0  0  0  0  0  0
   -0.0713   -0.3194    0.4830 C   0  0  1  0  0  0  0  0  0  0  0  0
    0.6030   -0.7958    1.1955 H   0  0  0  0  0  0  0  0  0  0  0  0
    0.5173   -0.4417   -0.9658 C   0  0  1  0  0  0  0  0  0  0  0  0
   -0.1858   -1.0570   -1.5379 H   0  0  0  0  0  0  0  0  0  0  0  0
    0.6305    0.8937   -1.7243 C   0  0  0  0  0  0  0  0  0  0  0  0
    1.3290    1.5731   -1.2255 H   0  0  0  0  0  0  0  0  0  0  0  0
    0.9915    0.7208   -2.7430 H   0  0  0  0  0  0  0  0  0  0  0  0
   -0.3471    1.3808   -1.7962 H   0  0  0  0  0  0  0  0  0  0  0  0
    1.8830   -1.1675   -1.0673 C   0  0  0  0  0  0  0  0  0  0  0  0
    2.0711   -1.3981   -2.1211 H   0  0  0  0  0  0  0  0  0  0  0  0
    2.6740   -0.4871   -0.7355 H   0  0  0  0  0  0  0  0  0  0  0  0
    2.0163   -2.4669   -0.2664 C   0  0  0  0  0  0  0  0  0  0  0  0
    1.1773   -3.1344   -0.4842 H   0  0  0  0  0  0  0  0  0  0  0  0
    2.9420   -2.9782   -0.5469 H   0  0  0  0  0  0  0  0  0  0  0  0
    2.0549   -2.2812    0.8096 H   0  0  0  0  0  0  0  0  0  0  0  0
   -0.2195    1.1342    0.9865 C   0  0  0  0  0  0  0  0  0  0  0  0
   -1.2267    1.7817    0.7185 O   0  0  0  0  0  0  0  0  0  0  0  0
    0.7089    1.6675    1.8616 N   0  0  0  0  0  0  0  0  0  0  0  0
    1.4925    1.0797    2.1311 H   0  0  0  0  0  0  0  0  0  0  0  0
    0.5738    2.9866    2.4668 C   0  0  0  0  0  0  0  0  0  0  0  0
   -0.3443    3.0432    3.0610 H   0  0  0  0  0  0  0  0  0  0  0  0
    1.4244    3.1898    3.1244 H   0  0  0  0  0  0  0  0  0  0  0  0
    0.5417    3.7615    1.6939 H   0  0  0  0  0  0  0  0  0  0  0  0
  1  2  1  0  0  0  0
  2  3  1  0  0  0  0
  2  4  1  0  0  0  0
  2  5  1  0  0  0  0
  5  6  2  0  0  0  0
  5  7  1  0  0  0  0
  7  8  1  0  0  0  0
  7  9  1  0  0  0  0
  9 10  1  0  0  0  0
  9 11  1  0  0  0  0
  9 24  1  0  0  0  0
 11 12  1  0  0  0  0
 11 13  1  0  0  0  0
 11 17  1  0  0  0  0
 13 14  1  0  0  0  0
 13 15  1  0  0  0  0
 13 16  1  0  0  0  0
 17 18  1  0  0  0  0
 17 19  1  0  0  0  0
 17 20  1  0  0  0  0
 20 21  1  0  0  0  0
 20 22  1  0  0  0  0
 20 23  1  0  0  0  0
 24 25  2  0  0  0  0
 24 26  1  0  0  0  0
 26 27  1  0  0  0  0
 26 28  1  0  0  0  0
 28 29  1  0  0  0  0
 28 30  1  0  0  0  0
 28 31  1  0  0  0  0
M  END
$$$$

  -OEChem-03222214053D

 31 30  0     1  0  0  0  0  0999 V2000
   -3.0028   -3.8357    1.4824 H   0  0  0  0  0  0  0  0  0  0  0  0
   -3.0010   -2.8218    1.0725 C   0  0  0  0  0  0  0  0  0  0  0  0
   -3.6245   -2.1849    1.7047 H   0  0  0  0  0  0  0  0  0  0  0  0
   -3.4229   -2.8486    0.0649 H   0  0  0  0  0  0  0  0  0  0  0  0
   -1.5856   -2.2781    1.0265 C   0  0  0  0  0  0  0  0  0  0  0  0
   -0.6631   -2.9533    1.4518 O   0  0  0  0  0  0  0  0  0  0  0  0
   -1.3639   -1.0053    0.5455 N   0  0  0  0  0  0  0  0  0  0  0  0
   -2.1841   -0.4475    0.3130 H   0  0  0  0  0  0  0  0  0  0  0  0
   -0.0626   -0.3211    0.4645 C   0  0  1  0  0  0  0  0  0  0  0  0
    0.6315   -0.8063    1.1557 H   0  0  0  0  0  0  0  0  0  0  0  0
    0.5039   -0.4381   -0.9913 C   0  0  1  0  0  0  0  0  0  0  0  0
   -0.1997   -1.0424   -1.5746 H   0  0  0  0  0  0  0  0  0  0  0  0
    0.6341    0.9070   -1.7302 C   0  0  0  0  0  0  0  0  0  0  0  0
    1.3493    1.5656   -1.2270 H   0  0  0  0  0  0  0  0  0  0  0  0
    0.9821    0.7450   -2.7551 H   0  0  0  0  0  0  0  0  0  0  0  0
   -0.3354    1.4120   -1.7857 H   0  0  0  0  0  0  0  0  0  0  0  0
    1.8704   -1.1579   -1.0589 C   0  0  0  0  0  0  0  0  0  0  0  0
    2.1949   -1.1923   -2.1042 H   0  0  0  0  0  0  0  0  0  0  0  0
    2.6164   -0.5818   -0.5018 H   0  0  0  0  0  0  0  0  0  0  0  0
    1.8554   -2.5940   -0.5301 C   0  0  0  0  0  0  0  0  0  0  0  0
    1.0197   -3.1544   -0.9604 H   0  0  0  0  0  0  0  0  0  0  0  0
    2.7868   -3.0993   -0.8022 H   0  0  0  0  0  0  0  0  0  0  0  0
    1.7719   -2.6131    0.5592 H   0  0  0  0  0  0  0  0  0  0  0  0
   -0.2101    1.1281    0.9806 C   0  0  0  0  0  0  0  0  0  0  0  0
   -1.2220    1.7744    0.7278 O   0  0  0  0  0  0  0  0  0  0  0  0
    0.7294    1.6601    1.8447 N   0  0  0  0  0  0  0  0  0  0  0  0
    1.5151    1.0711    2.1054 H   0  0  0  0  0  0  0  0  0  0  0  0
    0.5962    2.9739    2.4620 C   0  0  0  0  0  0  0  0  0  0  0  0
   -0.3091    3.0186    3.0765 H   0  0  0  0  0  0  0  0  0  0  0  0
    1.4593    3.1800    3.1022 H   0  0  0  0  0  0  0  0  0  0  0  0
    0.5408    3.7540    1.6954 H   0  0  0  0  0  0  0  0  0  0  0  0
  1  2  1  0  0  0  0
  2  3  1  0  0  0  0
  2  4  1  0  0  0  0
  2  5  1  0  0  0  0
  5  6  2  0  0  0  0
  5  7  1  0  0  0  0
  7  8  1  0  0  0  0
  7  9  1  0  0  0  0
  9 10  1  0  0  0  0
  9 11  1  0  0  0  0
  9 24  1  0  0  0  0
 11 12  1  0  0  0  0
 11 13  1  0  0  0  0
 11 17  1  0  0  0  0
 13 14  1  0  0  0  0
 13 15  1  0  0  0  0
 13 16  1  0  0  0  0
 17 18  1  0  0  0  0
 17 19  1  0  0  0  0
 17 20  1  0  0  0  0
 20 21  1  0  0  0  0
 20 22  1  0  0  0  0
 20 23  1  0  0  0  0
 24 25  2  0  0  0  0
 24 26  1  0  0  0  0
 26 27  1  0  0  0  0
 26 28  1  0  0  0  0
 28 29  1  0  0  0  0
 28 30  1  0  0  0  0
 28 31  1  0  0  0  0
M  END
$$$$

  -OEChem-03222214053D

 31 30  0     1  0  0  0  0  0999 V2000
   -2.9874   -3.8532    1.4606 H   0  0  0  0  0  0  0  0  0  0  0  0
   -2.9869   -2.8388    1.0520 C   0  0  0  0  0  0  0  0  0  0  0  0
   -3.6254   -2.2077    1.6747 H   0  0  0  0  0  0  0  0  0  0  0  0
   -3.3925   -2.8679    0.0379 H   0  0  0  0  0  0  0  0  0  0  0  0
   -1.5751   -2.2841    1.0295 C   0  0  0  0  0  0  0  0  0  0  0  0
   -0.6558   -2.9493    1.4764 O   0  0  0  0  0  0  0  0  0  0  0  0
   -1.3557   -1.0097    0.5517 N   0  0  0  0  0  0  0  0  0  0  0  0
   -2.1773   -0.4595    0.3067 H   0  0  0  0  0  0  0  0  0  0  0  0
   -0.0571   -0.3213    0.4598 C   0  0  1  0  0  0  0  0  0  0  0  0
    0.6457   -0.8163    1.1374 H   0  0  0  0  0  0  0  0  0  0  0  0
    0.4948   -0.4355   -1.0019 C   0  0  1  0  0  0  0  0  0  0  0  0
   -0.2124   -1.0296   -1.5914 H   0  0  0  0  0  0  0  0  0  0  0  0
    0.6297    0.9157   -1.7298 C   0  0  0  0  0  0  0  0  0  0  0  0
    1.3553    1.5634   -1.2273 H   0  0  0  0  0  0  0  0  0  0  0  0
    0.9661    0.7606   -2.7597 H   0  0  0  0  0  0  0  0  0  0  0  0
   -0.3359    1.4293   -1.7726 H   0  0  0  0  0  0  0  0  0  0  0  0
    1.8628   -1.1539   -1.0522 C   0  0  0  0  0  0  0  0  0  0  0  0
    2.3162   -0.9870   -2.0349 H   0  0  0  0  0  0  0  0  0  0  0  0
    2.5399   -0.7270   -0.3054 H   0  0  0  0  0  0  0  0  0  0  0  0
    1.7622   -2.6665   -0.8541 C   0  0  0  0  0  0  0  0  0  0  0  0
    1.0001   -3.0959   -1.5116 H   0  0  0  0  0  0  0  0  0  0  0  0
    2.7228   -3.1369   -1.0847 H   0  0  0  0  0  0  0  0  0  0  0  0
    1.5126   -2.9045    0.1816 H   0  0  0  0  0  0  0  0  0  0  0  0
   -0.2022    1.1261    0.9827 C   0  0  0  0  0  0  0  0  0  0  0  0
   -1.2172    1.7714    0.7402 O   0  0  0  0  0  0  0  0  0  0  0  0
    0.7444    1.6586    1.8388 N   0  0  0  0  0  0  0  0  0  0  0  0
    1.5340    1.0713    2.0911 H   0  0  0  0  0  0  0  0  0  0  0  0
    0.6152    2.9725    2.4570 C   0  0  0  0  0  0  0  0  0  0  0  0
   -0.2845    3.0163    3.0800 H   0  0  0  0  0  0  0  0  0  0  0  0
    1.4838    3.1805    3.0891 H   0  0  0  0  0  0  0  0  0  0  0  0
    0.5512    3.7520    1.6905 H   0  0  0  0  0  0  0  0  0  0  0  0
  1  2  1  0  0  0  0
  2  3  1  0  0  0  0
  2  4  1  0  0  0  0
  2  5  1  0  0  0  0
  5  6  2  0  0  0  0
  5  7  1  0  0  0  0
  7  8  1  0  0  0  0
  7  9  1  0  0  0  0
  9 10  1  0  0  0  0
  9 11  1  0  0  0  0
  9 24  1  0  0  0  0
 11 12  1  0  0  0  0
 11 13  1  0  0  0  0
 11 17  1  0  0  0  0
 13 14  1  0  0  0  0
 13 15  1  0  0  0  0
 13 16  1  0  0  0  0
 17 18  1  0  0  0  0
 17 19  1  0  0  0  0
 17 20  1  0  0  0  0
 20 21  1  0  0  0  0
 20 22  1  0  0  0  0
 20 23  1  0  0  0  0
 24 25  2  0  0  0  0
 24 26  1  0  0  0  0
 26 27  1  0  0  0  0
 26 28  1  0  0  0  0
 28 29  1  0  0  0  0
 28 30  1  0  0  0  0
 28 31  1  0  0  0  0
M  END
$$$$

  -OEChem-03222214053D

 31 30  0     1  0  0  0  0  0999 V2000
   -2.9501   -3.8634    1.4650 H   0  0  0  0  0  0  0  0  0  0  0  0
   -2.9645   -2.8471    1.0618 C   0  0  0  0  0  0  0  0  0  0  0  0
   -3.5994   -2.2248    1.6972 H   0  0  0  0  0  0  0  0  0  0  0  0
   -3.3839   -2.8744    0.0533 H   0  0  0  0  0  0  0  0  0  0  0  0
   -1.5579   -2.2805    1.0215 C   0  0  0  0  0  0  0  0  0  0  0  0
   -0.6256   -2.9392    1.4528 O   0  0  0  0  0  0  0  0  0  0  0  0
   -1.3521   -1.0041    0.5423 N   0  0  0  0  0  0  0  0  0  0  0  0
   -2.1769   -0.4539    0.3082 H   0  0  0  0  0  0  0  0  0  0  0  0
   -0.0539   -0.3165    0.4509 C   0  0  1  0  0  0  0  0  0  0  0  0
    0.6450   -0.8127    1.1314 H   0  0  0  0  0  0  0  0  0  0  0  0
    0.4962   -0.4321   -1.0119 C   0  0  1  0  0  0  0  0  0  0  0  0
   -0.2148   -1.0186   -1.6043 H   0  0  0  0  0  0  0  0  0  0  0  0
    0.6341    0.9214   -1.7353 C   0  0  0  0  0  0  0  0  0  0  0  0
    1.3628    1.5651   -1.2320 H   0  0  0  0  0  0  0  0  0  0  0  0
    0.9672    0.7682   -2.7665 H   0  0  0  0  0  0  0  0  0  0  0  0
   -0.3298    1.4383   -1.7745 H   0  0  0  0  0  0  0  0  0  0  0  0
    1.8644   -1.1562   -1.0500 C   0  0  0  0  0  0  0  0  0  0  0  0
    2.4483   -0.7977   -1.9042 H   0  0  0  0  0  0  0  0  0  0  0  0
    2.4468   -0.9317   -0.1509 H   0  0  0  0  0  0  0  0  0  0  0  0
    1.7128   -2.6692   -1.2120 C   0  0  0  0  0  0  0  0  0  0  0  0
    1.1504   -2.9056   -2.1207 H   0  0  0  0  0  0  0  0  0  0  0  0
    2.6987   -3.1384   -1.2833 H   0  0  0  0  0  0  0  0  0  0  0  0
    1.1912   -3.0999   -0.3549 H   0  0  0  0  0  0  0  0  0  0  0  0
   -0.1987    1.1304    0.9753 C   0  0  0  0  0  0  0  0  0  0  0  0
   -1.2146    1.7754    0.7358 O   0  0  0  0  0  0  0  0  0  0  0  0
    0.7484    1.6611    1.8319 N   0  0  0  0  0  0  0  0  0  0  0  0
    1.5395    1.0740    2.0799 H   0  0  0  0  0  0  0  0  0  0  0  0
    0.6143    2.9685    2.4626 C   0  0  0  0  0  0  0  0  0  0  0  0
   -0.2877    3.0043    3.0826 H   0  0  0  0  0  0  0  0  0  0  0  0
    1.4802    3.1711    3.1001 H   0  0  0  0  0  0  0  0  0  0  0  0
    0.5523    3.7556    1.7038 H   0  0  0  0  0  0  0  0  0  0  0  0
  1  2  1  0  0  0  0
  2  3  1  0  0  0  0
  2  4  1  0  0  0  0
  2  5  1  0  0  0  0
  5  6  2  0  0  0  0
  5  7  1  0  0  0  0
  7  8  1  0  0  0  0
  7  9  1  0  0  0  0
  9 10  1  0  0  0  0
  9 11  1  0  0  0  0
  9 24  1  0  0  0  0
 11 12  1  0  0  0  0
 11 13  1  0  0  0  0
 11 17  1  0  0  0  0
 13 14  1  0  0  0  0
 13 15  1  0  0  0  0
 13 16  1  0  0  0  0
 17 18  1  0  0  0  0
 17 19  1  0  0  0  0
 17 20  1  0  0  0  0
 20 21  1  0  0  0  0
 20 22  1  0  0  0  0
 20 23  1  0  0  0  0
 24 25  2  0  0  0  0
 24 26  1  0  0  0  0
 26 27  1  0  0  0  0
 26 28  1  0  0  0  0
 28 29  1  0  0  0  0
 28 30  1  0  0  0  0
 28 31  1  0  0  0  0
M  END
$$$$

  -OEChem-03222214053D

 31 30  0     1  0  0  0  0  0999 V2000
   -2.9246   -3.8591    1.4794 H   0  0  0  0  0  0  0  0  0  0  0  0
   -2.9540   -2.8396    1.0848 C   0  0  0  0  0  0  0  0  0  0  0  0
   -3.5499   -2.2183    1.7577 H   0  0  0  0  0  0  0  0  0  0  0  0
   -3.4269   -2.8563    0.1001 H   0  0  0  0  0  0  0  0  0  0  0  0
   -1.5482   -2.2808    0.9736 C   0  0  0  0  0  0  0  0  0  0  0  0
   -0.5934   -2.9616    1.3137 O   0  0  0  0  0  0  0  0  0  0  0  0
   -1.3597   -0.9969    0.5066 N   0  0  0  0  0  0  0  0  0  0  0  0
   -2.1902   -0.4319    0.3361 H   0  0  0  0  0  0  0  0  0  0  0  0
   -0.0630   -0.3062    0.4345 C   0  0  1  0  0  0  0  0  0  0  0  0
    0.6192   -0.8031    1.1299 H   0  0  0  0  0  0  0  0  0  0  0  0
    0.5034   -0.4305   -1.0198 C   0  0  1  0  0  0  0  0  0  0  0  0
   -0.2042   -1.0213   -1.6126 H   0  0  0  0  0  0  0  0  0  0  0  0
    0.6370    0.9183   -1.7517 C   0  0  0  0  0  0  0  0  0  0  0  0
    1.3546    1.5723   -1.2461 H   0  0  0  0  0  0  0  0  0  0  0  0
    0.9827    0.7582   -2.7778 H   0  0  0  0  0  0  0  0  0  0  0  0
   -0.3311    1.4263   -1.8032 H   0  0  0  0  0  0  0  0  0  0  0  0
    1.8755   -1.1559   -1.0369 C   0  0  0  0  0  0  0  0  0  0  0  0
    2.5725   -0.6292   -1.6972 H   0  0  0  0  0  0  0  0  0  0  0  0
    2.3361   -1.1675   -0.0448 H   0  0  0  0  0  0  0  0  0  0  0  0
    1.7392   -2.5891   -1.5534 C   0  0  0  0  0  0  0  0  0  0  0  0
    1.3513   -2.5939   -2.5767 H   0  0  0  0  0  0  0  0  0  0  0  0
    2.7148   -3.0841   -1.5506 H   0  0  0  0  0  0  0  0  0  0  0  0
    1.0582   -3.1624   -0.9170 H   0  0  0  0  0  0  0  0  0  0  0  0
   -0.2047    1.1367    0.9689 C   0  0  0  0  0  0  0  0  0  0  0  0
   -1.2204    1.7836    0.7351 O   0  0  0  0  0  0  0  0  0  0  0  0
    0.7387    1.6562    1.8364 N   0  0  0  0  0  0  0  0  0  0  0  0
    1.5329    1.0692    2.0742 H   0  0  0  0  0  0  0  0  0  0  0  0
    0.6086    2.9605    2.4743 C   0  0  0  0  0  0  0  0  0  0  0  0
   -0.2950    2.9968    3.0918 H   0  0  0  0  0  0  0  0  0  0  0  0
    1.4732    3.1559    3.1158 H   0  0  0  0  0  0  0  0  0  0  0  0
    0.5523    3.7522    1.7199 H   0  0  0  0  0  0  0  0  0  0  0  0
  1  2  1  0  0  0  0
  2  3  1  0  0  0  0
  2  4  1  0  0  0  0
  2  5  1  0  0  0  0
  5  6  2  0  0  0  0
  5  7  1  0  0  0  0
  7  8  1  0  0  0  0
  7  9  1  0  0  0  0
  9 10  1  0  0  0  0
  9 11  1  0  0  0  0
  9 24  1  0  0  0  0
 11 12  1  0  0  0  0
 11 13  1  0  0  0  0
 11 17  1  0  0  0  0
 13 14  1  0  0  0  0
 13 15  1  0  0  0  0
 13 16  1  0  0  0  0
 17 18  1  0  0  0  0
 17 19  1  0  0  0  0
 17 20  1  0  0  0  0
 20 21  1  0  0  0  0
 20 22  1  0  0  0  0
 20 23  1  0  0  0  0
 24 25  2  0  0  0  0
 24 26  1  0  0  0  0
 26 27  1  0  0  0  0
 26 28  1  0  0  0  0
 28 29  1  0  0  0  0
 28 30  1  0  0  0  0
 28 31  1  0  0  0  0
M  END
$$$$

  -OEChem-03222214053D

 31 30  0     1  0  0  0  0  0999 V2000
   -2.9272   -3.8534    1.4860 H   0  0  0  0  0  0  0  0  0  0  0  0
   -2.9586   -2.8342    1.0908 C   0  0  0  0  0  0  0  0  0  0  0  0
   -3.5466   -2.2113    1.7693 H   0  0  0  0  0  0  0  0  0  0  0  0
   -3.4416   -2.8506    0.1108 H   0  0  0  0  0  0  0  0  0  0  0  0
   -1.5526   -2.2789    0.9638 C   0  0  0  0  0  0  0  0  0  0  0  0
   -0.5941   -2.9676    1.2779 O   0  0  0  0  0  0  0  0  0  0  0  0
   -1.3648   -0.9941    0.4993 N   0  0  0  0  0  0  0  0  0  0  0  0
   -2.1944   -0.4236    0.3426 H   0  0  0  0  0  0  0  0  0  0  0  0
   -0.0663   -0.3060    0.4385 C   0  0  1  0  0  0  0  0  0  0  0  0
    0.6074   -0.8006    1.1431 H   0  0  0  0  0  0  0  0  0  0  0  0
    0.5114   -0.4289   -1.0104 C   0  0  1  0  0  0  0  0  0  0  0  0
   -0.1972   -1.0286   -1.5931 H   0  0  0  0  0  0  0  0  0  0  0  0
    0.6356    0.9119   -1.7573 C   0  0  0  0  0  0  0  0  0  0  0  0
    1.3394    1.5818   -1.2529 H   0  0  0  0  0  0  0  0  0  0  0  0
    0.9949    0.7423   -2.7773 H   0  0  0  0  0  0  0  0  0  0  0  0
   -0.3383    1.4073   -1.8238 H   0  0  0  0  0  0  0  0  0  0  0  0
    1.8833   -1.1567   -1.0313 C   0  0  0  0  0  0  0  0  0  0  0  0
    2.6597   -0.4967   -1.4321 H   0  0  0  0  0  0  0  0  0  0  0  0
    2.2038   -1.4422   -0.0256 H   0  0  0  0  0  0  0  0  0  0  0  0
    1.8225   -2.4235   -1.8859 C   0  0  0  0  0  0  0  0  0  0  0  0
    1.5477   -2.1786   -2.9166 H   0  0  0  0  0  0  0  0  0  0  0  0
    2.7983   -2.9183   -1.8946 H   0  0  0  0  0  0  0  0  0  0  0  0
    1.0833   -3.1217   -1.4798 H   0  0  0  0  0  0  0  0  0  0  0  0
   -0.2062    1.1365    0.9729 C   0  0  0  0  0  0  0  0  0  0  0  0
   -1.2172    1.7876    0.7308 O   0  0  0  0  0  0  0  0  0  0  0  0
    0.7326    1.6519    1.8476 N   0  0  0  0  0  0  0  0  0  0  0  0
    1.5268    1.0648    2.0854 H   0  0  0  0  0  0  0  0  0  0  0  0
    0.6094    2.9619    2.4750 C   0  0  0  0  0  0  0  0  0  0  0  0
   -0.3064    3.0161    3.0731 H   0  0  0  0  0  0  0  0  0  0  0  0
    1.4635    3.1472    3.1336 H   0  0  0  0  0  0  0  0  0  0  0  0
    0.5815    3.7497    1.7149 H   0  0  0  0  0  0  0  0  0  0  0  0
  1  2  1  0  0  0  0
  2  3  1  0  0  0  0
  2  4  1  0  0  0  0
  2  5  1  0  0  0  0
  5  6  2  0  0  0  0
  5  7  1  0  0  0  0
  7  8  1  0  0  0  0
  7  9  1  0  0  0  0
  9 10  1  0  0  0  0
  9 11  1  0  0  0  0
  9 24  1  0  0  0  0
 11 12  1  0  0  0  0
 11 13  1  0  0  0  0
 11 17  1  0  0  0  0
 13 14  1  0  0  0  0
 13 15  1  0  0  0  0
 13 16  1  0  0  0  0
 17 18  1  0  0  0  0
 17 19  1  0  0  0  0
 17 20  1  0  0  0  0
 20 21  1  0  0  0  0
 20 22  1  0  0  0  0
 20 23  1  0  0  0  0
 24 25  2  0  0  0  0
 24 26  1  0  0  0  0
 26 27  1  0  0  0  0
 26 28  1  0  0  0  0
 28 29  1  0  0  0  0
 28 30  1  0  0  0  0
 28 31  1  0  0  0  0
M  END
$$$$

  -OEChem-03222214053D

 31 30  0     1  0  0  0  0  0999 V2000
   -2.9338   -3.8462    1.4924 H   0  0  0  0  0  0  0  0  0  0  0  0
   -2.9633   -2.8273    1.0962 C   0  0  0  0  0  0  0  0  0  0  0  0
   -3.5478   -2.2022    1.7756 H   0  0  0  0  0  0  0  0  0  0  0  0
   -3.4491   -2.8434    0.1177 H   0  0  0  0  0  0  0  0  0  0  0  0
   -1.5560   -2.2761    0.9657 C   0  0  0  0  0  0  0  0  0  0  0  0
   -0.5987   -2.9666    1.2795 O   0  0  0  0  0  0  0  0  0  0  0  0
   -1.3643   -0.9924    0.4995 N   0  0  0  0  0  0  0  0  0  0  0  0
   -2.1920   -0.4195    0.3413 H   0  0  0  0  0  0  0  0  0  0  0  0
   -0.0633   -0.3089    0.4385 C   0  0  1  0  0  0  0  0  0  0  0  0
    0.6143   -0.8016    1.1411 H   0  0  0  0  0  0  0  0  0  0  0  0
    0.5135   -0.4259   -1.0106 C   0  0  1  0  0  0  0  0  0  0  0  0
   -0.1946   -1.0331   -1.5859 H   0  0  0  0  0  0  0  0  0  0  0  0
    0.6379    0.9114   -1.7629 C   0  0  0  0  0  0  0  0  0  0  0  0
    1.3335    1.5874   -1.2556 H   0  0  0  0  0  0  0  0  0  0  0  0
    1.0071    0.7403   -2.7787 H   0  0  0  0  0  0  0  0  0  0  0  0
   -0.3380    1.4013   -1.8384 H   0  0  0  0  0  0  0  0  0  0  0  0
    1.8801   -1.1579   -1.0298 C   0  0  0  0  0  0  0  0  0  0  0  0
    2.6985   -0.4384   -1.1375 H   0  0  0  0  0  0  0  0  0  0  0  0
    2.0479   -1.6994   -0.0939 H   0  0  0  0  0  0  0  0  0  0  0  0
    1.9418   -2.1901   -2.1575 C   0  0  0  0  0  0  0  0  0  0  0  0
    1.7915   -1.7088   -3.1287 H   0  0  0  0  0  0  0  0  0  0  0  0
    2.9184   -2.6834   -2.1616 H   0  0  0  0  0  0  0  0  0  0  0  0
    1.1697   -2.9538   -2.0195 H   0  0  0  0  0  0  0  0  0  0  0  0
   -0.2028    1.1341    0.9718 C   0  0  0  0  0  0  0  0  0  0  0  0
   -1.2130    1.7856    0.7274 O   0  0  0  0  0  0  0  0  0  0  0  0
    0.7346    1.6502    1.8477 N   0  0  0  0  0  0  0  0  0  0  0  0
    1.5272    1.0624    2.0894 H   0  0  0  0  0  0  0  0  0  0  0  0
    0.6073    2.9585    2.4778 C   0  0  0  0  0  0  0  0  0  0  0  0
   -0.3084    3.0083    3.0765 H   0  0  0  0  0  0  0  0  0  0  0  0
    1.4610    3.1459    3.1363 H   0  0  0  0  0  0  0  0  0  0  0  0
    0.5759    3.7476    1.7191 H   0  0  0  0  0  0  0  0  0  0  0  0
  1  2  1  0  0  0  0
  2  3  1  0  0  0  0
  2  4  1  0  0  0  0
  2  5  1  0  0  0  0
  5  6  2  0  0  0  0
  5  7  1  0  0  0  0
  7  8  1  0  0  0  0
  7  9  1  0  0  0  0
  9 10  1  0  0  0  0
  9 11  1  0  0  0  0
  9 24  1  0  0  0  0
 11 12  1  0  0  0  0
 11 13  1  0  0  0  0
 11 17  1  0  0  0  0
 13 14  1  0  0  0  0
 13 15  1  0  0  0  0
 13 16  1  0  0  0  0
 17 18  1  0  0  0  0
 17 19  1  0  0  0  0
 17 20  1  0  0  0  0
 20 21  1  0  0  0  0
 20 22  1  0  0  0  0
 20 23  1  0  0  0  0
 24 25  2  0  0  0  0
 24 26  1  0  0  0  0
 26 27  1  0  0  0  0
 26 28  1  0  0  0  0
 28 29  1  0  0  0  0
 28 30  1  0  0  0  0
 28 31  1  0  0  0  0
M  END
$$$$

  -OEChem-03222214053D

 31 30  0     1  0  0  0  0  0999 V2000
   -2.9299   -3.8478    1.4902 H   0  0  0  0  0  0  0  0  0  0  0  0
   -2.9623   -2.8270    1.0994 C   0  0  0  0  0  0  0  0  0  0  0  0
   -3.5394   -2.2047    1.7877 H   0  0  0  0  0  0  0  0  0  0  0  0
   -3.4576   -2.8379    0.1255 H   0  0  0  0  0  0  0  0  0  0  0  0
   -1.5558   -2.2762    0.9576 C   0  0  0  0  0  0  0  0  0  0  0  0
   -0.5959   -2.9675    1.2612 O   0  0  0  0  0  0  0  0  0  0  0  0
   -1.3683   -0.9904    0.4954 N   0  0  0  0  0  0  0  0  0  0  0  0
   -2.1974   -0.4164    0.3490 H   0  0  0  0  0  0  0  0  0  0  0  0
   -0.0682   -0.3062    0.4265 C   0  0  1  0  0  0  0  0  0  0  0  0
    0.6179   -0.8018    1.1196 H   0  0  0  0  0  0  0  0  0  0  0  0
    0.5009   -0.4198   -1.0248 C   0  0  1  0  0  0  0  0  0  0  0  0
   -0.2009   -1.0340   -1.6004 H   0  0  0  0  0  0  0  0  0  0  0  0
    0.6236    0.9228   -1.7700 C   0  0  0  0  0  0  0  0  0  0  0  0
    1.3326    1.5887   -1.2680 H   0  0  0  0  0  0  0  0  0  0  0  0
    0.9725    0.7628   -2.7942 H   0  0  0  0  0  0  0  0  0  0  0  0
   -0.3499    1.4204   -1.8250 H   0  0  0  0  0  0  0  0  0  0  0  0
    1.8637   -1.1516   -1.0244 C   0  0  0  0  0  0  0  0  0  0  0  0
    2.6768   -0.4398   -0.8490 H   0  0  0  0  0  0  0  0  0  0  0  0
    1.8916   -1.8906   -0.2168 H   0  0  0  0  0  0  0  0  0  0  0  0
    2.1029   -1.9152   -2.3296 C   0  0  0  0  0  0  0  0  0  0  0  0
    2.1272   -1.2317   -3.1831 H   0  0  0  0  0  0  0  0  0  0  0  0
    3.0605   -2.4426   -2.2834 H   0  0  0  0  0  0  0  0  0  0  0  0
    1.3111   -2.6530   -2.4927 H   0  0  0  0  0  0  0  0  0  0  0  0
   -0.2032    1.1345    0.9673 C   0  0  0  0  0  0  0  0  0  0  0  0
   -1.2166    1.7861    0.7369 O   0  0  0  0  0  0  0  0  0  0  0  0
    0.7420    1.6462    1.8374 N   0  0  0  0  0  0  0  0  0  0  0  0
    1.5355    1.0562    2.0702 H   0  0  0  0  0  0  0  0  0  0  0  0
    0.6174    2.9487    2.4798 C   0  0  0  0  0  0  0  0  0  0  0  0
   -0.2852    2.9856    3.0988 H   0  0  0  0  0  0  0  0  0  0  0  0
    1.4840    3.1391    3.1203 H   0  0  0  0  0  0  0  0  0  0  0  0
    0.5623    3.7431    1.7280 H   0  0  0  0  0  0  0  0  0  0  0  0
  1  2  1  0  0  0  0
  2  3  1  0  0  0  0
  2  4  1  0  0  0  0
  2  5  1  0  0  0  0
  5  6  2  0  0  0  0
  5  7  1  0  0  0  0
  7  8  1  0  0  0  0
  7  9  1  0  0  0  0
  9 10  1  0  0  0  0
  9 11  1  0  0  0  0
  9 24  1  0  0  0  0
 11 12  1  0  0  0  0
 11 13  1  0  0  0  0
 11 17  1  0  0  0  0
 13 14  1  0  0  0  0
 13 15  1  0  0  0  0
 13 16  1  0  0  0  0
 17 18  1  0  0  0  0
 17 19  1  0  0  0  0
 17 20  1  0  0  0  0
 20 21  1  0  0  0  0
 20 22  1  0  0  0  0
 20 23  1  0  0  0  0
 24 25  2  0  0  0  0
 24 26  1  0  0  0  0
 26 27  1  0  0  0  0
 26 28  1  0  0  0  0
 28 29  1  0  0  0  0
 28 30  1  0  0  0  0
 28 31  1  0  0  0  0
M  END
$$$$

  -OEChem-03222214053D

 31 30  0     1  0  0  0  0  0999 V2000
   -2.9200   -3.8581    1.4823 H   0  0  0  0  0  0  0  0  0  0  0  0
   -2.9577   -2.8364    1.0941 C   0  0  0  0  0  0  0  0  0  0  0  0
   -3.5335   -2.2175    1.7866 H   0  0  0  0  0  0  0  0  0  0  0  0
   -3.4580   -2.8466    0.1228 H   0  0  0  0  0  0  0  0  0  0  0  0
   -1.5537   -2.2805    0.9470 C   0  0  0  0  0  0  0  0  0  0  0  0
   -0.5901   -2.9716    1.2391 O   0  0  0  0  0  0  0  0  0  0  0  0
   -1.3727   -0.9906    0.4940 N   0  0  0  0  0  0  0  0  0  0  0  0
   -2.2047   -0.4187    0.3566 H   0  0  0  0  0  0  0  0  0  0  0  0
   -0.0756   -0.3018    0.4162 C   0  0  1  0  0  0  0  0  0  0  0  0
    0.6194   -0.8037    1.0967 H   0  0  0  0  0  0  0  0  0  0  0  0
    0.4821   -0.4112   -1.0392 C   0  0  1  0  0  0  0  0  0  0  0  0
   -0.2106   -1.0325   -1.6181 H   0  0  0  0  0  0  0  0  0  0  0  0
    0.5882    0.9391   -1.7748 C   0  0  0  0  0  0  0  0  0  0  0  0
    1.3262    1.5901   -1.2956 H   0  0  0  0  0  0  0  0  0  0  0  0
    0.8852    0.7914   -2.8164 H   0  0  0  0  0  0  0  0  0  0  0  0
   -0.3805    1.4484   -1.7825 H   0  0  0  0  0  0  0  0  0  0  0  0
    1.8442   -1.1401   -1.0178 C   0  0  0  0  0  0  0  0  0  0  0  0
    2.6105   -0.4874   -0.5875 H   0  0  0  0  0  0  0  0  0  0  0  0
    1.7652   -2.0273   -0.3795 H   0  0  0  0  0  0  0  0  0  0  0  0
    2.2908   -1.6138   -2.4043 C   0  0  0  0  0  0  0  0  0  0  0  0
    2.4987   -0.7661   -3.0628 H   0  0  0  0  0  0  0  0  0  0  0  0
    3.2057   -2.2073   -2.3166 H   0  0  0  0  0  0  0  0  0  0  0  0
    1.5175   -2.2368   -2.8642 H   0  0  0  0  0  0  0  0  0  0  0  0
   -0.2043    1.1348    0.9698 C   0  0  0  0  0  0  0  0  0  0  0  0
   -1.2216    1.7867    0.7585 O   0  0  0  0  0  0  0  0  0  0  0  0
    0.7510    1.6408    1.8321 N   0  0  0  0  0  0  0  0  0  0  0  0
    1.5502    1.0520    2.0482 H   0  0  0  0  0  0  0  0  0  0  0  0
    0.6378    2.9438    2.4756 C   0  0  0  0  0  0  0  0  0  0  0  0
   -0.2617    2.9870    3.0987 H   0  0  0  0  0  0  0  0  0  0  0  0
    1.5082    3.1283    3.1124 H   0  0  0  0  0  0  0  0  0  0  0  0
    0.5846    3.7384    1.7240 H   0  0  0  0  0  0  0  0  0  0  0  0
  1  2  1  0  0  0  0
  2  3  1  0  0  0  0
  2  4  1  0  0  0  0
  2  5  1  0  0  0  0
  5  6  2  0  0  0  0
  5  7  1  0  0  0  0
  7  8  1  0  0  0  0
  7  9  1  0  0  0  0
  9 10  1  0  0  0  0
  9 11  1  0  0  0  0
  9 24  1  0  0  0  0
 11 12  1  0  0  0  0
 11 13  1  0  0  0  0
 11 17  1  0  0  0  0
 13 14  1  0  0  0  0
 13 15  1  0  0  0  0
 13 16  1  0  0  0  0
 17 18  1  0  0  0  0
 17 19  1  0  0  0  0
 17 20  1  0  0  0  0
 20 21  1  0  0  0  0
 20 22  1  0  0  0  0
 20 23  1  0  0  0  0
 24 25  2  0  0  0  0
 24 26  1  0  0  0  0
 26 27  1  0  0  0  0
 26 28  1  0  0  0  0
 28 29  1  0  0  0  0
 28 30  1  0  0  0  0
 28 31  1  0  0  0  0
M  END
$$$$

  -OEChem-03222214053D

 31 30  0     1  0  0  0  0  0999 V2000
   -2.9092   -3.8510    1.4802 H   0  0  0  0  0  0  0  0  0  0  0  0
   -2.9392   -2.8295    1.0907 C   0  0  0  0  0  0  0  0  0  0  0  0
   -3.5211   -2.2084    1.7760 H   0  0  0  0  0  0  0  0  0  0  0  0
   -3.4282   -2.8394    0.1136 H   0  0  0  0  0  0  0  0  0  0  0  0
   -1.5321   -2.2777    0.9593 C   0  0  0  0  0  0  0  0  0  0  0  0
   -0.5747   -2.9666    1.2755 O   0  0  0  0  0  0  0  0  0  0  0  0
   -1.3434   -0.9909    0.5011 N   0  0  0  0  0  0  0  0  0  0  0  0
   -2.1731   -0.4185    0.3508 H   0  0  0  0  0  0  0  0  0  0  0  0
   -0.0440   -0.3063    0.4180 C   0  0  1  0  0  0  0  0  0  0  0  0
    0.6702   -0.8015    1.0842 H   0  0  0  0  0  0  0  0  0  0  0  0
    0.4775   -0.4002   -1.0532 C   0  0  1  0  0  0  0  0  0  0  0  0
   -0.3392   -0.7409   -1.6993 H   0  0  0  0  0  0  0  0  0  0  0  0
    0.9603    0.9524   -1.6203 C   0  0  0  0  0  0  0  0  0  0  0  0
    1.8159    1.3294   -1.0512 H   0  0  0  0  0  0  0  0  0  0  0  0
    1.2557    0.8539   -2.6681 H   0  0  0  0  0  0  0  0  0  0  0  0
    0.1583    1.6962   -1.5899 H   0  0  0  0  0  0  0  0  0  0  0  0
    1.6111   -1.4528   -1.1044 C   0  0  0  0  0  0  0  0  0  0  0  0
    2.4120   -1.1678   -0.4144 H   0  0  0  0  0  0  0  0  0  0  0  0
    1.2093   -2.4135   -0.7652 H   0  0  0  0  0  0  0  0  0  0  0  0
    2.2205   -1.6538   -2.4959 C   0  0  0  0  0  0  0  0  0  0  0  0
    2.7976   -0.7778   -2.8053 H   0  0  0  0  0  0  0  0  0  0  0  0
    2.8959   -2.5146   -2.4838 H   0  0  0  0  0  0  0  0  0  0  0  0
    1.4347   -1.8415   -3.2341 H   0  0  0  0  0  0  0  0  0  0  0  0
   -0.2033    1.1274    0.9733 C   0  0  0  0  0  0  0  0  0  0  0  0
   -1.2221    1.7693    0.7377 O   0  0  0  0  0  0  0  0  0  0  0  0
    0.7365    1.6506    1.8426 N   0  0  0  0  0  0  0  0  0  0  0  0
    1.5355    1.0690    2.0779 H   0  0  0  0  0  0  0  0  0  0  0  0
    0.5953    2.9511    2.4856 C   0  0  0  0  0  0  0  0  0  0  0  0
   -0.3093    2.9773    3.1021 H   0  0  0  0  0  0  0  0  0  0  0  0
    1.4576    3.1510    3.1287 H   0  0  0  0  0  0  0  0  0  0  0  0
    0.5335    3.7455    1.7346 H   0  0  0  0  0  0  0  0  0  0  0  0
  1  2  1  0  0  0  0
  2  3  1  0  0  0  0
  2  4  1  0  0  0  0
  2  5  1  0  0  0  0
  5  6  2  0  0  0  0
  5  7  1  0  0  0  0
  7  8  1  0  0  0  0
  7  9  1  0  0  0  0
  9 10  1  0  0  0  0
  9 11  1  0  0  0  0
  9 24  1  0  0  0  0
 11 12  1  0  0  0  0
 11 13  1  0  0  0  0
 11 17  1  0  0  0  0
 13 14  1  0  0  0  0
 13 15  1  0  0  0  0
 13 16  1  0  0  0  0
 17 18  1  0  0  0  0
 17 19  1  0  0  0  0
 17 20  1  0  0  0  0
 20 21  1  0  0  0  0
 20 22  1  0  0  0  0
 20 23  1  0  0  0  0
 24 25  2  0  0  0  0
 24 26  1  0  0  0  0
 26 27  1  0  0  0  0
 26 28  1  0  0  0  0
 28 29  1  0  0  0  0
 28 30  1  0  0  0  0
 28 31  1  0  0  0  0
M  END
$$$$

  -OEChem-03222214053D

 31 30  0     1  0  0  0  0  0999 V2000
   -2.9030   -3.8548    1.4736 H   0  0  0  0  0  0  0  0  0  0  0  0
   -2.9383   -2.8329    1.0859 C   0  0  0  0  0  0  0  0  0  0  0  0
   -3.5175   -2.2144    1.7757 H   0  0  0  0  0  0  0  0  0  0  0  0
   -3.4339   -2.8425    0.1122 H   0  0  0  0  0  0  0  0  0  0  0  0
   -1.5334   -2.2772    0.9460 C   0  0  0  0  0  0  0  0  0  0  0  0
   -0.5714   -2.9678    1.2446 O   0  0  0  0  0  0  0  0  0  0  0  0
   -1.3500   -0.9868    0.4957 N   0  0  0  0  0  0  0  0  0  0  0  0
   -2.1810   -0.4133    0.3569 H   0  0  0  0  0  0  0  0  0  0  0  0
   -0.0516   -0.3001    0.4177 C   0  0  1  0  0  0  0  0  0  0  0  0
    0.6546   -0.7977    1.0896 H   0  0  0  0  0  0  0  0  0  0  0  0
    0.4739   -0.3962   -1.0539 C   0  0  1  0  0  0  0  0  0  0  0  0
   -0.3370   -0.7417   -1.7048 H   0  0  0  0  0  0  0  0  0  0  0  0
    0.9310    0.9683   -1.6177 C   0  0  0  0  0  0  0  0  0  0  0  0
    1.7831    1.3577   -1.0515 H   0  0  0  0  0  0  0  0  0  0  0  0
    1.2209    0.8806   -2.6685 H   0  0  0  0  0  0  0  0  0  0  0  0
    0.1164    1.6978   -1.5801 H   0  0  0  0  0  0  0  0  0  0  0  0
    1.6132   -1.4497   -1.1069 C   0  0  0  0  0  0  0  0  0  0  0  0
    2.2900   -1.3041   -0.2588 H   0  0  0  0  0  0  0  0  0  0  0  0
    1.1675   -2.4448   -1.0034 H   0  0  0  0  0  0  0  0  0  0  0  0
    2.4749   -1.4216   -2.3742 C   0  0  0  0  0  0  0  0  0  0  0  0
    3.0740   -0.5075   -2.4243 H   0  0  0  0  0  0  0  0  0  0  0  0
    3.1606   -2.2743   -2.3744 H   0  0  0  0  0  0  0  0  0  0  0  0
    1.8448   -1.4857   -3.2668 H   0  0  0  0  0  0  0  0  0  0  0  0
   -0.2079    1.1305    0.9810 C   0  0  0  0  0  0  0  0  0  0  0  0
   -1.2268    1.7746    0.7527 O   0  0  0  0  0  0  0  0  0  0  0  0
    0.7336    1.6467    1.8524 N   0  0  0  0  0  0  0  0  0  0  0  0
    1.5388    1.0680    2.0734 H   0  0  0  0  0  0  0  0  0  0  0  0
    0.6061    2.9524    2.4877 C   0  0  0  0  0  0  0  0  0  0  0  0
   -0.3009    2.9943    3.1000 H   0  0  0  0  0  0  0  0  0  0  0  0
    1.4682    3.1442    3.1337 H   0  0  0  0  0  0  0  0  0  0  0  0
    0.5578    3.7431    1.7315 H   0  0  0  0  0  0  0  0  0  0  0  0
  1  2  1  0  0  0  0
  2  3  1  0  0  0  0
  2  4  1  0  0  0  0
  2  5  1  0  0  0  0
  5  6  2  0  0  0  0
  5  7  1  0  0  0  0
  7  8  1  0  0  0  0
  7  9  1  0  0  0  0
  9 10  1  0  0  0  0
  9 11  1  0  0  0  0
  9 24  1  0  0  0  0
 11 12  1  0  0  0  0
 11 13  1  0  0  0  0
 11 17  1  0  0  0  0
 13 14  1  0  0  0  0
 13 15  1  0  0  0  0
 13 16  1  0  0  0  0
 17 18  1  0  0  0  0
 17 19  1  0  0  0  0
 17 20  1  0  0  0  0
 20 21  1  0  0  0  0
 20 22  1  0  0  0  0
 20 23  1  0  0  0  0
 24 25  2  0  0  0  0
 24 26  1  0  0  0  0
 26 27  1  0  0  0  0
 26 28  1  0  0  0  0
 28 29  1  0  0  0  0
 28 30  1  0  0  0  0
 28 31  1  0  0  0  0
M  END
$$$$

  -OEChem-03222214053D

 31 30  0     1  0  0  0  0  0999 V2000
   -2.9067   -3.8418    1.4725 H   0  0  0  0  0  0  0  0  0  0  0  0
   -2.9390   -2.8182    1.0886 C   0  0  0  0  0  0  0  0  0  0  0  0
   -3.5095   -2.1986    1.7849 H   0  0  0  0  0  0  0  0  0  0  0  0
   -3.4412   -2.8213    0.1181 H   0  0  0  0  0  0  0  0  0  0  0  0
   -1.5323   -2.2698    0.9411 C   0  0  0  0  0  0  0  0  0  0  0  0
   -0.5716   -2.9664    1.2298 O   0  0  0  0  0  0  0  0  0  0  0  0
   -1.3463   -0.9797    0.4919 N   0  0  0  0  0  0  0  0  0  0  0  0
   -2.1756   -0.4014    0.3636 H   0  0  0  0  0  0  0  0  0  0  0  0
   -0.0466   -0.2956    0.4218 C   0  0  1  0  0  0  0  0  0  0  0  0
    0.6497   -0.7905    1.1043 H   0  0  0  0  0  0  0  0  0  0  0  0
    0.4851   -0.3985   -1.0493 C   0  0  1  0  0  0  0  0  0  0  0  0
   -0.3253   -0.7500   -1.6977 H   0  0  0  0  0  0  0  0  0  0  0  0
    0.9102    0.9743   -1.6200 C   0  0  0  0  0  0  0  0  0  0  0  0
    1.7465    1.3921   -1.0504 H   0  0  0  0  0  0  0  0  0  0  0  0
    1.2092    0.8872   -2.6684 H   0  0  0  0  0  0  0  0  0  0  0  0
    0.0756    1.6815   -1.5930 H   0  0  0  0  0  0  0  0  0  0  0  0
    1.6291   -1.4554   -1.1198 C   0  0  0  0  0  0  0  0  0  0  0  0
    2.1600   -1.4989   -0.1643 H   0  0  0  0  0  0  0  0  0  0  0  0
    1.1746   -2.4392   -1.2777 H   0  0  0  0  0  0  0  0  0  0  0  0
    2.7053   -1.2247   -2.1881 C   0  0  0  0  0  0  0  0  0  0  0  0
    3.2658   -0.3054   -1.9937 H   0  0  0  0  0  0  0  0  0  0  0  0
    3.4137   -2.0587   -2.1847 H   0  0  0  0  0  0  0  0  0  0  0  0
    2.2524   -1.1655   -3.1825 H   0  0  0  0  0  0  0  0  0  0  0  0
   -0.2060    1.1353    0.9847 C   0  0  0  0  0  0  0  0  0  0  0  0
   -1.2269    1.7764    0.7565 O   0  0  0  0  0  0  0  0  0  0  0  0
    0.7296    1.6517    1.8624 N   0  0  0  0  0  0  0  0  0  0  0  0
    1.5344    1.0740    2.0873 H   0  0  0  0  0  0  0  0  0  0  0  0
    0.5916    2.9532    2.5043 C   0  0  0  0  0  0  0  0  0  0  0  0
   -0.3134    2.9822    3.1204 H   0  0  0  0  0  0  0  0  0  0  0  0
    1.4541    3.1519    3.1476 H   0  0  0  0  0  0  0  0  0  0  0  0
    0.5317    3.7467    1.7520 H   0  0  0  0  0  0  0  0  0  0  0  0
  1  2  1  0  0  0  0
  2  3  1  0  0  0  0
  2  4  1  0  0  0  0
  2  5  1  0  0  0  0
  5  6  2  0  0  0  0
  5  7  1  0  0  0  0
  7  8  1  0  0  0  0
  7  9  1  0  0  0  0
  9 10  1  0  0  0  0
  9 11  1  0  0  0  0
  9 24  1  0  0  0  0
 11 12  1  0  0  0  0
 11 13  1  0  0  0  0
 11 17  1  0  0  0  0
 13 14  1  0  0  0  0
 13 15  1  0  0  0  0
 13 16  1  0  0  0  0
 17 18  1  0  0  0  0
 17 19  1  0  0  0  0
 17 20  1  0  0  0  0
 20 21  1  0  0  0  0
 20 22  1  0  0  0  0
 20 23  1  0  0  0  0
 24 25  2  0  0  0  0
 24 26  1  0  0  0  0
 26 27  1  0  0  0  0
 26 28  1  0  0  0  0
 28 29  1  0  0  0  0
 28 30  1  0  0  0  0
 28 31  1  0  0  0  0
M  END
$$$$

  -OEChem-03222214053D

 31 30  0     1  0  0  0  0  0999 V2000
   -2.9117   -3.8325    1.4782 H   0  0  0  0  0  0  0  0  0  0  0  0
   -2.9412   -2.8096    1.0924 C   0  0  0  0  0  0  0  0  0  0  0  0
   -3.5135   -2.1881    1.7853 H   0  0  0  0  0  0  0  0  0  0  0  0
   -3.4395   -2.8136    0.1200 H   0  0  0  0  0  0  0  0  0  0  0  0
   -1.5334   -2.2632    0.9494 C   0  0  0  0  0  0  0  0  0  0  0  0
   -0.5744   -2.9586    1.2467 O   0  0  0  0  0  0  0  0  0  0  0  0
   -1.3439   -0.9754    0.4952 N   0  0  0  0  0  0  0  0  0  0  0  0
   -2.1714   -0.3958    0.3614 H   0  0  0  0  0  0  0  0  0  0  0  0
   -0.0421   -0.2952    0.4292 C   0  0  1  0  0  0  0  0  0  0  0  0
    0.6501   -0.7841    1.1197 H   0  0  0  0  0  0  0  0  0  0  0  0
    0.4982   -0.3980   -1.0398 C   0  0  1  0  0  0  0  0  0  0  0  0
   -0.3142   -0.7607   -1.6796 H   0  0  0  0  0  0  0  0  0  0  0  0
    0.8906    0.9768   -1.6286 C   0  0  0  0  0  0  0  0  0  0  0  0
    1.7054    1.4325   -1.0573 H   0  0  0  0  0  0  0  0  0  0  0  0
    1.2041    0.8779   -2.6715 H   0  0  0  0  0  0  0  0  0  0  0  0
    0.0343    1.6582   -1.6223 H   0  0  0  0  0  0  0  0  0  0  0  0
    1.6453   -1.4566   -1.1275 C   0  0  0  0  0  0  0  0  0  0  0  0
    1.9918   -1.7330   -0.1281 H   0  0  0  0  0  0  0  0  0  0  0  0
    1.2275   -2.3667   -1.5707 H   0  0  0  0  0  0  0  0  0  0  0  0
    2.8962   -1.0627   -1.9240 C   0  0  0  0  0  0  0  0  0  0  0  0
    3.3793   -0.1834   -1.4875 H   0  0  0  0  0  0  0  0  0  0  0  0
    3.6165   -1.8864   -1.9093 H   0  0  0  0  0  0  0  0  0  0  0  0
    2.6430   -0.8548   -2.9679 H   0  0  0  0  0  0  0  0  0  0  0  0
   -0.2036    1.1383    0.9856 C   0  0  0  0  0  0  0  0  0  0  0  0
   -1.2241    1.7786    0.7528 O   0  0  0  0  0  0  0  0  0  0  0  0
    0.7278    1.6560    1.8669 N   0  0  0  0  0  0  0  0  0  0  0  0
    1.5304    1.0774    2.0976 H   0  0  0  0  0  0  0  0  0  0  0  0
    0.5819    2.9531    2.5158 C   0  0  0  0  0  0  0  0  0  0  0  0
   -0.3315    2.9790    3.1195 H   0  0  0  0  0  0  0  0  0  0  0  0
    1.4356    3.1458    3.1727 H   0  0  0  0  0  0  0  0  0  0  0  0
    0.5333    3.7522    1.7687 H   0  0  0  0  0  0  0  0  0  0  0  0
  1  2  1  0  0  0  0
  2  3  1  0  0  0  0
  2  4  1  0  0  0  0
  2  5  1  0  0  0  0
  5  6  2  0  0  0  0
  5  7  1  0  0  0  0
  7  8  1  0  0  0  0
  7  9  1  0  0  0  0
  9 10  1  0  0  0  0
  9 11  1  0  0  0  0
  9 24  1  0  0  0  0
 11 12  1  0  0  0  0
 11 13  1  0  0  0  0
 11 17  1  0  0  0  0
 13 14  1  0  0  0  0
 13 15  1  0  0  0  0
 13 16  1  0  0  0  0
 17 18  1  0  0  0  0
 17 19  1  0  0  0  0
 17 20  1  0  0  0  0
 20 21  1  0  0  0  0
 20 22  1  0  0  0  0
 20 23  1  0  0  0  0
 24 25  2  0  0  0  0
 24 26  1  0  0  0  0
 26 27  1  0  0  0  0
 26 28  1  0  0  0  0
 28 29  1  0  0  0  0
 28 30  1  0  0  0  0
 28 31  1  0  0  0  0
M  END
$$$$

  -OEChem-03222214053D

 31 30  0     1  0  0  0  0  0999 V2000
   -2.9214   -3.8328    1.4821 H   0  0  0  0  0  0  0  0  0  0  0  0
   -2.9483   -2.8107    1.0945 C   0  0  0  0  0  0  0  0  0  0  0  0
   -3.5215   -2.1869    1.7846 H   0  0  0  0  0  0  0  0  0  0  0  0
   -3.4439   -2.8157    0.1207 H   0  0  0  0  0  0  0  0  0  0  0  0
   -1.5391   -2.2674    0.9544 C   0  0  0  0  0  0  0  0  0  0  0  0
   -0.5823   -2.9643    1.2550 O   0  0  0  0  0  0  0  0  0  0  0  0
   -1.3462   -0.9807    0.4989 N   0  0  0  0  0  0  0  0  0  0  0  0
   -2.1724   -0.3992    0.3646 H   0  0  0  0  0  0  0  0  0  0  0  0
   -0.0430   -0.3025    0.4351 C   0  0  1  0  0  0  0  0  0  0  0  0
    0.6517   -0.7906    1.1242 H   0  0  0  0  0  0  0  0  0  0  0  0
    0.5067   -0.3944   -1.0290 C   0  0  1  0  0  0  0  0  0  0  0  0
   -0.3066   -0.7701   -1.6602 H   0  0  0  0  0  0  0  0  0  0  0  0
    0.8791    0.9758   -1.6377 C   0  0  0  0  0  0  0  0  0  0  0  0
    1.6744    1.4631   -1.0652 H   0  0  0  0  0  0  0  0  0  0  0  0
    1.2114    0.8582   -2.6730 H   0  0  0  0  0  0  0  0  0  0  0  0
    0.0075    1.6374   -1.6558 H   0  0  0  0  0  0  0  0  0  0  0  0
    1.6536   -1.4508   -1.1206 C   0  0  0  0  0  0  0  0  0  0  0  0
    1.7905   -1.9633   -0.1640 H   0  0  0  0  0  0  0  0  0  0  0  0
    1.3358   -2.2209   -1.8311 H   0  0  0  0  0  0  0  0  0  0  0  0
    3.0254   -0.9414   -1.5816 C   0  0  0  0  0  0  0  0  0  0  0  0
    3.3926   -0.1582   -0.9117 H   0  0  0  0  0  0  0  0  0  0  0  0
    3.7465   -1.7645   -1.5705 H   0  0  0  0  0  0  0  0  0  0  0  0
    2.9795   -0.5500   -2.6018 H   0  0  0  0  0  0  0  0  0  0  0  0
   -0.2027    1.1318    0.9888 C   0  0  0  0  0  0  0  0  0  0  0  0
   -1.2201    1.7745    0.7497 O   0  0  0  0  0  0  0  0  0  0  0  0
    0.7273    1.6497    1.8714 N   0  0  0  0  0  0  0  0  0  0  0  0
    1.5291    1.0709    2.1039 H   0  0  0  0  0  0  0  0  0  0  0  0
    0.5888    2.9546    2.5063 C   0  0  0  0  0  0  0  0  0  0  0  0
   -0.3205    2.9899    3.1157 H   0  0  0  0  0  0  0  0  0  0  0  0
    1.4474    3.1528    3.1550 H   0  0  0  0  0  0  0  0  0  0  0  0
    0.5375    3.7445    1.7495 H   0  0  0  0  0  0  0  0  0  0  0  0
  1  2  1  0  0  0  0
  2  3  1  0  0  0  0
  2  4  1  0  0  0  0
  2  5  1  0  0  0  0
  5  6  2  0  0  0  0
  5  7  1  0  0  0  0
  7  8  1  0  0  0  0
  7  9  1  0  0  0  0
  9 10  1  0  0  0  0
  9 11  1  0  0  0  0
  9 24  1  0  0  0  0
 11 12  1  0  0  0  0
 11 13  1  0  0  0  0
 11 17  1  0  0  0  0
 13 14  1  0  0  0  0
 13 15  1  0  0  0  0
 13 16  1  0  0  0  0
 17 18  1  0  0  0  0
 17 19  1  0  0  0  0
 17 20  1  0  0  0  0
 20 21  1  0  0  0  0
 20 22  1  0  0  0  0
 20 23  1  0  0  0  0
 24 25  2  0  0  0  0
 24 26  1  0  0  0  0
 26 27  1  0  0  0  0
 26 28  1  0  0  0  0
 28 29  1  0  0  0  0
 28 30  1  0  0  0  0
 28 31  1  0  0  0  0
M  END
$$$$

  -OEChem-03222214053D

 31 30  0     1  0  0  0  0  0999 V2000
   -2.9288   -3.8373    1.4842 H   0  0  0  0  0  0  0  0  0  0  0  0
   -2.9524   -2.8162    1.0933 C   0  0  0  0  0  0  0  0  0  0  0  0
   -3.5321   -2.1905    1.7762 H   0  0  0  0  0  0  0  0  0  0  0  0
   -3.4390   -2.8246    0.1149 H   0  0  0  0  0  0  0  0  0  0  0  0
   -1.5424   -2.2723    0.9647 C   0  0  0  0  0  0  0  0  0  0  0  0
   -0.5886   -2.9664    1.2804 O   0  0  0  0  0  0  0  0  0  0  0  0
   -1.3464   -0.9870    0.5060 N   0  0  0  0  0  0  0  0  0  0  0  0
   -2.1723   -0.4083    0.3586 H   0  0  0  0  0  0  0  0  0  0  0  0
   -0.0430   -0.3089    0.4386 C   0  0  1  0  0  0  0  0  0  0  0  0
    0.6585   -0.8003    1.1197 H   0  0  0  0  0  0  0  0  0  0  0  0
    0.5063   -0.3931   -1.0233 C   0  0  1  0  0  0  0  0  0  0  0  0
   -0.3074   -0.7765   -1.6494 H   0  0  0  0  0  0  0  0  0  0  0  0
    0.8835    0.9681   -1.6451 C   0  0  0  0  0  0  0  0  0  0  0  0
    1.6584    1.4746   -1.0614 H   0  0  0  0  0  0  0  0  0  0  0  0
    1.2496    0.8288   -2.6667 H   0  0  0  0  0  0  0  0  0  0  0  0
    0.0065    1.6208   -1.6984 H   0  0  0  0  0  0  0  0  0  0  0  0
    1.6495   -1.4454   -1.1117 C   0  0  0  0  0  0  0  0  0  0  0  0
    1.6000   -2.1395   -0.2666 H   0  0  0  0  0  0  0  0  0  0  0  0
    1.4782   -2.0467   -2.0104 H   0  0  0  0  0  0  0  0  0  0  0  0
    3.0722   -0.8817   -1.2118 C   0  0  0  0  0  0  0  0  0  0  0  0
    3.2836   -0.2244   -0.3631 H   0  0  0  0  0  0  0  0  0  0  0  0
    3.7962   -1.7022   -1.1996 H   0  0  0  0  0  0  0  0  0  0  0  0
    3.2138   -0.3226   -2.1412 H   0  0  0  0  0  0  0  0  0  0  0  0
   -0.1997    1.1266    0.9883 C   0  0  0  0  0  0  0  0  0  0  0  0
   -1.2124    1.7740    0.7418 O   0  0  0  0  0  0  0  0  0  0  0  0
    0.7332    1.6449    1.8678 N   0  0  0  0  0  0  0  0  0  0  0  0
    1.5312    1.0625    2.1050 H   0  0  0  0  0  0  0  0  0  0  0  0
    0.5998    2.9525    2.4979 C   0  0  0  0  0  0  0  0  0  0  0  0
   -0.3144    2.9971    3.0993 H   0  0  0  0  0  0  0  0  0  0  0  0
    1.4543    3.1456    3.1536 H   0  0  0  0  0  0  0  0  0  0  0  0
    0.5613    3.7408    1.7387 H   0  0  0  0  0  0  0  0  0  0  0  0
  1  2  1  0  0  0  0
  2  3  1  0  0  0  0
  2  4  1  0  0  0  0
  2  5  1  0  0  0  0
  5  6  2  0  0  0  0
  5  7  1  0  0  0  0
  7  8  1  0  0  0  0
  7  9  1  0  0  0  0
  9 10  1  0  0  0  0
  9 11  1  0  0  0  0
  9 24  1  0  0  0  0
 11 12  1  0  0  0  0
 11 13  1  0  0  0  0
 11 17  1  0  0  0  0
 13 14  1  0  0  0  0
 13 15  1  0  0  0  0
 13 16  1  0  0  0  0
 17 18  1  0  0  0  0
 17 19  1  0  0  0  0
 17 20  1  0  0  0  0
 20 21  1  0  0  0  0
 20 22  1  0  0  0  0
 20 23  1  0  0  0  0
 24 25  2  0  0  0  0
 24 26  1  0  0  0  0
 26 27  1  0  0  0  0
 26 28  1  0  0  0  0
 28 29  1  0  0  0  0
 28 30  1  0  0  0  0
 28 31  1  0  0  0  0
M  END
$$$$

  -OEChem-03222214053D

 31 30  0     1  0  0  0  0  0999 V2000
   -2.9317   -3.8422    1.4857 H   0  0  0  0  0  0  0  0  0  0  0  0
   -2.9540   -2.8211    1.0949 C   0  0  0  0  0  0  0  0  0  0  0  0
   -3.5358   -2.1957    1.7763 H   0  0  0  0  0  0  0  0  0  0  0  0
   -3.4377   -2.8290    0.1152 H   0  0  0  0  0  0  0  0  0  0  0  0
   -1.5433   -2.2775    0.9705 C   0  0  0  0  0  0  0  0  0  0  0  0
   -0.5919   -2.9710    1.2941 O   0  0  0  0  0  0  0  0  0  0  0  0
   -1.3454   -0.9932    0.5101 N   0  0  0  0  0  0  0  0  0  0  0  0
   -2.1712   -0.4161    0.3562 H   0  0  0  0  0  0  0  0  0  0  0  0
   -0.0423   -0.3145    0.4391 C   0  0  1  0  0  0  0  0  0  0  0  0
    0.6650   -0.8102    1.1116 H   0  0  0  0  0  0  0  0  0  0  0  0
    0.5004   -0.3951   -1.0234 C   0  0  1  0  0  0  0  0  0  0  0  0
   -0.3140   -0.7711   -1.6528 H   0  0  0  0  0  0  0  0  0  0  0  0
    0.9077    0.9582   -1.6412 C   0  0  0  0  0  0  0  0  0  0  0  0
    1.6595    1.4687   -1.0316 H   0  0  0  0  0  0  0  0  0  0  0  0
    1.3191    0.8056   -2.6439 H   0  0  0  0  0  0  0  0  0  0  0  0
    0.0352    1.6124   -1.7356 H   0  0  0  0  0  0  0  0  0  0  0  0
    1.6384   -1.4441   -1.1099 C   0  0  0  0  0  0  0  0  0  0  0  0
    1.4386   -2.2696   -0.4188 H   0  0  0  0  0  0  0  0  0  0  0  0
    1.6321   -1.8715   -2.1180 H   0  0  0  0  0  0  0  0  0  0  0  0
    3.0461   -0.8948   -0.8494 C   0  0  0  0  0  0  0  0  0  0  0  0
    3.0858   -0.3850    0.1178 H   0  0  0  0  0  0  0  0  0  0  0  0
    3.7671   -1.7178   -0.8354 H   0  0  0  0  0  0  0  0  0  0  0  0
    3.3493   -0.1943   -1.6331 H   0  0  0  0  0  0  0  0  0  0  0  0
   -0.1984    1.1216    0.9870 C   0  0  0  0  0  0  0  0  0  0  0  0
   -1.2090    1.7701    0.7357 O   0  0  0  0  0  0  0  0  0  0  0  0
    0.7355    1.6423    1.8640 N   0  0  0  0  0  0  0  0  0  0  0  0
    1.5302    1.0580    2.1069 H   0  0  0  0  0  0  0  0  0  0  0  0
    0.6030    2.9517    2.4908 C   0  0  0  0  0  0  0  0  0  0  0  0
   -0.3053    2.9947    3.1010 H   0  0  0  0  0  0  0  0  0  0  0  0
    1.4630    3.1508    3.1372 H   0  0  0  0  0  0  0  0  0  0  0  0
    0.5539    3.7373    1.7295 H   0  0  0  0  0  0  0  0  0  0  0  0
  1  2  1  0  0  0  0
  2  3  1  0  0  0  0
  2  4  1  0  0  0  0
  2  5  1  0  0  0  0
  5  6  2  0  0  0  0
  5  7  1  0  0  0  0
  7  8  1  0  0  0  0
  7  9  1  0  0  0  0
  9 10  1  0  0  0  0
  9 11  1  0  0  0  0
  9 24  1  0  0  0  0
 11 12  1  0  0  0  0
 11 13  1  0  0  0  0
 11 17  1  0  0  0  0
 13 14  1  0  0  0  0
 13 15  1  0  0  0  0
 13 16  1  0  0  0  0
 17 18  1  0  0  0  0
 17 19  1  0  0  0  0
 17 20  1  0  0  0  0
 20 21  1  0  0  0  0
 20 22  1  0  0  0  0
 20 23  1  0  0  0  0
 24 25  2  0  0  0  0
 24 26  1  0  0  0  0
 26 27  1  0  0  0  0
 26 28  1  0  0  0  0
 28 29  1  0  0  0  0
 28 30  1  0  0  0  0
 28 31  1  0  0  0  0
M  END
$$$$

  -OEChem-03222214053D

 31 30  0     1  0  0  0  0  0999 V2000
   -2.9297   -3.8502    1.4881 H   0  0  0  0  0  0  0  0  0  0  0  0
   -2.9549   -2.8299    1.0952 C   0  0  0  0  0  0  0  0  0  0  0  0
   -3.5430   -2.2061    1.7727 H   0  0  0  0  0  0  0  0  0  0  0  0
   -3.4342   -2.8420    0.1134 H   0  0  0  0  0  0  0  0  0  0  0  0
   -1.5459   -2.2804    0.9761 C   0  0  0  0  0  0  0  0  0  0  0  0
   -0.5932   -2.9693    1.3058 O   0  0  0  0  0  0  0  0  0  0  0  0
   -1.3505   -0.9961    0.5138 N   0  0  0  0  0  0  0  0  0  0  0  0
   -2.1773   -0.4230    0.3510 H   0  0  0  0  0  0  0  0  0  0  0  0
   -0.0490   -0.3140    0.4441 C   0  0  1  0  0  0  0  0  0  0  0  0
    0.6532   -0.8129    1.1184 H   0  0  0  0  0  0  0  0  0  0  0  0
    0.4929   -0.4011   -1.0181 C   0  0  1  0  0  0  0  0  0  0  0  0
   -0.3209   -0.7640   -1.6558 H   0  0  0  0  0  0  0  0  0  0  0  0
    0.9346    0.9466   -1.6227 C   0  0  0  0  0  0  0  0  0  0  0  0
    1.6807    1.4440   -0.9958 H   0  0  0  0  0  0  0  0  0  0  0  0
    1.3673    0.7905   -2.6158 H   0  0  0  0  0  0  0  0  0  0  0  0
    0.0746    1.6147   -1.7341 H   0  0  0  0  0  0  0  0  0  0  0  0
    1.6321   -1.4432   -1.1129 C   0  0  0  0  0  0  0  0  0  0  0  0
    1.3166   -2.3631   -0.6094 H   0  0  0  0  0  0  0  0  0  0  0  0
    1.7908   -1.6942   -2.1668 H   0  0  0  0  0  0  0  0  0  0  0  0
    2.9735   -0.9871   -0.5220 C   0  0  0  0  0  0  0  0  0  0  0  0
    2.8577   -0.6662    0.5169 H   0  0  0  0  0  0  0  0  0  0  0  0
    3.6870   -1.8164   -0.5469 H   0  0  0  0  0  0  0  0  0  0  0  0
    3.3964   -0.1610   -1.1008 H   0  0  0  0  0  0  0  0  0  0  0  0
   -0.2059    1.1230    0.9884 C   0  0  0  0  0  0  0  0  0  0  0  0
   -1.2131    1.7735    0.7291 O   0  0  0  0  0  0  0  0  0  0  0  0
    0.7276    1.6446    1.8651 N   0  0  0  0  0  0  0  0  0  0  0  0
    1.5202    1.0591    2.1118 H   0  0  0  0  0  0  0  0  0  0  0  0
    0.6005    2.9592    2.4818 C   0  0  0  0  0  0  0  0  0  0  0  0
   -0.3132    3.0141    3.0829 H   0  0  0  0  0  0  0  0  0  0  0  0
    1.4563    3.1543    3.1350 H   0  0  0  0  0  0  0  0  0  0  0  0
    0.5657    3.7402    1.7150 H   0  0  0  0  0  0  0  0  0  0  0  0
  1  2  1  0  0  0  0
  2  3  1  0  0  0  0
  2  4  1  0  0  0  0
  2  5  1  0  0  0  0
  5  6  2  0  0  0  0
  5  7  1  0  0  0  0
  7  8  1  0  0  0  0
  7  9  1  0  0  0  0
  9 10  1  0  0  0  0
  9 11  1  0  0  0  0
  9 24  1  0  0  0  0
 11 12  1  0  0  0  0
 11 13  1  0  0  0  0
 11 17  1  0  0  0  0
 13 14  1  0  0  0  0
 13 15  1  0  0  0  0
 13 16  1  0  0  0  0
 17 18  1  0  0  0  0
 17 19  1  0  0  0  0
 17 20  1  0  0  0  0
 20 21  1  0  0  0  0
 20 22  1  0  0  0  0
 20 23  1  0  0  0  0
 24 25  2  0  0  0  0
 24 26  1  0  0  0  0
 26 27  1  0  0  0  0
 26 28  1  0  0  0  0
 28 29  1  0  0  0  0
 28 30  1  0  0  0  0
 28 31  1  0  0  0  0
M  END
$$$$

  -OEChem-03222214053D

 31 30  0     1  0  0  0  0  0999 V2000
   -2.9422   -3.8398    1.5029 H   0  0  0  0  0  0  0  0  0  0  0  0
   -2.9661   -2.8227    1.1015 C   0  0  0  0  0  0  0  0  0  0  0  0
   -3.5580   -2.1937    1.7709 H   0  0  0  0  0  0  0  0  0  0  0  0
   -3.4404   -2.8433    0.1173 H   0  0  0  0  0  0  0  0  0  0  0  0
   -1.5569   -2.2730    0.9854 C   0  0  0  0  0  0  0  0  0  0  0  0
   -0.6046   -2.9611    1.3183 O   0  0  0  0  0  0  0  0  0  0  0  0
   -1.3603   -0.9912    0.5162 N   0  0  0  0  0  0  0  0  0  0  0  0
   -2.1869   -0.4195    0.3480 H   0  0  0  0  0  0  0  0  0  0  0  0
   -0.0595   -0.3068    0.4575 C   0  0  1  0  0  0  0  0  0  0  0  0
    0.6221   -0.8005    1.1518 H   0  0  0  0  0  0  0  0  0  0  0  0
    0.4952   -0.4175   -1.0002 C   0  0  1  0  0  0  0  0  0  0  0  0
   -0.3164   -0.7677   -1.6477 H   0  0  0  0  0  0  0  0  0  0  0  0
    0.9633    0.9266   -1.5941 C   0  0  0  0  0  0  0  0  0  0  0  0
    1.7214    1.4012   -0.9644 H   0  0  0  0  0  0  0  0  0  0  0  0
    1.3910    0.7740   -2.5898 H   0  0  0  0  0  0  0  0  0  0  0  0
    0.1177    1.6137   -1.6986 H   0  0  0  0  0  0  0  0  0  0  0  0
    1.6422   -1.4516   -1.1188 C   0  0  0  0  0  0  0  0  0  0  0  0
    1.2477   -2.4354   -0.8428 H   0  0  0  0  0  0  0  0  0  0  0  0
    1.9524   -1.5144   -2.1670 H   0  0  0  0  0  0  0  0  0  0  0  0
    2.8871   -1.1784   -0.2593 C   0  0  0  0  0  0  0  0  0  0  0  0
    2.6645   -1.2290    0.8088 H   0  0  0  0  0  0  0  0  0  0  0  0
    3.6496   -1.9330   -0.4749 H   0  0  0  0  0  0  0  0  0  0  0  0
    3.3106   -0.1960   -0.4848 H   0  0  0  0  0  0  0  0  0  0  0  0
   -0.2209    1.1347    0.9888 C   0  0  0  0  0  0  0  0  0  0  0  0
   -1.2259    1.7826    0.7148 O   0  0  0  0  0  0  0  0  0  0  0  0
    0.7029    1.6632    1.8716 N   0  0  0  0  0  0  0  0  0  0  0  0
    1.4984    1.0839    2.1237 H   0  0  0  0  0  0  0  0  0  0  0  0
    0.5710    2.9842    2.4736 C   0  0  0  0  0  0  0  0  0  0  0  0
   -0.3593    3.0531    3.0474 H   0  0  0  0  0  0  0  0  0  0  0  0
    1.4089    3.1774    3.1506 H   0  0  0  0  0  0  0  0  0  0  0  0
    0.5662    3.7587    1.6994 H   0  0  0  0  0  0  0  0  0  0  0  0
  1  2  1  0  0  0  0
  2  3  1  0  0  0  0
  2  4  1  0  0  0  0
  2  5  1  0  0  0  0
  5  6  2  0  0  0  0
  5  7  1  0  0  0  0
  7  8  1  0  0  0  0
  7  9  1  0  0  0  0
  9 10  1  0  0  0  0
  9 11  1  0  0  0  0
  9 24  1  0  0  0  0
 11 12  1  0  0  0  0
 11 13  1  0  0  0  0
 11 17  1  0  0  0  0
 13 14  1  0  0  0  0
 13 15  1  0  0  0  0
 13 16  1  0  0  0  0
 17 18  1  0  0  0  0
 17 19  1  0  0  0  0
 17 20  1  0  0  0  0
 20 21  1  0  0  0  0
 20 22  1  0  0  0  0
 20 23  1  0  0  0  0
 24 25  2  0  0  0  0
 24 26  1  0  0  0  0
 26 27  1  0  0  0  0
 26 28  1  0  0  0  0
 28 29  1  0  0  0  0
 28 30  1  0  0  0  0
 28 31  1  0  0  0  0
M  END
$$$$

  -OEChem-03222214053D

 31 30  0     1  0  0  0  0  0999 V2000
   -2.9559   -3.8181    1.5263 H   0  0  0  0  0  0  0  0  0  0  0  0
   -2.9771   -2.8038    1.1184 C   0  0  0  0  0  0  0  0  0  0  0  0
   -3.5679   -2.1690    1.7831 H   0  0  0  0  0  0  0  0  0  0  0  0
   -3.4506   -2.8295    0.1341 H   0  0  0  0  0  0  0  0  0  0  0  0
   -1.5666   -2.2581    0.9994 C   0  0  0  0  0  0  0  0  0  0  0  0
   -0.6160   -2.9443    1.3415 O   0  0  0  0  0  0  0  0  0  0  0  0
   -1.3660   -0.9820    0.5170 N   0  0  0  0  0  0  0  0  0  0  0  0
   -2.1901   -0.4079    0.3440 H   0  0  0  0  0  0  0  0  0  0  0  0
   -0.0631   -0.3023    0.4647 C   0  0  1  0  0  0  0  0  0  0  0  0
    0.6074   -0.7790    1.1787 H   0  0  0  0  0  0  0  0  0  0  0  0
    0.4997   -0.4338   -0.9913 C   0  0  1  0  0  0  0  0  0  0  0  0
   -0.3140   -0.7591   -1.6492 H   0  0  0  0  0  0  0  0  0  0  0  0
    1.0050    0.9066   -1.5654 C   0  0  0  0  0  0  0  0  0  0  0  0
    1.7971    1.3305   -0.9407 H   0  0  0  0  0  0  0  0  0  0  0  0
    1.4032    0.7662   -2.5751 H   0  0  0  0  0  0  0  0  0  0  0  0
    0.1866    1.6298   -1.6368 H   0  0  0  0  0  0  0  0  0  0  0  0
    1.6478   -1.4700   -1.1311 C   0  0  0  0  0  0  0  0  0  0  0  0
    1.2048   -2.4713   -1.1079 H   0  0  0  0  0  0  0  0  0  0  0  0
    2.1161   -1.3553   -2.1141 H   0  0  0  0  0  0  0  0  0  0  0  0
    2.7462   -1.4282   -0.0589 C   0  0  0  0  0  0  0  0  0  0  0  0
    2.3978   -1.8529    0.8866 H   0  0  0  0  0  0  0  0  0  0  0  0
    3.6024   -2.0238   -0.3897 H   0  0  0  0  0  0  0  0  0  0  0  0
    3.0869   -0.4029    0.1115 H   0  0  0  0  0  0  0  0  0  0  0  0
   -0.2340    1.1446    0.9792 C   0  0  0  0  0  0  0  0  0  0  0  0
   -1.2393    1.7866    0.6923 O   0  0  0  0  0  0  0  0  0  0  0  0
    0.6791    1.6818    1.8679 N   0  0  0  0  0  0  0  0  0  0  0  0
    1.4698    1.1036    2.1374 H   0  0  0  0  0  0  0  0  0  0  0  0
    0.5336    3.0032    2.4653 C   0  0  0  0  0  0  0  0  0  0  0  0
   -0.3985    3.0655    3.0370 H   0  0  0  0  0  0  0  0  0  0  0  0
    1.3683    3.2054    3.1433 H   0  0  0  0  0  0  0  0  0  0  0  0
    0.5237    3.7751    1.6887 H   0  0  0  0  0  0  0  0  0  0  0  0
  1  2  1  0  0  0  0
  2  3  1  0  0  0  0
  2  4  1  0  0  0  0
  2  5  1  0  0  0  0
  5  6  2  0  0  0  0
  5  7  1  0  0  0  0
  7  8  1  0  0  0  0
  7  9  1  0  0  0  0
  9 10  1  0  0  0  0
  9 11  1  0  0  0  0
  9 24  1  0  0  0  0
 11 12  1  0  0  0  0
 11 13  1  0  0  0  0
 11 17  1  0  0  0  0
 13 14  1  0  0  0  0
 13 15  1  0  0  0  0
 13 16  1  0  0  0  0
 17 18  1  0  0  0  0
 17 19  1  0  0  0  0
 17 20  1  0  0  0  0
 20 21  1  0  0  0  0
 20 22  1  0  0  0  0
 20 23  1  0  0  0  0
 24 25  2  0  0  0  0
 24 26  1  0  0  0  0
 26 27  1  0  0  0  0
 26 28  1  0  0  0  0
 28 29  1  0  0  0  0
 28 30  1  0  0  0  0
 28 31  1  0  0  0  0
M  END
$$$$

  -OEChem-03222214053D

 31 30  0     1  0  0  0  0  0999 V2000
   -2.9818   -3.7999    1.5384 H   0  0  0  0  0  0  0  0  0  0  0  0
   -2.9937   -2.7887    1.1226 C   0  0  0  0  0  0  0  0  0  0  0  0
   -3.5896   -2.1465    1.7757 H   0  0  0  0  0  0  0  0  0  0  0  0
   -3.4555   -2.8204    0.1329 H   0  0  0  0  0  0  0  0  0  0  0  0
   -1.5795   -2.2502    1.0163 C   0  0  0  0  0  0  0  0  0  0  0  0
   -0.6365   -2.9379    1.3753 O   0  0  0  0  0  0  0  0  0  0  0  0
   -1.3691   -0.9786    0.5268 N   0  0  0  0  0  0  0  0  0  0  0  0
   -2.1902   -0.4042    0.3408 H   0  0  0  0  0  0  0  0  0  0  0  0
   -0.0647   -0.3011    0.4793 C   0  0  1  0  0  0  0  0  0  0  0  0
    0.5971   -0.7649    1.2087 H   0  0  0  0  0  0  0  0  0  0  0  0
    0.5061   -0.4452   -0.9767 C   0  0  1  0  0  0  0  0  0  0  0  0
   -0.3100   -0.7593   -1.6371 H   0  0  0  0  0  0  0  0  0  0  0  0
    1.0192    0.8963   -1.5433 C   0  0  0  0  0  0  0  0  0  0  0  0
    1.8308    1.2955   -0.9265 H   0  0  0  0  0  0  0  0  0  0  0  0
    1.3943    0.7656   -2.5632 H   0  0  0  0  0  0  0  0  0  0  0  0
    0.2125    1.6343   -1.5920 H   0  0  0  0  0  0  0  0  0  0  0  0
    1.6593   -1.4805   -1.1430 C   0  0  0  0  0  0  0  0  0  0  0  0
    1.2019   -2.4468   -1.3800 H   0  0  0  0  0  0  0  0  0  0  0  0
    2.2790   -1.2107   -2.0043 H   0  0  0  0  0  0  0  0  0  0  0  0
    2.5818   -1.7102    0.0600 C   0  0  0  0  0  0  0  0  0  0  0  0
    2.0701   -2.2688    0.8493 H   0  0  0  0  0  0  0  0  0  0  0  0
    3.4507   -2.2986   -0.2498 H   0  0  0  0  0  0  0  0  0  0  0  0
    2.9376   -0.7564    0.4613 H   0  0  0  0  0  0  0  0  0  0  0  0
   -0.2434    1.1493    0.9827 C   0  0  0  0  0  0  0  0  0  0  0  0
   -1.2493    1.7861    0.6862 O   0  0  0  0  0  0  0  0  0  0  0  0
    0.6608    1.6945    1.8759 N   0  0  0  0  0  0  0  0  0  0  0  0
    1.4521    1.1210    2.1534 H   0  0  0  0  0  0  0  0  0  0  0  0
    0.5077    3.0195    2.4635 C   0  0  0  0  0  0  0  0  0  0  0  0
   -0.4319    3.0850    3.0222 H   0  0  0  0  0  0  0  0  0  0  0  0
    1.3334    3.2260    3.1513 H   0  0  0  0  0  0  0  0  0  0  0  0
    0.5085    3.7867    1.6820 H   0  0  0  0  0  0  0  0  0  0  0  0
  1  2  1  0  0  0  0
  2  3  1  0  0  0  0
  2  4  1  0  0  0  0
  2  5  1  0  0  0  0
  5  6  2  0  0  0  0
  5  7  1  0  0  0  0
  7  8  1  0  0  0  0
  7  9  1  0  0  0  0
  9 10  1  0  0  0  0
  9 11  1  0  0  0  0
  9 24  1  0  0  0  0
 11 12  1  0  0  0  0
 11 13  1  0  0  0  0
 11 17  1  0  0  0  0
 13 14  1  0  0  0  0
 13 15  1  0  0  0  0
 13 16  1  0  0  0  0
 17 18  1  0  0  0  0
 17 19  1  0  0  0  0
 17 20  1  0  0  0  0
 20 21  1  0  0  0  0
 20 22  1  0  0  0  0
 20 23  1  0  0  0  0
 24 25  2  0  0  0  0
 24 26  1  0  0  0  0
 26 27  1  0  0  0  0
 26 28  1  0  0  0  0
 28 29  1  0  0  0  0
 28 30  1  0  0  0  0
 28 31  1  0  0  0  0
M  END
$$$$

  -OEChem-03222214053D

 31 30  0     1  0  0  0  0  0999 V2000
   -3.0409   -3.7784    1.5317 H   0  0  0  0  0  0  0  0  0  0  0  0
   -3.0257   -2.7701    1.1083 C   0  0  0  0  0  0  0  0  0  0  0  0
   -3.6421   -2.1171    1.7310 H   0  0  0  0  0  0  0  0  0  0  0  0
   -3.4462   -2.8045    0.1005 H   0  0  0  0  0  0  0  0  0  0  0  0
   -1.6031   -2.2455    1.0578 C   0  0  0  0  0  0  0  0  0  0  0  0
   -0.6889   -2.9294    1.4874 O   0  0  0  0  0  0  0  0  0  0  0  0
   -1.3619   -0.9835    0.5585 N   0  0  0  0  0  0  0  0  0  0  0  0
   -2.1729   -0.4142    0.3207 H   0  0  0  0  0  0  0  0  0  0  0  0
   -0.0535   -0.3105    0.5077 C   0  0  1  0  0  0  0  0  0  0  0  0
    0.6104   -0.7682    1.2404 H   0  0  0  0  0  0  0  0  0  0  0  0
    0.5211   -0.4534   -0.9507 C   0  0  1  0  0  0  0  0  0  0  0  0
   -0.3018   -0.7742   -1.5993 H   0  0  0  0  0  0  0  0  0  0  0  0
    1.0053    0.8918   -1.5348 C   0  0  0  0  0  0  0  0  0  0  0  0
    1.8201    1.3069   -0.9329 H   0  0  0  0  0  0  0  0  0  0  0  0
    1.3666    0.7575   -2.5594 H   0  0  0  0  0  0  0  0  0  0  0  0
    0.1880    1.6181   -1.5785 H   0  0  0  0  0  0  0  0  0  0  0  0
    1.6784   -1.4849   -1.1519 C   0  0  0  0  0  0  0  0  0  0  0  0
    1.2522   -2.3561   -1.6604 H   0  0  0  0  0  0  0  0  0  0  0  0
    2.4358   -1.0730   -1.8268 H   0  0  0  0  0  0  0  0  0  0  0  0
    2.4063   -2.0112    0.0893 C   0  0  0  0  0  0  0  0  0  0  0  0
    1.7397   -2.6073    0.7163 H   0  0  0  0  0  0  0  0  0  0  0  0
    3.2370   -2.6545   -0.2162 H   0  0  0  0  0  0  0  0  0  0  0  0
    2.8135   -1.1834    0.6777 H   0  0  0  0  0  0  0  0  0  0  0  0
   -0.2402    1.1450    0.9947 C   0  0  0  0  0  0  0  0  0  0  0  0
   -1.2448    1.7767    0.6819 O   0  0  0  0  0  0  0  0  0  0  0  0
    0.6557    1.7045    1.8874 N   0  0  0  0  0  0  0  0  0  0  0  0
    1.4430    1.1349    2.1839 H   0  0  0  0  0  0  0  0  0  0  0  0
    0.4898    3.0343    2.4608 C   0  0  0  0  0  0  0  0  0  0  0  0
   -0.4508    3.0968    3.0181 H   0  0  0  0  0  0  0  0  0  0  0  0
    1.3130    3.2563    3.1466 H   0  0  0  0  0  0  0  0  0  0  0  0
    0.4831    3.7932    1.6714 H   0  0  0  0  0  0  0  0  0  0  0  0
  1  2  1  0  0  0  0
  2  3  1  0  0  0  0
  2  4  1  0  0  0  0
  2  5  1  0  0  0  0
  5  6  2  0  0  0  0
  5  7  1  0  0  0  0
  7  8  1  0  0  0  0
  7  9  1  0  0  0  0
  9 10  1  0  0  0  0
  9 11  1  0  0  0  0
  9 24  1  0  0  0  0
 11 12  1  0  0  0  0
 11 13  1  0  0  0  0
 11 17  1  0  0  0  0
 13 14  1  0  0  0  0
 13 15  1  0  0  0  0
 13 16  1  0  0  0  0
 17 18  1  0  0  0  0
 17 19  1  0  0  0  0
 17 20  1  0  0  0  0
 20 21  1  0  0  0  0
 20 22  1  0  0  0  0
 20 23  1  0  0  0  0
 24 25  2  0  0  0  0
 24 26  1  0  0  0  0
 26 27  1  0  0  0  0
 26 28  1  0  0  0  0
 28 29  1  0  0  0  0
 28 30  1  0  0  0  0
 28 31  1  0  0  0  0
M  END
$$$$

  -OEChem-03222214053D

 31 30  0     1  0  0  0  0  0999 V2000
   -3.0854   -3.7685    1.5214 H   0  0  0  0  0  0  0  0  0  0  0  0
   -3.0488   -2.7657    1.0867 C   0  0  0  0  0  0  0  0  0  0  0  0
   -3.7061   -2.1083    1.6611 H   0  0  0  0  0  0  0  0  0  0  0  0
   -3.4053   -2.8165    0.0550 H   0  0  0  0  0  0  0  0  0  0  0  0
   -1.6285   -2.2337    1.1188 C   0  0  0  0  0  0  0  0  0  0  0  0
   -0.7519   -2.8859    1.6598 O   0  0  0  0  0  0  0  0  0  0  0  0
   -1.3600   -0.9846    0.6017 N   0  0  0  0  0  0  0  0  0  0  0  0
   -2.1573   -0.4319    0.2901 H   0  0  0  0  0  0  0  0  0  0  0  0
   -0.0447   -0.3234    0.5392 C   0  0  1  0  0  0  0  0  0  0  0  0
    0.6265   -0.7812    1.2664 H   0  0  0  0  0  0  0  0  0  0  0  0
    0.5296   -0.4554   -0.9228 C   0  0  1  0  0  0  0  0  0  0  0  0
   -0.3032   -0.7866   -1.5531 H   0  0  0  0  0  0  0  0  0  0  0  0
    0.9897    0.8885   -1.5298 C   0  0  0  0  0  0  0  0  0  0  0  0
    1.7936    1.3315   -0.9330 H   0  0  0  0  0  0  0  0  0  0  0  0
    1.3592    0.7401   -2.5496 H   0  0  0  0  0  0  0  0  0  0  0  0
    0.1587    1.5979   -1.5905 H   0  0  0  0  0  0  0  0  0  0  0  0
    1.6823   -1.4854   -1.1589 C   0  0  0  0  0  0  0  0  0  0  0  0
    1.3418   -2.1916   -1.9232 H   0  0  0  0  0  0  0  0  0  0  0  0
    2.5547   -0.9718   -1.5762 H   0  0  0  0  0  0  0  0  0  0  0  0
    2.1922   -2.3062    0.0274 C   0  0  0  0  0  0  0  0  0  0  0  0
    1.4016   -2.9383    0.4329 H   0  0  0  0  0  0  0  0  0  0  0  0
    3.0042   -2.9611   -0.3027 H   0  0  0  0  0  0  0  0  0  0  0  0
    2.5835   -1.6572    0.8162 H   0  0  0  0  0  0  0  0  0  0  0  0
   -0.2315    1.1393    1.0055 C   0  0  0  0  0  0  0  0  0  0  0  0
   -1.2296    1.7722    0.6743 O   0  0  0  0  0  0  0  0  0  0  0  0
    0.6635    1.7102    1.8918 N   0  0  0  0  0  0  0  0  0  0  0  0
    1.4413    1.1384    2.2080 H   0  0  0  0  0  0  0  0  0  0  0  0
    0.4968    3.0467    2.4492 C   0  0  0  0  0  0  0  0  0  0  0  0
   -0.4447    3.1160    3.0045 H   0  0  0  0  0  0  0  0  0  0  0  0
    1.3191    3.2763    3.1337 H   0  0  0  0  0  0  0  0  0  0  0  0
    0.4921    3.7966    1.6511 H   0  0  0  0  0  0  0  0  0  0  0  0
  1  2  1  0  0  0  0
  2  3  1  0  0  0  0
  2  4  1  0  0  0  0
  2  5  1  0  0  0  0
  5  6  2  0  0  0  0
  5  7  1  0  0  0  0
  7  8  1  0  0  0  0
  7  9  1  0  0  0  0
  9 10  1  0  0  0  0
  9 11  1  0  0  0  0
  9 24  1  0  0  0  0
 11 12  1  0  0  0  0
 11 13  1  0  0  0  0
 11 17  1  0  0  0  0
 13 14  1  0  0  0  0
 13 15  1  0  0  0  0
 13 16  1  0  0  0  0
 17 18  1  0  0  0  0
 17 19  1  0  0  0  0
 17 20  1  0  0  0  0
 20 21  1  0  0  0  0
 20 22  1  0  0  0  0
 20 23  1  0  0  0  0
 24 25  2  0  0  0  0
 24 26  1  0  0  0  0
 26 27  1  0  0  0  0
 26 28  1  0  0  0  0
 28 29  1  0  0  0  0
 28 30  1  0  0  0  0
 28 31  1  0  0  0  0
M  END
$$$$

  -OEChem-03222214053D

 31 30  0     1  0  0  0  0  0999 V2000
   -3.0937   -3.7654    1.5380 H   0  0  0  0  0  0  0  0  0  0  0  0
   -3.0530   -2.7667    1.0943 C   0  0  0  0  0  0  0  0  0  0  0  0
   -3.7215   -2.1056    1.6512 H   0  0  0  0  0  0  0  0  0  0  0  0
   -3.3927   -2.8285    0.0577 H   0  0  0  0  0  0  0  0  0  0  0  0
   -1.6352   -2.2291    1.1438 C   0  0  0  0  0  0  0  0  0  0  0  0
   -0.7663   -2.8647    1.7176 O   0  0  0  0  0  0  0  0  0  0  0  0
   -1.3630   -0.9848    0.6168 N   0  0  0  0  0  0  0  0  0  0  0  0
   -2.1550   -0.4398    0.2796 H   0  0  0  0  0  0  0  0  0  0  0  0
   -0.0428   -0.3349    0.5465 C   0  0  1  0  0  0  0  0  0  0  0  0
    0.6356   -0.7924    1.2672 H   0  0  0  0  0  0  0  0  0  0  0  0
    0.5314   -0.4524   -0.9159 C   0  0  1  0  0  0  0  0  0  0  0  0
   -0.3060   -0.7858   -1.5388 H   0  0  0  0  0  0  0  0  0  0  0  0
    0.9933    0.8868   -1.5295 C   0  0  0  0  0  0  0  0  0  0  0  0
    1.7854    1.3416   -0.9259 H   0  0  0  0  0  0  0  0  0  0  0  0
    1.3807    0.7274   -2.5410 H   0  0  0  0  0  0  0  0  0  0  0  0
    0.1588    1.5904   -1.6092 H   0  0  0  0  0  0  0  0  0  0  0  0
    1.6746   -1.4846   -1.1645 C   0  0  0  0  0  0  0  0  0  0  0  0
    1.4732   -1.9874   -2.1161 H   0  0  0  0  0  0  0  0  0  0  0  0
    2.6196   -0.9441   -1.2855 H   0  0  0  0  0  0  0  0  0  0  0  0
    1.9382   -2.5576   -0.1066 C   0  0  0  0  0  0  0  0  0  0  0  0
    1.0519   -3.1791    0.0327 H   0  0  0  0  0  0  0  0  0  0  0  0
    2.7514   -3.2085   -0.4414 H   0  0  0  0  0  0  0  0  0  0  0  0
    2.2371   -2.1210    0.8497 H   0  0  0  0  0  0  0  0  0  0  0  0
   -0.2246    1.1310    1.0063 C   0  0  0  0  0  0  0  0  0  0  0  0
   -1.2164    1.7696    0.6668 O   0  0  0  0  0  0  0  0  0  0  0  0
    0.6736    1.7033    1.8886 N   0  0  0  0  0  0  0  0  0  0  0  0
    1.4435    1.1267    2.2153 H   0  0  0  0  0  0  0  0  0  0  0  0
    0.5139    3.0448    2.4363 C   0  0  0  0  0  0  0  0  0  0  0  0
   -0.4251    3.1220    2.9945 H   0  0  0  0  0  0  0  0  0  0  0  0
    1.3396    3.2770    3.1158 H   0  0  0  0  0  0  0  0  0  0  0  0
    0.5086    3.7883    1.6325 H   0  0  0  0  0  0  0  0  0  0  0  0
  1  2  1  0  0  0  0
  2  3  1  0  0  0  0
  2  4  1  0  0  0  0
  2  5  1  0  0  0  0
  5  6  2  0  0  0  0
  5  7  1  0  0  0  0
  7  8  1  0  0  0  0
  7  9  1  0  0  0  0
  9 10  1  0  0  0  0
  9 11  1  0  0  0  0
  9 24  1  0  0  0  0
 11 12  1  0  0  0  0
 11 13  1  0  0  0  0
 11 17  1  0  0  0  0
 13 14  1  0  0  0  0
 13 15  1  0  0  0  0
 13 16  1  0  0  0  0
 17 18  1  0  0  0  0
 17 19  1  0  0  0  0
 17 20  1  0  0  0  0
 20 21  1  0  0  0  0
 20 22  1  0  0  0  0
 20 23  1  0  0  0  0
 24 25  2  0  0  0  0
 24 26  1  0  0  0  0
 26 27  1  0  0  0  0
 26 28  1  0  0  0  0
 28 29  1  0  0  0  0
 28 30  1  0  0  0  0
 28 31  1  0  0  0  0
M  END
$$$$

  -OEChem-03222214053D

 31 30  0     1  0  0  0  0  0999 V2000
   -3.0777   -3.7724    1.5560 H   0  0  0  0  0  0  0  0  0  0  0  0
   -3.0406   -2.7754    1.1080 C   0  0  0  0  0  0  0  0  0  0  0  0
   -3.7030   -2.1117    1.6689 H   0  0  0  0  0  0  0  0  0  0  0  0
   -3.3903   -2.8402    0.0749 H   0  0  0  0  0  0  0  0  0  0  0  0
   -1.6221   -2.2390    1.1415 C   0  0  0  0  0  0  0  0  0  0  0  0
   -0.7455   -2.8778    1.7001 O   0  0  0  0  0  0  0  0  0  0  0  0
   -1.3560   -0.9933    0.6149 N   0  0  0  0  0  0  0  0  0  0  0  0
   -2.1521   -0.4445    0.2938 H   0  0  0  0  0  0  0  0  0  0  0  0
   -0.0363   -0.3442    0.5328 C   0  0  1  0  0  0  0  0  0  0  0  0
    0.6580   -0.8037    1.2386 H   0  0  0  0  0  0  0  0  0  0  0  0
    0.5242   -0.4483   -0.9336 C   0  0  1  0  0  0  0  0  0  0  0  0
   -0.3155   -0.7696   -1.5596 H   0  0  0  0  0  0  0  0  0  0  0  0
    1.0129    0.8877   -1.5315 C   0  0  0  0  0  0  0  0  0  0  0  0
    1.8065    1.3247   -0.9173 H   0  0  0  0  0  0  0  0  0  0  0  0
    1.4079    0.7302   -2.5402 H   0  0  0  0  0  0  0  0  0  0  0  0
    0.1902    1.6050   -1.6116 H   0  0  0  0  0  0  0  0  0  0  0  0
    1.6601   -1.4829   -1.1735 C   0  0  0  0  0  0  0  0  0  0  0  0
    1.6192   -1.7969   -2.2219 H   0  0  0  0  0  0  0  0  0  0  0  0
    2.6246   -0.9869   -1.0222 H   0  0  0  0  0  0  0  0  0  0  0  0
    1.6747   -2.7367   -0.2975 C   0  0  0  0  0  0  0  0  0  0  0  0
    0.7284   -3.2752   -0.3939 H   0  0  0  0  0  0  0  0  0  0  0  0
    2.4772   -3.4039   -0.6260 H   0  0  0  0  0  0  0  0  0  0  0  0
    1.8532   -2.4989    0.7539 H   0  0  0  0  0  0  0  0  0  0  0  0
   -0.2183    1.1192    0.9998 C   0  0  0  0  0  0  0  0  0  0  0  0
   -1.2130    1.7576    0.6681 O   0  0  0  0  0  0  0  0  0  0  0  0
    0.6862    1.6908    1.8759 N   0  0  0  0  0  0  0  0  0  0  0  0
    1.4566    1.1127    2.1990 H   0  0  0  0  0  0  0  0  0  0  0  0
    0.5260    3.0292    2.4308 C   0  0  0  0  0  0  0  0  0  0  0  0
   -0.4051    3.0976    3.0033 H   0  0  0  0  0  0  0  0  0  0  0  0
    1.3607    3.2644    3.0981 H   0  0  0  0  0  0  0  0  0  0  0  0
    0.5030    3.7759    1.6301 H   0  0  0  0  0  0  0  0  0  0  0  0
  1  2  1  0  0  0  0
  2  3  1  0  0  0  0
  2  4  1  0  0  0  0
  2  5  1  0  0  0  0
  5  6  2  0  0  0  0
  5  7  1  0  0  0  0
  7  8  1  0  0  0  0
  7  9  1  0  0  0  0
  9 10  1  0  0  0  0
  9 11  1  0  0  0  0
  9 24  1  0  0  0  0
 11 12  1  0  0  0  0
 11 13  1  0  0  0  0
 11 17  1  0  0  0  0
 13 14  1  0  0  0  0
 13 15  1  0  0  0  0
 13 16  1  0  0  0  0
 17 18  1  0  0  0  0
 17 19  1  0  0  0  0
 17 20  1  0  0  0  0
 20 21  1  0  0  0  0
 20 22  1  0  0  0  0
 20 23  1  0  0  0  0
 24 25  2  0  0  0  0
 24 26  1  0  0  0  0
 26 27  1  0  0  0  0
 26 28  1  0  0  0  0
 28 29  1  0  0  0  0
 28 30  1  0  0  0  0
 28 31  1  0  0  0  0
M  END
$$$$

  -OEChem-03222214053D

 31 30  0     1  0  0  0  0  0999 V2000
   -3.0567   -3.8037    1.5273 H   0  0  0  0  0  0  0  0  0  0  0  0
   -3.0225   -2.8030    1.0877 C   0  0  0  0  0  0  0  0  0  0  0  0
   -3.6918   -2.1474    1.6500 H   0  0  0  0  0  0  0  0  0  0  0  0
   -3.3660   -2.8618    0.0522 H   0  0  0  0  0  0  0  0  0  0  0  0
   -1.6070   -2.2594    1.1340 C   0  0  0  0  0  0  0  0  0  0  0  0
   -0.7336   -2.8961    1.6990 O   0  0  0  0  0  0  0  0  0  0  0  0
   -1.3443   -1.0095    0.6153 N   0  0  0  0  0  0  0  0  0  0  0  0
   -2.1434   -0.4690    0.2881 H   0  0  0  0  0  0  0  0  0  0  0  0
   -0.0297   -0.3497    0.5205 C   0  0  1  0  0  0  0  0  0  0  0  0
    0.6817   -0.8211    1.2044 H   0  0  0  0  0  0  0  0  0  0  0  0
    0.5110   -0.4448   -0.9521 C   0  0  1  0  0  0  0  0  0  0  0  0
   -0.3281   -0.7590   -1.5823 H   0  0  0  0  0  0  0  0  0  0  0  0
    1.0173    0.8909   -1.5356 C   0  0  0  0  0  0  0  0  0  0  0  0
    1.8189    1.3095   -0.9186 H   0  0  0  0  0  0  0  0  0  0  0  0
    1.4074    0.7411   -2.5473 H   0  0  0  0  0  0  0  0  0  0  0  0
    0.2048    1.6209   -1.6049 H   0  0  0  0  0  0  0  0  0  0  0  0
    1.6475   -1.4754   -1.1716 C   0  0  0  0  0  0  0  0  0  0  0  0
    1.7716   -1.6236   -2.2495 H   0  0  0  0  0  0  0  0  0  0  0  0
    2.5867   -1.0633   -0.7878 H   0  0  0  0  0  0  0  0  0  0  0  0
    1.4456   -2.8454   -0.5276 C   0  0  0  0  0  0  0  0  0  0  0  0
    0.4576   -3.2449   -0.7754 H   0  0  0  0  0  0  0  0  0  0  0  0
    2.2011   -3.5443   -0.8989 H   0  0  0  0  0  0  0  0  0  0  0  0
    1.5529   -2.7873    0.5582 H   0  0  0  0  0  0  0  0  0  0  0  0
   -0.2106    1.1099    0.9994 C   0  0  0  0  0  0  0  0  0  0  0  0
   -1.2082    1.7488    0.6779 O   0  0  0  0  0  0  0  0  0  0  0  0
    0.7034    1.6803    1.8665 N   0  0  0  0  0  0  0  0  0  0  0  0
    1.4787    1.1027    2.1787 H   0  0  0  0  0  0  0  0  0  0  0  0
    0.5488    3.0173    2.4268 C   0  0  0  0  0  0  0  0  0  0  0  0
   -0.3763    3.0846    3.0091 H   0  0  0  0  0  0  0  0  0  0  0  0
    1.3900    3.2507    3.0867 H   0  0  0  0  0  0  0  0  0  0  0  0
    0.5184    3.7660    1.6282 H   0  0  0  0  0  0  0  0  0  0  0  0
  1  2  1  0  0  0  0
  2  3  1  0  0  0  0
  2  4  1  0  0  0  0
  2  5  1  0  0  0  0
  5  6  2  0  0  0  0
  5  7  1  0  0  0  0
  7  8  1  0  0  0  0
  7  9  1  0  0  0  0
  9 10  1  0  0  0  0
  9 11  1  0  0  0  0
  9 24  1  0  0  0  0
 11 12  1  0  0  0  0
 11 13  1  0  0  0  0
 11 17  1  0  0  0  0
 13 14  1  0  0  0  0
 13 15  1  0  0  0  0
 13 16  1  0  0  0  0
 17 18  1  0  0  0  0
 17 19  1  0  0  0  0
 17 20  1  0  0  0  0
 20 21  1  0  0  0  0
 20 22  1  0  0  0  0
 20 23  1  0  0  0  0
 24 25  2  0  0  0  0
 24 26  1  0  0  0  0
 26 27  1  0  0  0  0
 26 28  1  0  0  0  0
 28 29  1  0  0  0  0
 28 30  1  0  0  0  0
 28 31  1  0  0  0  0
M  END
$$$$

  -OEChem-03222214053D

 31 30  0     1  0  0  0  0  0999 V2000
   -3.0270   -3.8284    1.5026 H   0  0  0  0  0  0  0  0  0  0  0  0
   -2.9986   -2.8278    1.0624 C   0  0  0  0  0  0  0  0  0  0  0  0
   -3.6835   -2.1799    1.6147 H   0  0  0  0  0  0  0  0  0  0  0  0
   -3.3268   -2.8914    0.0222 H   0  0  0  0  0  0  0  0  0  0  0  0
   -1.5904   -2.2676    1.1271 C   0  0  0  0  0  0  0  0  0  0  0  0
   -0.7184   -2.8902    1.7093 O   0  0  0  0  0  0  0  0  0  0  0  0
   -1.3352   -1.0150    0.6115 N   0  0  0  0  0  0  0  0  0  0  0  0
   -2.1363   -0.4845    0.2733 H   0  0  0  0  0  0  0  0  0  0  0  0
   -0.0240   -0.3498    0.5078 C   0  0  1  0  0  0  0  0  0  0  0  0
    0.6957   -0.8298    1.1784 H   0  0  0  0  0  0  0  0  0  0  0  0
    0.5016   -0.4413   -0.9696 C   0  0  1  0  0  0  0  0  0  0  0  0
   -0.3364   -0.7423   -1.6080 H   0  0  0  0  0  0  0  0  0  0  0  0
    1.0279    0.8946   -1.5364 C   0  0  0  0  0  0  0  0  0  0  0  0
    1.8431    1.2870   -0.9202 H   0  0  0  0  0  0  0  0  0  0  0  0
    1.4047    0.7571   -2.5547 H   0  0  0  0  0  0  0  0  0  0  0  0
    0.2291    1.6409   -1.5861 H   0  0  0  0  0  0  0  0  0  0  0  0
    1.6367   -1.4747   -1.1633 C   0  0  0  0  0  0  0  0  0  0  0  0
    1.9332   -1.4675   -2.2175 H   0  0  0  0  0  0  0  0  0  0  0  0
    2.5114   -1.1789   -0.5748 H   0  0  0  0  0  0  0  0  0  0  0  0
    1.2653   -2.9117   -0.8075 C   0  0  0  0  0  0  0  0  0  0  0  0
    0.2673   -3.1614   -1.1801 H   0  0  0  0  0  0  0  0  0  0  0  0
    1.9850   -3.6037   -1.2549 H   0  0  0  0  0  0  0  0  0  0  0  0
    1.2961   -3.0563    0.2739 H   0  0  0  0  0  0  0  0  0  0  0  0
   -0.2040    1.1073    0.9942 C   0  0  0  0  0  0  0  0  0  0  0  0
   -1.2039    1.7467    0.6811 O   0  0  0  0  0  0  0  0  0  0  0  0
    0.7171    1.6756    1.8549 N   0  0  0  0  0  0  0  0  0  0  0  0
    1.4897    1.0941    2.1662 H   0  0  0  0  0  0  0  0  0  0  0  0
    0.5625    3.0088    2.4235 C   0  0  0  0  0  0  0  0  0  0  0  0
   -0.3545    3.0673    3.0192 H   0  0  0  0  0  0  0  0  0  0  0  0
    1.4119    3.2444    3.0718 H   0  0  0  0  0  0  0  0  0  0  0  0
    0.5153    3.7609    1.6290 H   0  0  0  0  0  0  0  0  0  0  0  0
  1  2  1  0  0  0  0
  2  3  1  0  0  0  0
  2  4  1  0  0  0  0
  2  5  1  0  0  0  0
  5  6  2  0  0  0  0
  5  7  1  0  0  0  0
  7  8  1  0  0  0  0
  7  9  1  0  0  0  0
  9 10  1  0  0  0  0
  9 11  1  0  0  0  0
  9 24  1  0  0  0  0
 11 12  1  0  0  0  0
 11 13  1  0  0  0  0
 11 17  1  0  0  0  0
 13 14  1  0  0  0  0
 13 15  1  0  0  0  0
 13 16  1  0  0  0  0
 17 18  1  0  0  0  0
 17 19  1  0  0  0  0
 17 20  1  0  0  0  0
 20 21  1  0  0  0  0
 20 22  1  0  0  0  0
 20 23  1  0  0  0  0
 24 25  2  0  0  0  0
 24 26  1  0  0  0  0
 26 27  1  0  0  0  0
 26 28  1  0  0  0  0
 28 29  1  0  0  0  0
 28 30  1  0  0  0  0
 28 31  1  0  0  0  0
M  END
$$$$

  -OEChem-03222214053D

 31 30  0     1  0  0  0  0  0999 V2000
   -2.9886   -3.8457    1.4939 H   0  0  0  0  0  0  0  0  0  0  0  0
   -2.9733   -2.8439    1.0555 C   0  0  0  0  0  0  0  0  0  0  0  0
   -3.6659   -2.2056    1.6095 H   0  0  0  0  0  0  0  0  0  0  0  0
   -3.3015   -2.9099    0.0155 H   0  0  0  0  0  0  0  0  0  0  0  0
   -1.5724   -2.2660    1.1203 C   0  0  0  0  0  0  0  0  0  0  0  0
   -0.6921   -2.8740    1.7068 O   0  0  0  0  0  0  0  0  0  0  0  0
   -1.3304   -1.0113    0.6037 N   0  0  0  0  0  0  0  0  0  0  0  0
   -2.1341   -0.4867    0.2624 H   0  0  0  0  0  0  0  0  0  0  0  0
   -0.0204   -0.3471    0.4960 C   0  0  1  0  0  0  0  0  0  0  0  0
    0.7010   -0.8284    1.1640 H   0  0  0  0  0  0  0  0  0  0  0  0
    0.4981   -0.4384   -0.9839 C   0  0  1  0  0  0  0  0  0  0  0  0
   -0.3395   -0.7247   -1.6293 H   0  0  0  0  0  0  0  0  0  0  0  0
    1.0375    0.8982   -1.5389 C   0  0  0  0  0  0  0  0  0  0  0  0
    1.8616    1.2729   -0.9234 H   0  0  0  0  0  0  0  0  0  0  0  0
    1.4045    0.7698   -2.5620 H   0  0  0  0  0  0  0  0  0  0  0  0
    0.2475    1.6547   -1.5756 H   0  0  0  0  0  0  0  0  0  0  0  0
    1.6303   -1.4803   -1.1584 C   0  0  0  0  0  0  0  0  0  0  0  0
    2.1123   -1.3236   -2.1289 H   0  0  0  0  0  0  0  0  0  0  0  0
    2.3966   -1.3374   -0.3896 H   0  0  0  0  0  0  0  0  0  0  0  0
    1.1465   -2.9295   -1.1378 C   0  0  0  0  0  0  0  0  0  0  0  0
    0.2575   -3.0536   -1.7636 H   0  0  0  0  0  0  0  0  0  0  0  0
    1.9324   -3.5886   -1.5191 H   0  0  0  0  0  0  0  0  0  0  0  0
    0.9152   -3.2450   -0.1211 H   0  0  0  0  0  0  0  0  0  0  0  0
   -0.1994    1.1089    0.9863 C   0  0  0  0  0  0  0  0  0  0  0  0
   -1.2008    1.7491    0.6798 O   0  0  0  0  0  0  0  0  0  0  0  0
    0.7256    1.6742    1.8449 N   0  0  0  0  0  0  0  0  0  0  0  0
    1.5007    1.0920    2.1488 H   0  0  0  0  0  0  0  0  0  0  0  0
    0.5702    3.0017    2.4264 C   0  0  0  0  0  0  0  0  0  0  0  0
   -0.3480    3.0549    3.0209 H   0  0  0  0  0  0  0  0  0  0  0  0
    1.4182    3.2303    3.0792 H   0  0  0  0  0  0  0  0  0  0  0  0
    0.5254    3.7617    1.6393 H   0  0  0  0  0  0  0  0  0  0  0  0
  1  2  1  0  0  0  0
  2  3  1  0  0  0  0
  2  4  1  0  0  0  0
  2  5  1  0  0  0  0
  5  6  2  0  0  0  0
  5  7  1  0  0  0  0
  7  8  1  0  0  0  0
  7  9  1  0  0  0  0
  9 10  1  0  0  0  0
  9 11  1  0  0  0  0
  9 24  1  0  0  0  0
 11 12  1  0  0  0  0
 11 13  1  0  0  0  0
 11 17  1  0  0  0  0
 13 14  1  0  0  0  0
 13 15  1  0  0  0  0
 13 16  1  0  0  0  0
 17 18  1  0  0  0  0
 17 19  1  0  0  0  0
 17 20  1  0  0  0  0
 20 21  1  0  0  0  0
 20 22  1  0  0  0  0
 20 23  1  0  0  0  0
 24 25  2  0  0  0  0
 24 26  1  0  0  0  0
 26 27  1  0  0  0  0
 26 28  1  0  0  0  0
 28 29  1  0  0  0  0
 28 30  1  0  0  0  0
 28 31  1  0  0  0  0
M  END
$$$$

  -OEChem-03222214053D

 31 30  0     1  0  0  0  0  0999 V2000
   -2.9539   -3.8556    1.5129 H   0  0  0  0  0  0  0  0  0  0  0  0
   -2.9567   -2.8482    1.0872 C   0  0  0  0  0  0  0  0  0  0  0  0
   -3.6117   -2.2130    1.6885 H   0  0  0  0  0  0  0  0  0  0  0  0
   -3.3449   -2.8982    0.0670 H   0  0  0  0  0  0  0  0  0  0  0  0
   -1.5503   -2.2798    1.0780 C   0  0  0  0  0  0  0  0  0  0  0  0
   -0.6331   -2.9163    1.5723 O   0  0  0  0  0  0  0  0  0  0  0  0
   -1.3300   -1.0160    0.5732 N   0  0  0  0  0  0  0  0  0  0  0  0
   -2.1456   -0.4729    0.2943 H   0  0  0  0  0  0  0  0  0  0  0  0
   -0.0235   -0.3462    0.4746 C   0  0  1  0  0  0  0  0  0  0  0  0
    0.6910   -0.8260    1.1503 H   0  0  0  0  0  0  0  0  0  0  0  0
    0.5033   -0.4338   -1.0019 C   0  0  1  0  0  0  0  0  0  0  0  0
   -0.3283   -0.7182   -1.6561 H   0  0  0  0  0  0  0  0  0  0  0  0
    1.0407    0.9068   -1.5481 C   0  0  0  0  0  0  0  0  0  0  0  0
    1.8642    1.2787   -0.9304 H   0  0  0  0  0  0  0  0  0  0  0  0
    1.4070    0.7835   -2.5722 H   0  0  0  0  0  0  0  0  0  0  0  0
    0.2495    1.6623   -1.5796 H   0  0  0  0  0  0  0  0  0  0  0  0
    1.6398   -1.4791   -1.1483 C   0  0  0  0  0  0  0  0  0  0  0  0
    2.3141   -1.1897   -1.9610 H   0  0  0  0  0  0  0  0  0  0  0  0
    2.2438   -1.5226   -0.2367 H   0  0  0  0  0  0  0  0  0  0  0  0
    1.1091   -2.8736   -1.4850 C   0  0  0  0  0  0  0  0  0  0  0  0
    0.5308   -2.8496   -2.4137 H   0  0  0  0  0  0  0  0  0  0  0  0
    1.9443   -3.5681   -1.6158 H   0  0  0  0  0  0  0  0  0  0  0  0
    0.4712   -3.2557   -0.6876 H   0  0  0  0  0  0  0  0  0  0  0  0
   -0.2037    1.1045    0.9795 C   0  0  0  0  0  0  0  0  0  0  0  0
   -1.2102    1.7426    0.6867 O   0  0  0  0  0  0  0  0  0  0  0  0
    0.7204    1.6623    1.8439 N   0  0  0  0  0  0  0  0  0  0  0  0
    1.5065    1.0850    2.1280 H   0  0  0  0  0  0  0  0  0  0  0  0
    0.5719    2.9897    2.4275 C   0  0  0  0  0  0  0  0  0  0  0  0
   -0.3517    3.0505    3.0126 H   0  0  0  0  0  0  0  0  0  0  0  0
    1.4153    3.2080    3.0896 H   0  0  0  0  0  0  0  0  0  0  0  0
    0.5426    3.7520    1.6419 H   0  0  0  0  0  0  0  0  0  0  0  0
  1  2  1  0  0  0  0
  2  3  1  0  0  0  0
  2  4  1  0  0  0  0
  2  5  1  0  0  0  0
  5  6  2  0  0  0  0
  5  7  1  0  0  0  0
  7  8  1  0  0  0  0
  7  9  1  0  0  0  0
  9 10  1  0  0  0  0
  9 11  1  0  0  0  0
  9 24  1  0  0  0  0
 11 12  1  0  0  0  0
 11 13  1  0  0  0  0
 11 17  1  0  0  0  0
 13 14  1  0  0  0  0
 13 15  1  0  0  0  0
 13 16  1  0  0  0  0
 17 18  1  0  0  0  0
 17 19  1  0  0  0  0
 17 20  1  0  0  0  0
 20 21  1  0  0  0  0
 20 22  1  0  0  0  0
 20 23  1  0  0  0  0
 24 25  2  0  0  0  0
 24 26  1  0  0  0  0
 26 27  1  0  0  0  0
 26 28  1  0  0  0  0
 28 29  1  0  0  0  0
 28 30  1  0  0  0  0
 28 31  1  0  0  0  0
M  END
$$$$

  -OEChem-03222214053D

 31 30  0     1  0  0  0  0  0999 V2000
   -2.9153   -3.8565    1.5074 H   0  0  0  0  0  0  0  0  0  0  0  0
   -2.9360   -2.8428    1.0973 C   0  0  0  0  0  0  0  0  0  0  0  0
   -3.5476   -2.2121    1.7470 H   0  0  0  0  0  0  0  0  0  0  0  0
   -3.3867   -2.8747    0.1024 H   0  0  0  0  0  0  0  0  0  0  0  0
   -1.5284   -2.2840    1.0098 C   0  0  0  0  0  0  0  0  0  0  0  0
   -0.5807   -2.9557    1.3869 O   0  0  0  0  0  0  0  0  0  0  0  0
   -1.3291   -1.0086    0.5255 N   0  0  0  0  0  0  0  0  0  0  0  0
   -2.1536   -0.4436    0.3269 H   0  0  0  0  0  0  0  0  0  0  0  0
   -0.0264   -0.3306    0.4538 C   0  0  1  0  0  0  0  0  0  0  0  0
    0.6747   -0.8083    1.1438 H   0  0  0  0  0  0  0  0  0  0  0  0
    0.5076   -0.4347   -1.0150 C   0  0  1  0  0  0  0  0  0  0  0  0
   -0.3207   -0.7263   -1.6708 H   0  0  0  0  0  0  0  0  0  0  0  0
    1.0404    0.9020   -1.5701 C   0  0  0  0  0  0  0  0  0  0  0  0
    1.8578    1.2838   -0.9501 H   0  0  0  0  0  0  0  0  0  0  0  0
    1.4142    0.7674   -2.5901 H   0  0  0  0  0  0  0  0  0  0  0  0
    0.2450    1.6528   -1.6118 H   0  0  0  0  0  0  0  0  0  0  0  0
    1.6467   -1.4849   -1.1280 C   0  0  0  0  0  0  0  0  0  0  0  0
    2.4738   -1.0940   -1.7298 H   0  0  0  0  0  0  0  0  0  0  0  0
    2.0635   -1.7306   -0.1470 H   0  0  0  0  0  0  0  0  0  0  0  0
    1.1483   -2.7672   -1.7967 C   0  0  0  0  0  0  0  0  0  0  0  0
    0.7916   -2.5577   -2.8100 H   0  0  0  0  0  0  0  0  0  0  0  0
    1.9598   -3.4984   -1.8593 H   0  0  0  0  0  0  0  0  0  0  0  0
    0.3297   -3.2081   -1.2206 H   0  0  0  0  0  0  0  0  0  0  0  0
   -0.2039    1.1140    0.9750 C   0  0  0  0  0  0  0  0  0  0  0  0
   -1.2117    1.7531    0.6898 O   0  0  0  0  0  0  0  0  0  0  0  0
    0.7127    1.6603    1.8547 N   0  0  0  0  0  0  0  0  0  0  0  0
    1.5071    1.0871    2.1239 H   0  0  0  0  0  0  0  0  0  0  0  0
    0.5633    2.9843    2.4463 C   0  0  0  0  0  0  0  0  0  0  0  0
   -0.3709    3.0475    3.0143 H   0  0  0  0  0  0  0  0  0  0  0  0
    1.3954    3.1908    3.1263 H   0  0  0  0  0  0  0  0  0  0  0  0
    0.5545    3.7533    1.6666 H   0  0  0  0  0  0  0  0  0  0  0  0
  1  2  1  0  0  0  0
  2  3  1  0  0  0  0
  2  4  1  0  0  0  0
  2  5  1  0  0  0  0
  5  6  2  0  0  0  0
  5  7  1  0  0  0  0
  7  8  1  0  0  0  0
  7  9  1  0  0  0  0
  9 10  1  0  0  0  0
  9 11  1  0  0  0  0
  9 24  1  0  0  0  0
 11 12  1  0  0  0  0
 11 13  1  0  0  0  0
 11 17  1  0  0  0  0
 13 14  1  0  0  0  0
 13 15  1  0  0  0  0
 13 16  1  0  0  0  0
 17 18  1  0  0  0  0
 17 19  1  0  0  0  0
 17 20  1  0  0  0  0
 20 21  1  0  0  0  0
 20 22  1  0  0  0  0
 20 23  1  0  0  0  0
 24 25  2  0  0  0  0
 24 26  1  0  0  0  0
 26 27  1  0  0  0  0
 26 28  1  0  0  0  0
 28 29  1  0  0  0  0
 28 30  1  0  0  0  0
 28 31  1  0  0  0  0
M  END
$$$$

  -OEChem-03222214053D

 31 30  0     1  0  0  0  0  0999 V2000
   -2.9166   -3.8494    1.5095 H   0  0  0  0  0  0  0  0  0  0  0  0
   -2.9413   -2.8345    1.1027 C   0  0  0  0  0  0  0  0  0  0  0  0
   -3.5372   -2.2034    1.7664 H   0  0  0  0  0  0  0  0  0  0  0  0
   -3.4119   -2.8615    0.1169 H   0  0  0  0  0  0  0  0  0  0  0  0
   -1.5330   -2.2821    0.9884 C   0  0  0  0  0  0  0  0  0  0  0  0
   -0.5797   -2.9663    1.3269 O   0  0  0  0  0  0  0  0  0  0  0  0
   -1.3361   -1.0042    0.5097 N   0  0  0  0  0  0  0  0  0  0  0  0
   -2.1610   -0.4318    0.3349 H   0  0  0  0  0  0  0  0  0  0  0  0
   -0.0329   -0.3262    0.4488 C   0  0  1  0  0  0  0  0  0  0  0  0
    0.6626   -0.8033    1.1448 H   0  0  0  0  0  0  0  0  0  0  0  0
    0.5123   -0.4328   -1.0133 C   0  0  1  0  0  0  0  0  0  0  0  0
   -0.3165   -0.7375   -1.6629 H   0  0  0  0  0  0  0  0  0  0  0  0
    1.0341    0.8993   -1.5867 C   0  0  0  0  0  0  0  0  0  0  0  0
    1.8389    1.3055   -0.9657 H   0  0  0  0  0  0  0  0  0  0  0  0
    1.4227    0.7480   -2.5989 H   0  0  0  0  0  0  0  0  0  0  0  0
    0.2286    1.6378   -1.6500 H   0  0  0  0  0  0  0  0  0  0  0  0
    1.6518   -1.4841   -1.1138 C   0  0  0  0  0  0  0  0  0  0  0  0
    2.5862   -1.0162   -1.4409 H   0  0  0  0  0  0  0  0  0  0  0  0
    1.8541   -1.9478   -0.1439 H   0  0  0  0  0  0  0  0  0  0  0  0
    1.2825   -2.5973   -2.0948 C   0  0  0  0  0  0  0  0  0  0  0  0
    1.1107   -2.1865   -3.0946 H   0  0  0  0  0  0  0  0  0  0  0  0
    2.0932   -3.3297   -2.1551 H   0  0  0  0  0  0  0  0  0  0  0  0
    0.3745   -3.1117   -1.7635 H   0  0  0  0  0  0  0  0  0  0  0  0
   -0.2046    1.1175    0.9724 C   0  0  0  0  0  0  0  0  0  0  0  0
   -1.2093    1.7611    0.6871 O   0  0  0  0  0  0  0  0  0  0  0  0
    0.7118    1.6553    1.8575 N   0  0  0  0  0  0  0  0  0  0  0  0
    1.5045    1.0780    2.1231 H   0  0  0  0  0  0  0  0  0  0  0  0
    0.5687    2.9773    2.4546 C   0  0  0  0  0  0  0  0  0  0  0  0
   -0.3640    3.0416    3.0248 H   0  0  0  0  0  0  0  0  0  0  0  0
    1.4030    3.1778    3.1336 H   0  0  0  0  0  0  0  0  0  0  0  0
    0.5612    3.7494    1.6781 H   0  0  0  0  0  0  0  0  0  0  0  0
  1  2  1  0  0  0  0
  2  3  1  0  0  0  0
  2  4  1  0  0  0  0
  2  5  1  0  0  0  0
  5  6  2  0  0  0  0
  5  7  1  0  0  0  0
  7  8  1  0  0  0  0
  7  9  1  0  0  0  0
  9 10  1  0  0  0  0
  9 11  1  0  0  0  0
  9 24  1  0  0  0  0
 11 12  1  0  0  0  0
 11 13  1  0  0  0  0
 11 17  1  0  0  0  0
 13 14  1  0  0  0  0
 13 15  1  0  0  0  0
 13 16  1  0  0  0  0
 17 18  1  0  0  0  0
 17 19  1  0  0  0  0
 17 20  1  0  0  0  0
 20 21  1  0  0  0  0
 20 22  1  0  0  0  0
 20 23  1  0  0  0  0
 24 25  2  0  0  0  0
 24 26  1  0  0  0  0
 26 27  1  0  0  0  0
 26 28  1  0  0  0  0
 28 29  1  0  0  0  0
 28 30  1  0  0  0  0
 28 31  1  0  0  0  0
M  END
$$$$

  -OEChem-03222214053D

 31 30  0     1  0  0  0  0  0999 V2000
   -2.9278   -3.8460    1.5090 H   0  0  0  0  0  0  0  0  0  0  0  0
   -2.9494   -2.8311    1.1022 C   0  0  0  0  0  0  0  0  0  0  0  0
   -3.5442   -2.1984    1.7653 H   0  0  0  0  0  0  0  0  0  0  0  0
   -3.4187   -2.8565    0.1158 H   0  0  0  0  0  0  0  0  0  0  0  0
   -1.5395   -2.2828    0.9895 C   0  0  0  0  0  0  0  0  0  0  0  0
   -0.5889   -2.9681    1.3330 O   0  0  0  0  0  0  0  0  0  0  0  0
   -1.3390   -1.0051    0.5117 N   0  0  0  0  0  0  0  0  0  0  0  0
   -2.1629   -0.4323    0.3337 H   0  0  0  0  0  0  0  0  0  0  0  0
   -0.0346   -0.3289    0.4479 C   0  0  1  0  0  0  0  0  0  0  0  0
    0.6668   -0.8087    1.1374 H   0  0  0  0  0  0  0  0  0  0  0  0
    0.5101   -0.4274   -1.0132 C   0  0  1  0  0  0  0  0  0  0  0  0
   -0.3199   -0.7429   -1.6555 H   0  0  0  0  0  0  0  0  0  0  0  0
    1.0290    0.9019   -1.5942 C   0  0  0  0  0  0  0  0  0  0  0  0
    1.8257    1.3191   -0.9701 H   0  0  0  0  0  0  0  0  0  0  0  0
    1.4279    0.7444   -2.6010 H   0  0  0  0  0  0  0  0  0  0  0  0
    0.2192    1.6344   -1.6695 H   0  0  0  0  0  0  0  0  0  0  0  0
    1.6454   -1.4783   -1.1082 C   0  0  0  0  0  0  0  0  0  0  0  0
    2.6254   -0.9907   -1.1393 H   0  0  0  0  0  0  0  0  0  0  0  0
    1.6392   -2.1332   -0.2312 H   0  0  0  0  0  0  0  0  0  0  0  0
    1.4680   -2.3747   -2.3346 C   0  0  0  0  0  0  0  0  0  0  0  0
    1.4827   -1.7785   -3.2521 H   0  0  0  0  0  0  0  0  0  0  0  0
    2.2785   -3.1080   -2.3832 H   0  0  0  0  0  0  0  0  0  0  0  0
    0.5169   -2.9138   -2.2797 H   0  0  0  0  0  0  0  0  0  0  0  0
   -0.2027    1.1145    0.9730 C   0  0  0  0  0  0  0  0  0  0  0  0
   -1.2059    1.7610    0.6888 O   0  0  0  0  0  0  0  0  0  0  0  0
    0.7170    1.6499    1.8561 N   0  0  0  0  0  0  0  0  0  0  0  0
    1.5083    1.0703    2.1206 H   0  0  0  0  0  0  0  0  0  0  0  0
    0.5778    2.9716    2.4549 C   0  0  0  0  0  0  0  0  0  0  0  0
   -0.3526    3.0367    3.0289 H   0  0  0  0  0  0  0  0  0  0  0  0
    1.4152    3.1701    3.1308 H   0  0  0  0  0  0  0  0  0  0  0  0
    0.5685    3.7446    1.6793 H   0  0  0  0  0  0  0  0  0  0  0  0
  1  2  1  0  0  0  0
  2  3  1  0  0  0  0
  2  4  1  0  0  0  0
  2  5  1  0  0  0  0
  5  6  2  0  0  0  0
  5  7  1  0  0  0  0
  7  8  1  0  0  0  0
  7  9  1  0  0  0  0
  9 10  1  0  0  0  0
  9 11  1  0  0  0  0
  9 24  1  0  0  0  0
 11 12  1  0  0  0  0
 11 13  1  0  0  0  0
 11 17  1  0  0  0  0
 13 14  1  0  0  0  0
 13 15  1  0  0  0  0
 13 16  1  0  0  0  0
 17 18  1  0  0  0  0
 17 19  1  0  0  0  0
 17 20  1  0  0  0  0
 20 21  1  0  0  0  0
 20 22  1  0  0  0  0
 20 23  1  0  0  0  0
 24 25  2  0  0  0  0
 24 26  1  0  0  0  0
 26 27  1  0  0  0  0
 26 28  1  0  0  0  0
 28 29  1  0  0  0  0
 28 30  1  0  0  0  0
 28 31  1  0  0  0  0
M  END
$$$$

  -OEChem-03222214053D

 31 30  0     1  0  0  0  0  0999 V2000
   -2.9294   -3.8437    1.5021 H   0  0  0  0  0  0  0  0  0  0  0  0
   -2.9500   -2.8276    1.0986 C   0  0  0  0  0  0  0  0  0  0  0  0
   -3.5416   -2.1956    1.7653 H   0  0  0  0  0  0  0  0  0  0  0  0
   -3.4218   -2.8488    0.1134 H   0  0  0  0  0  0  0  0  0  0  0  0
   -1.5395   -2.2815    0.9838 C   0  0  0  0  0  0  0  0  0  0  0  0
   -0.5897   -2.9687    1.3251 O   0  0  0  0  0  0  0  0  0  0  0  0
   -1.3394   -1.0021    0.5108 N   0  0  0  0  0  0  0  0  0  0  0  0
   -2.1643   -0.4287    0.3393 H   0  0  0  0  0  0  0  0  0  0  0  0
   -0.0356   -0.3248    0.4385 C   0  0  1  0  0  0  0  0  0  0  0  0
    0.6731   -0.8112    1.1165 H   0  0  0  0  0  0  0  0  0  0  0  0
    0.4999   -0.4195   -1.0259 C   0  0  1  0  0  0  0  0  0  0  0  0
   -0.3277   -0.7437   -1.6668 H   0  0  0  0  0  0  0  0  0  0  0  0
    1.0164    0.9144   -1.6010 C   0  0  0  0  0  0  0  0  0  0  0  0
    1.8220    1.3220   -0.9822 H   0  0  0  0  0  0  0  0  0  0  0  0
    1.4019    0.7723   -2.6145 H   0  0  0  0  0  0  0  0  0  0  0  0
    0.2079    1.6500   -1.6576 H   0  0  0  0  0  0  0  0  0  0  0  0
    1.6314   -1.4707   -1.1069 C   0  0  0  0  0  0  0  0  0  0  0  0
    2.5962   -1.0132   -0.8650 H   0  0  0  0  0  0  0  0  0  0  0  0
    1.4531   -2.2651   -0.3747 H   0  0  0  0  0  0  0  0  0  0  0  0
    1.6950   -2.1376   -2.4834 C   0  0  0  0  0  0  0  0  0  0  0  0
    1.9161   -1.4044   -3.2641 H   0  0  0  0  0  0  0  0  0  0  0  0
    2.4815   -2.8982   -2.4928 H   0  0  0  0  0  0  0  0  0  0  0  0
    0.7427   -2.6236   -2.7177 H   0  0  0  0  0  0  0  0  0  0  0  0
   -0.2008    1.1161    0.9721 C   0  0  0  0  0  0  0  0  0  0  0  0
   -1.2087    1.7613    0.7019 O   0  0  0  0  0  0  0  0  0  0  0  0
    0.7254    1.6488    1.8500 N   0  0  0  0  0  0  0  0  0  0  0  0
    1.5180    1.0679    2.1079 H   0  0  0  0  0  0  0  0  0  0  0  0
    0.5840    2.9636    2.4636 C   0  0  0  0  0  0  0  0  0  0  0  0
   -0.3374    3.0151    3.0534 H   0  0  0  0  0  0  0  0  0  0  0  0
    1.4304    3.1635    3.1276 H   0  0  0  0  0  0  0  0  0  0  0  0
    0.5550    3.7438    1.6957 H   0  0  0  0  0  0  0  0  0  0  0  0
  1  2  1  0  0  0  0
  2  3  1  0  0  0  0
  2  4  1  0  0  0  0
  2  5  1  0  0  0  0
  5  6  2  0  0  0  0
  5  7  1  0  0  0  0
  7  8  1  0  0  0  0
  7  9  1  0  0  0  0
  9 10  1  0  0  0  0
  9 11  1  0  0  0  0
  9 24  1  0  0  0  0
 11 12  1  0  0  0  0
 11 13  1  0  0  0  0
 11 17  1  0  0  0  0
 13 14  1  0  0  0  0
 13 15  1  0  0  0  0
 13 16  1  0  0  0  0
 17 18  1  0  0  0  0
 17 19  1  0  0  0  0
 17 20  1  0  0  0  0
 20 21  1  0  0  0  0
 20 22  1  0  0  0  0
 20 23  1  0  0  0  0
 24 25  2  0  0  0  0
 24 26  1  0  0  0  0
 26 27  1  0  0  0  0
 26 28  1  0  0  0  0
 28 29  1  0  0  0  0
 28 30  1  0  0  0  0
 28 31  1  0  0  0  0
M  END
$$$$

  -OEChem-03222214053D

 31 30  0     1  0  0  0  0  0999 V2000
   -2.9209   -3.8545    1.4874 H   0  0  0  0  0  0  0  0  0  0  0  0
   -2.9460   -2.8365    1.0885 C   0  0  0  0  0  0  0  0  0  0  0  0
   -3.5399   -2.2101    1.7586 H   0  0  0  0  0  0  0  0  0  0  0  0
   -3.4192   -2.8555    0.1038 H   0  0  0  0  0  0  0  0  0  0  0  0
   -1.5377   -2.2840    0.9747 C   0  0  0  0  0  0  0  0  0  0  0  0
   -0.5847   -2.9693    1.3108 O   0  0  0  0  0  0  0  0  0  0  0  0
   -1.3439   -1.0000    0.5111 N   0  0  0  0  0  0  0  0  0  0  0  0
   -2.1719   -0.4307    0.3416 H   0  0  0  0  0  0  0  0  0  0  0  0
   -0.0434   -0.3173    0.4298 C   0  0  1  0  0  0  0  0  0  0  0  0
    0.6715   -0.8100    1.0970 H   0  0  0  0  0  0  0  0  0  0  0  0
    0.4827   -0.4067   -1.0391 C   0  0  1  0  0  0  0  0  0  0  0  0
   -0.3391   -0.7412   -1.6820 H   0  0  0  0  0  0  0  0  0  0  0  0
    0.9815    0.9391   -1.6065 C   0  0  0  0  0  0  0  0  0  0  0  0
    1.8147    1.3284   -1.0130 H   0  0  0  0  0  0  0  0  0  0  0  0
    1.3184    0.8265   -2.6401 H   0  0  0  0  0  0  0  0  0  0  0  0
    0.1753    1.6793   -1.6126 H   0  0  0  0  0  0  0  0  0  0  0  0
    1.6156   -1.4567   -1.1027 C   0  0  0  0  0  0  0  0  0  0  0  0
    2.5152   -1.0674   -0.6149 H   0  0  0  0  0  0  0  0  0  0  0  0
    1.3038   -2.3510   -0.5532 H   0  0  0  0  0  0  0  0  0  0  0  0
    1.9558   -1.8916   -2.5316 C   0  0  0  0  0  0  0  0  0  0  0  0
    2.3968   -1.0701   -3.1022 H   0  0  0  0  0  0  0  0  0  0  0  0
    2.6790   -2.7123   -2.5061 H   0  0  0  0  0  0  0  0  0  0  0  0
    1.0573   -2.2397   -3.0504 H   0  0  0  0  0  0  0  0  0  0  0  0
   -0.2037    1.1188    0.9772 C   0  0  0  0  0  0  0  0  0  0  0  0
   -1.2162    1.7647    0.7266 O   0  0  0  0  0  0  0  0  0  0  0  0
    0.7334    1.6447    1.8475 N   0  0  0  0  0  0  0  0  0  0  0  0
    1.5311    1.0635    2.0881 H   0  0  0  0  0  0  0  0  0  0  0  0
    0.6038    2.9583    2.4658 C   0  0  0  0  0  0  0  0  0  0  0  0
   -0.3150    3.0145    3.0590 H   0  0  0  0  0  0  0  0  0  0  0  0
    1.4539    3.1503    3.1274 H   0  0  0  0  0  0  0  0  0  0  0  0
    0.5776    3.7406    1.7000 H   0  0  0  0  0  0  0  0  0  0  0  0
  1  2  1  0  0  0  0
  2  3  1  0  0  0  0
  2  4  1  0  0  0  0
  2  5  1  0  0  0  0
  5  6  2  0  0  0  0
  5  7  1  0  0  0  0
  7  8  1  0  0  0  0
  7  9  1  0  0  0  0
  9 10  1  0  0  0  0
  9 11  1  0  0  0  0
  9 24  1  0  0  0  0
 11 12  1  0  0  0  0
 11 13  1  0  0  0  0
 11 17  1  0  0  0  0
 13 14  1  0  0  0  0
 13 15  1  0  0  0  0
 13 16  1  0  0  0  0
 17 18  1  0  0  0  0
 17 19  1  0  0  0  0
 17 20  1  0  0  0  0
 20 21  1  0  0  0  0
 20 22  1  0  0  0  0
 20 23  1  0  0  0  0
 24 25  2  0  0  0  0
 24 26  1  0  0  0  0
 26 27  1  0  0  0  0
 26 28  1  0  0  0  0
 28 29  1  0  0  0  0
 28 30  1  0  0  0  0
 28 31  1  0  0  0  0
M  END
$$$$

  -OEChem-03222214053D

 31 30  0     1  0  0  0  0  0999 V2000
   -2.9105   -3.8534    1.4827 H   0  0  0  0  0  0  0  0  0  0  0  0
   -2.9288   -2.8373    1.0792 C   0  0  0  0  0  0  0  0  0  0  0  0
   -3.5380   -2.2091    1.7335 H   0  0  0  0  0  0  0  0  0  0  0  0
   -3.3800   -2.8615    0.0843 H   0  0  0  0  0  0  0  0  0  0  0  0
   -1.5194   -2.2830    0.9950 C   0  0  0  0  0  0  0  0  0  0  0  0
   -0.5747   -2.9591    1.3713 O   0  0  0  0  0  0  0  0  0  0  0  0
   -1.3153   -1.0048    0.5202 N   0  0  0  0  0  0  0  0  0  0  0  0
   -2.1386   -0.4369    0.3247 H   0  0  0  0  0  0  0  0  0  0  0  0
   -0.0106   -0.3298    0.4415 C   0  0  1  0  0  0  0  0  0  0  0  0
    0.7170   -0.8198    1.0966 H   0  0  0  0  0  0  0  0  0  0  0  0
    0.4892   -0.3940   -1.0360 C   0  0  1  0  0  0  0  0  0  0  0  0
   -0.3765   -0.4217   -1.7070 H   0  0  0  0  0  0  0  0  0  0  0  0
    1.3385    0.8355   -1.4305 C   0  0  0  0  0  0  0  0  0  0  0  0
    2.2275    0.9098   -0.7964 H   0  0  0  0  0  0  0  0  0  0  0  0
    1.6583    0.7731   -2.4737 H   0  0  0  0  0  0  0  0  0  0  0  0
    0.7611    1.7603   -1.3392 H   0  0  0  0  0  0  0  0  0  0  0  0
    1.3178   -1.6900   -1.2174 C   0  0  0  0  0  0  0  0  0  0  0  0
    2.1516   -1.7014   -0.5079 H   0  0  0  0  0  0  0  0  0  0  0  0
    0.6781   -2.5472   -0.9861 H   0  0  0  0  0  0  0  0  0  0  0  0
    1.8764   -1.8906   -2.6302 C   0  0  0  0  0  0  0  0  0  0  0  0
    2.6772   -1.1773   -2.8445 H   0  0  0  0  0  0  0  0  0  0  0  0
    2.2914   -2.8988   -2.7241 H   0  0  0  0  0  0  0  0  0  0  0  0
    1.0843   -1.7719   -3.3760 H   0  0  0  0  0  0  0  0  0  0  0  0
   -0.1960    1.1069    0.9796 C   0  0  0  0  0  0  0  0  0  0  0  0
   -1.1960    1.7516    0.6803 O   0  0  0  0  0  0  0  0  0  0  0  0
    0.7200    1.6525    1.8603 N   0  0  0  0  0  0  0  0  0  0  0  0
    1.5101    1.0763    2.1357 H   0  0  0  0  0  0  0  0  0  0  0  0
    0.5669    2.9745    2.4551 C   0  0  0  0  0  0  0  0  0  0  0  0
   -0.3675    3.0335    3.0233 H   0  0  0  0  0  0  0  0  0  0  0  0
    1.3983    3.1828    3.1353 H   0  0  0  0  0  0  0  0  0  0  0  0
    0.5553    3.7447    1.6768 H   0  0  0  0  0  0  0  0  0  0  0  0
  1  2  1  0  0  0  0
  2  3  1  0  0  0  0
  2  4  1  0  0  0  0
  2  5  1  0  0  0  0
  5  6  2  0  0  0  0
  5  7  1  0  0  0  0
  7  8  1  0  0  0  0
  7  9  1  0  0  0  0
  9 10  1  0  0  0  0
  9 11  1  0  0  0  0
  9 24  1  0  0  0  0
 11 12  1  0  0  0  0
 11 13  1  0  0  0  0
 11 17  1  0  0  0  0
 13 14  1  0  0  0  0
 13 15  1  0  0  0  0
 13 16  1  0  0  0  0
 17 18  1  0  0  0  0
 17 19  1  0  0  0  0
 17 20  1  0  0  0  0
 20 21  1  0  0  0  0
 20 22  1  0  0  0  0
 20 23  1  0  0  0  0
 24 25  2  0  0  0  0
 24 26  1  0  0  0  0
 26 27  1  0  0  0  0
 26 28  1  0  0  0  0
 28 29  1  0  0  0  0
 28 30  1  0  0  0  0
 28 31  1  0  0  0  0
M  END
$$$$

  -OEChem-03222214053D

 31 30  0     1  0  0  0  0  0999 V2000
   -2.9016   -3.8468    1.4750 H   0  0  0  0  0  0  0  0  0  0  0  0
   -2.9230   -2.8281    1.0779 C   0  0  0  0  0  0  0  0  0  0  0  0
   -3.5200   -2.2021    1.7454 H   0  0  0  0  0  0  0  0  0  0  0  0
   -3.3901   -2.8446    0.0903 H   0  0  0  0  0  0  0  0  0  0  0  0
   -1.5136   -2.2768    0.9739 C   0  0  0  0  0  0  0  0  0  0  0  0
   -0.5625   -2.9611    1.3184 O   0  0  0  0  0  0  0  0  0  0  0  0
   -1.3151   -0.9946    0.5078 N   0  0  0  0  0  0  0  0  0  0  0  0
   -2.1404   -0.4235    0.3306 H   0  0  0  0  0  0  0  0  0  0  0  0
   -0.0119   -0.3165    0.4349 C   0  0  1  0  0  0  0  0  0  0  0  0
    0.7102   -0.8047    1.0967 H   0  0  0  0  0  0  0  0  0  0  0  0
    0.4877   -0.3887   -1.0437 C   0  0  1  0  0  0  0  0  0  0  0  0
   -0.3742   -0.4249   -1.7193 H   0  0  0  0  0  0  0  0  0  0  0  0
    1.3157    0.8561   -1.4398 C   0  0  0  0  0  0  0  0  0  0  0  0
    2.2092    0.9412   -0.8134 H   0  0  0  0  0  0  0  0  0  0  0  0
    1.6254    0.8048   -2.4872 H   0  0  0  0  0  0  0  0  0  0  0  0
    0.7253    1.7717   -1.3400 H   0  0  0  0  0  0  0  0  0  0  0  0
    1.3200   -1.6888   -1.2186 C   0  0  0  0  0  0  0  0  0  0  0  0
    1.9937   -1.8150   -0.3651 H   0  0  0  0  0  0  0  0  0  0  0  0
    0.6316   -2.5401   -1.2182 H   0  0  0  0  0  0  0  0  0  0  0  0
    2.1790   -1.7573   -2.4862 C   0  0  0  0  0  0  0  0  0  0  0  0
    3.0037   -1.0397   -2.4444 H   0  0  0  0  0  0  0  0  0  0  0  0
    2.6091   -2.7584   -2.5878 H   0  0  0  0  0  0  0  0  0  0  0  0
    1.5702   -1.5521   -3.3723 H   0  0  0  0  0  0  0  0  0  0  0  0
   -0.1974    1.1171    0.9818 C   0  0  0  0  0  0  0  0  0  0  0  0
   -1.2014    1.7605    0.6934 O   0  0  0  0  0  0  0  0  0  0  0  0
    0.7190    1.6565    1.8660 N   0  0  0  0  0  0  0  0  0  0  0  0
    1.5103    1.0790    2.1353 H   0  0  0  0  0  0  0  0  0  0  0  0
    0.5626    2.9708    2.4767 C   0  0  0  0  0  0  0  0  0  0  0  0
   -0.3706    3.0196    3.0476 H   0  0  0  0  0  0  0  0  0  0  0  0
    1.3949    3.1730    3.1576 H   0  0  0  0  0  0  0  0  0  0  0  0
    0.5468    3.7505    1.7080 H   0  0  0  0  0  0  0  0  0  0  0  0
  1  2  1  0  0  0  0
  2  3  1  0  0  0  0
  2  4  1  0  0  0  0
  2  5  1  0  0  0  0
  5  6  2  0  0  0  0
  5  7  1  0  0  0  0
  7  8  1  0  0  0  0
  7  9  1  0  0  0  0
  9 10  1  0  0  0  0
  9 11  1  0  0  0  0
  9 24  1  0  0  0  0
 11 12  1  0  0  0  0
 11 13  1  0  0  0  0
 11 17  1  0  0  0  0
 13 14  1  0  0  0  0
 13 15  1  0  0  0  0
 13 16  1  0  0  0  0
 17 18  1  0  0  0  0
 17 19  1  0  0  0  0
 17 20  1  0  0  0  0
 20 21  1  0  0  0  0
 20 22  1  0  0  0  0
 20 23  1  0  0  0  0
 24 25  2  0  0  0  0
 24 26  1  0  0  0  0
 26 27  1  0  0  0  0
 26 28  1  0  0  0  0
 28 29  1  0  0  0  0
 28 30  1  0  0  0  0
 28 31  1  0  0  0  0
M  END
$$$$

  -OEChem-03222214053D

 31 30  0     1  0  0  0  0  0999 V2000
   -2.8971   -3.8433    1.4713 H   0  0  0  0  0  0  0  0  0  0  0  0
   -2.9211   -2.8242    1.0757 C   0  0  0  0  0  0  0  0  0  0  0  0
   -3.5160   -2.1995    1.7464 H   0  0  0  0  0  0  0  0  0  0  0  0
   -3.3923   -2.8399    0.0900 H   0  0  0  0  0  0  0  0  0  0  0  0
   -1.5122   -2.2721    0.9670 C   0  0  0  0  0  0  0  0  0  0  0  0
   -0.5593   -2.9591    1.3008 O   0  0  0  0  0  0  0  0  0  0  0  0
   -1.3147   -0.9885    0.5045 N   0  0  0  0  0  0  0  0  0  0  0  0
   -2.1399   -0.4151    0.3345 H   0  0  0  0  0  0  0  0  0  0  0  0
   -0.0115   -0.3104    0.4382 C   0  0  1  0  0  0  0  0  0  0  0  0
    0.7064   -0.7942    1.1071 H   0  0  0  0  0  0  0  0  0  0  0  0
    0.4914   -0.3862   -1.0405 C   0  0  1  0  0  0  0  0  0  0  0  0
   -0.3706   -0.4288   -1.7155 H   0  0  0  0  0  0  0  0  0  0  0  0
    1.2933    0.8756   -1.4387 C   0  0  0  0  0  0  0  0  0  0  0  0
    2.1742    0.9926   -0.7997 H   0  0  0  0  0  0  0  0  0  0  0  0
    1.6189    0.8213   -2.4811 H   0  0  0  0  0  0  0  0  0  0  0  0
    0.6767    1.7757   -1.3576 H   0  0  0  0  0  0  0  0  0  0  0  0
    1.3282   -1.6892   -1.2256 C   0  0  0  0  0  0  0  0  0  0  0  0
    1.8049   -1.9652   -0.2801 H   0  0  0  0  0  0  0  0  0  0  0  0
    0.6387   -2.5005   -1.4813 H   0  0  0  0  0  0  0  0  0  0  0  0
    2.4473   -1.6458   -2.2732 C   0  0  0  0  0  0  0  0  0  0  0  0
    3.2271   -0.9328   -1.9897 H   0  0  0  0  0  0  0  0  0  0  0  0
    2.9093   -2.6339   -2.3601 H   0  0  0  0  0  0  0  0  0  0  0  0
    2.0454   -1.3688   -3.2527 H   0  0  0  0  0  0  0  0  0  0  0  0
   -0.1983    1.1222    0.9877 C   0  0  0  0  0  0  0  0  0  0  0  0
   -1.2028    1.7656    0.7009 O   0  0  0  0  0  0  0  0  0  0  0  0
    0.7158    1.6583    1.8763 N   0  0  0  0  0  0  0  0  0  0  0  0
    1.5100    1.0824    2.1404 H   0  0  0  0  0  0  0  0  0  0  0  0
    0.5613    2.9724    2.4877 C   0  0  0  0  0  0  0  0  0  0  0  0
   -0.3761    3.0250    3.0515 H   0  0  0  0  0  0  0  0  0  0  0  0
    1.3891    3.1692    3.1756 H   0  0  0  0  0  0  0  0  0  0  0  0
    0.5558    3.7536    1.7203 H   0  0  0  0  0  0  0  0  0  0  0  0
  1  2  1  0  0  0  0
  2  3  1  0  0  0  0
  2  4  1  0  0  0  0
  2  5  1  0  0  0  0
  5  6  2  0  0  0  0
  5  7  1  0  0  0  0
  7  8  1  0  0  0  0
  7  9  1  0  0  0  0
  9 10  1  0  0  0  0
  9 11  1  0  0  0  0
  9 24  1  0  0  0  0
 11 12  1  0  0  0  0
 11 13  1  0  0  0  0
 11 17  1  0  0  0  0
 13 14  1  0  0  0  0
 13 15  1  0  0  0  0
 13 16  1  0  0  0  0
 17 18  1  0  0  0  0
 17 19  1  0  0  0  0
 17 20  1  0  0  0  0
 20 21  1  0  0  0  0
 20 22  1  0  0  0  0
 20 23  1  0  0  0  0
 24 25  2  0  0  0  0
 24 26  1  0  0  0  0
 26 27  1  0  0  0  0
 26 28  1  0  0  0  0
 28 29  1  0  0  0  0
 28 30  1  0  0  0  0
 28 31  1  0  0  0  0
M  END
$$$$

  -OEChem-03222214053D

 31 30  0     1  0  0  0  0  0999 V2000
   -2.9085   -3.8378    1.4730 H   0  0  0  0  0  0  0  0  0  0  0  0
   -2.9273   -2.8189    1.0760 C   0  0  0  0  0  0  0  0  0  0  0  0
   -3.5240   -2.1917    1.7428 H   0  0  0  0  0  0  0  0  0  0  0  0
   -3.3934   -2.8341    0.0878 H   0  0  0  0  0  0  0  0  0  0  0  0
   -1.5163   -2.2710    0.9737 C   0  0  0  0  0  0  0  0  0  0  0  0
   -0.5678   -2.9588    1.3174 O   0  0  0  0  0  0  0  0  0  0  0  0
   -1.3139   -0.9887    0.5095 N   0  0  0  0  0  0  0  0  0  0  0  0
   -2.1377   -0.4150    0.3337 H   0  0  0  0  0  0  0  0  0  0  0  0
   -0.0097   -0.3117    0.4458 C   0  0  1  0  0  0  0  0  0  0  0  0
    0.7069   -0.7927    1.1183 H   0  0  0  0  0  0  0  0  0  0  0  0
    0.5016   -0.3865   -1.0308 C   0  0  1  0  0  0  0  0  0  0  0  0
   -0.3647   -0.4426   -1.6995 H   0  0  0  0  0  0  0  0  0  0  0  0
    1.2705    0.8899   -1.4472 C   0  0  0  0  0  0  0  0  0  0  0  0
    2.1387    1.0514   -0.8007 H   0  0  0  0  0  0  0  0  0  0  0  0
    1.6097    0.8211   -2.4844 H   0  0  0  0  0  0  0  0  0  0  0  0
    0.6243    1.7712   -1.3925 H   0  0  0  0  0  0  0  0  0  0  0  0
    1.3437   -1.6883   -1.2278 C   0  0  0  0  0  0  0  0  0  0  0  0
    1.5856   -2.1338   -0.2586 H   0  0  0  0  0  0  0  0  0  0  0  0
    0.7157   -2.4156   -1.7524 H   0  0  0  0  0  0  0  0  0  0  0  0
    2.6696   -1.5604   -1.9890 C   0  0  0  0  0  0  0  0  0  0  0  0
    3.3555   -0.8813   -1.4739 H   0  0  0  0  0  0  0  0  0  0  0  0
    3.1511   -2.5408   -2.0553 H   0  0  0  0  0  0  0  0  0  0  0  0
    2.4998   -1.1982   -3.0073 H   0  0  0  0  0  0  0  0  0  0  0  0
   -0.1966    1.1222    0.9917 C   0  0  0  0  0  0  0  0  0  0  0  0
   -1.2012    1.7651    0.7043 O   0  0  0  0  0  0  0  0  0  0  0  0
    0.7160    1.6580    1.8819 N   0  0  0  0  0  0  0  0  0  0  0  0
    1.5098    1.0817    2.1463 H   0  0  0  0  0  0  0  0  0  0  0  0
    0.5611    2.9719    2.4936 C   0  0  0  0  0  0  0  0  0  0  0  0
   -0.3747    3.0233    3.0600 H   0  0  0  0  0  0  0  0  0  0  0  0
    1.3905    3.1702    3.1791 H   0  0  0  0  0  0  0  0  0  0  0  0
    0.5522    3.7528    1.7260 H   0  0  0  0  0  0  0  0  0  0  0  0
  1  2  1  0  0  0  0
  2  3  1  0  0  0  0
  2  4  1  0  0  0  0
  2  5  1  0  0  0  0
  5  6  2  0  0  0  0
  5  7  1  0  0  0  0
  7  8  1  0  0  0  0
  7  9  1  0  0  0  0
  9 10  1  0  0  0  0
  9 11  1  0  0  0  0
  9 24  1  0  0  0  0
 11 12  1  0  0  0  0
 11 13  1  0  0  0  0
 11 17  1  0  0  0  0
 13 14  1  0  0  0  0
 13 15  1  0  0  0  0
 13 16  1  0  0  0  0
 17 18  1  0  0  0  0
 17 19  1  0  0  0  0
 17 20  1  0  0  0  0
 20 21  1  0  0  0  0
 20 22  1  0  0  0  0
 20 23  1  0  0  0  0
 24 25  2  0  0  0  0
 24 26  1  0  0  0  0
 26 27  1  0  0  0  0
 26 28  1  0  0  0  0
 28 29  1  0  0  0  0
 28 30  1  0  0  0  0
 28 31  1  0  0  0  0
M  END
$$$$

  -OEChem-03222214053D

 31 30  0     1  0  0  0  0  0999 V2000
   -2.9286   -3.8378    1.4717 H   0  0  0  0  0  0  0  0  0  0  0  0
   -2.9390   -2.8199    1.0720 C   0  0  0  0  0  0  0  0  0  0  0  0
   -3.5475   -2.1911    1.7265 H   0  0  0  0  0  0  0  0  0  0  0  0
   -3.3865   -2.8373    0.0753 H   0  0  0  0  0  0  0  0  0  0  0  0
   -1.5257   -2.2735    0.9948 C   0  0  0  0  0  0  0  0  0  0  0  0
   -0.5873   -2.9567    1.3729 O   0  0  0  0  0  0  0  0  0  0  0  0
   -1.3129   -0.9948    0.5247 N   0  0  0  0  0  0  0  0  0  0  0  0
   -2.1335   -0.4239    0.3263 H   0  0  0  0  0  0  0  0  0  0  0  0
   -0.0068   -0.3201    0.4573 C   0  0  1  0  0  0  0  0  0  0  0  0
    0.7129   -0.8039    1.1252 H   0  0  0  0  0  0  0  0  0  0  0  0
    0.5112   -0.3868   -1.0164 C   0  0  1  0  0  0  0  0  0  0  0  0
   -0.3631   -0.4589   -1.6732 H   0  0  0  0  0  0  0  0  0  0  0  0
    1.2535    0.8946   -1.4600 C   0  0  0  0  0  0  0  0  0  0  0  0
    2.1127    1.0975   -0.8135 H   0  0  0  0  0  0  0  0  0  0  0  0
    1.6010    0.8005   -2.4926 H   0  0  0  0  0  0  0  0  0  0  0  0
    0.5850    1.7607   -1.4320 H   0  0  0  0  0  0  0  0  0  0  0  0
    1.3554   -1.6841   -1.2236 C   0  0  0  0  0  0  0  0  0  0  0  0
    1.3508   -2.2904   -0.3135 H   0  0  0  0  0  0  0  0  0  0  0  0
    0.8583   -2.2834   -1.9932 H   0  0  0  0  0  0  0  0  0  0  0  0
    2.8190   -1.5078   -1.6494 C   0  0  0  0  0  0  0  0  0  0  0  0
    3.3671   -0.9080   -0.9167 H   0  0  0  0  0  0  0  0  0  0  0  0
    3.3024   -2.4874   -1.7160 H   0  0  0  0  0  0  0  0  0  0  0  0
    2.8909   -1.0318   -2.6314 H   0  0  0  0  0  0  0  0  0  0  0  0
   -0.1914    1.1169    0.9956 C   0  0  0  0  0  0  0  0  0  0  0  0
   -1.1940    1.7607    0.7026 O   0  0  0  0  0  0  0  0  0  0  0  0
    0.7218    1.6564    1.8830 N   0  0  0  0  0  0  0  0  0  0  0  0
    1.5124    1.0788    2.1542 H   0  0  0  0  0  0  0  0  0  0  0  0
    0.5677    2.9733    2.4890 C   0  0  0  0  0  0  0  0  0  0  0  0
   -0.3667    3.0268    3.0577 H   0  0  0  0  0  0  0  0  0  0  0  0
    1.3991    3.1754    3.1710 H   0  0  0  0  0  0  0  0  0  0  0  0
    0.5558    3.7509    1.7181 H   0  0  0  0  0  0  0  0  0  0  0  0
  1  2  1  0  0  0  0
  2  3  1  0  0  0  0
  2  4  1  0  0  0  0
  2  5  1  0  0  0  0
  5  6  2  0  0  0  0
  5  7  1  0  0  0  0
  7  8  1  0  0  0  0
  7  9  1  0  0  0  0
  9 10  1  0  0  0  0
  9 11  1  0  0  0  0
  9 24  1  0  0  0  0
 11 12  1  0  0  0  0
 11 13  1  0  0  0  0
 11 17  1  0  0  0  0
 13 14  1  0  0  0  0
 13 15  1  0  0  0  0
 13 16  1  0  0  0  0
 17 18  1  0  0  0  0
 17 19  1  0  0  0  0
 17 20  1  0  0  0  0
 20 21  1  0  0  0  0
 20 22  1  0  0  0  0
 20 23  1  0  0  0  0
 24 25  2  0  0  0  0
 24 26  1  0  0  0  0
 26 27  1  0  0  0  0
 26 28  1  0  0  0  0
 28 29  1  0  0  0  0
 28 30  1  0  0  0  0
 28 31  1  0  0  0  0
M  END
$$$$

  -OEChem-03222214053D

 31 30  0     1  0  0  0  0  0999 V2000
   -2.9489   -3.8417    1.4750 H   0  0  0  0  0  0  0  0  0  0  0  0
   -2.9520   -2.8259    1.0700 C   0  0  0  0  0  0  0  0  0  0  0  0
   -3.5687   -2.1924    1.7122 H   0  0  0  0  0  0  0  0  0  0  0  0
   -3.3850   -2.8478    0.0670 H   0  0  0  0  0  0  0  0  0  0  0  0
   -1.5371   -2.2819    1.0106 C   0  0  0  0  0  0  0  0  0  0  0  0
   -0.6060   -2.9612    1.4129 O   0  0  0  0  0  0  0  0  0  0  0  0
   -1.3184   -1.0059    0.5363 N   0  0  0  0  0  0  0  0  0  0  0  0
   -2.1372   -0.4389    0.3205 H   0  0  0  0  0  0  0  0  0  0  0  0
   -0.0120   -0.3317    0.4649 C   0  0  1  0  0  0  0  0  0  0  0  0
    0.7096   -0.8214    1.1271 H   0  0  0  0  0  0  0  0  0  0  0  0
    0.5120   -0.3892   -1.0049 C   0  0  1  0  0  0  0  0  0  0  0  0
   -0.3649   -0.4692   -1.6572 H   0  0  0  0  0  0  0  0  0  0  0  0
    1.2502    0.8887   -1.4605 C   0  0  0  0  0  0  0  0  0  0  0  0
    2.0895    1.1207   -0.7977 H   0  0  0  0  0  0  0  0  0  0  0  0
    1.6285    0.7667   -2.4799 H   0  0  0  0  0  0  0  0  0  0  0  0
    0.5692    1.7454   -1.4714 H   0  0  0  0  0  0  0  0  0  0  0  0
    1.3577   -1.6785   -1.2180 C   0  0  0  0  0  0  0  0  0  0  0  0
    1.1339   -2.4115   -0.4382 H   0  0  0  0  0  0  0  0  0  0  0  0
    1.0471   -2.1295   -2.1660 H   0  0  0  0  0  0  0  0  0  0  0  0
    2.8788   -1.4880   -1.2805 C   0  0  0  0  0  0  0  0  0  0  0  0
    3.2395   -0.9840   -0.3788 H   0  0  0  0  0  0  0  0  0  0  0  0
    3.3698   -2.4636   -1.3473 H   0  0  0  0  0  0  0  0  0  0  0  0
    3.1712   -0.9048   -2.1584 H   0  0  0  0  0  0  0  0  0  0  0  0
   -0.1912    1.1075    0.9973 C   0  0  0  0  0  0  0  0  0  0  0  0
   -1.1888    1.7561    0.6983 O   0  0  0  0  0  0  0  0  0  0  0  0
    0.7264    1.6466    1.8803 N   0  0  0  0  0  0  0  0  0  0  0  0
    1.5135    1.0655    2.1539 H   0  0  0  0  0  0  0  0  0  0  0  0
    0.5861    2.9713    2.4718 C   0  0  0  0  0  0  0  0  0  0  0  0
   -0.3445    3.0388    3.0450 H   0  0  0  0  0  0  0  0  0  0  0  0
    1.4230    3.1745    3.1468 H   0  0  0  0  0  0  0  0  0  0  0  0
    0.5765    3.7400    1.6919 H   0  0  0  0  0  0  0  0  0  0  0  0
  1  2  1  0  0  0  0
  2  3  1  0  0  0  0
  2  4  1  0  0  0  0
  2  5  1  0  0  0  0
  5  6  2  0  0  0  0
  5  7  1  0  0  0  0
  7  8  1  0  0  0  0
  7  9  1  0  0  0  0
  9 10  1  0  0  0  0
  9 11  1  0  0  0  0
  9 24  1  0  0  0  0
 11 12  1  0  0  0  0
 11 13  1  0  0  0  0
 11 17  1  0  0  0  0
 13 14  1  0  0  0  0
 13 15  1  0  0  0  0
 13 16  1  0  0  0  0
 17 18  1  0  0  0  0
 17 19  1  0  0  0  0
 17 20  1  0  0  0  0
 20 21  1  0  0  0  0
 20 22  1  0  0  0  0
 20 23  1  0  0  0  0
 24 25  2  0  0  0  0
 24 26  1  0  0  0  0
 26 27  1  0  0  0  0
 26 28  1  0  0  0  0
 28 29  1  0  0  0  0
 28 30  1  0  0  0  0
 28 31  1  0  0  0  0
M  END
$$$$

  -OEChem-03222214053D

 31 30  0     1  0  0  0  0  0999 V2000
   -2.9493   -3.8456    1.4846 H   0  0  0  0  0  0  0  0  0  0  0  0
   -2.9537   -2.8307    1.0774 C   0  0  0  0  0  0  0  0  0  0  0  0
   -3.5720   -2.1967    1.7176 H   0  0  0  0  0  0  0  0  0  0  0  0
   -3.3854   -2.8554    0.0740 H   0  0  0  0  0  0  0  0  0  0  0  0
   -1.5396   -2.2846    1.0189 C   0  0  0  0  0  0  0  0  0  0  0  0
   -0.6083   -2.9599    1.4278 O   0  0  0  0  0  0  0  0  0  0  0  0
   -1.3218   -1.0100    0.5401 N   0  0  0  0  0  0  0  0  0  0  0  0
   -2.1404   -0.4463    0.3155 H   0  0  0  0  0  0  0  0  0  0  0  0
   -0.0150   -0.3368    0.4675 C   0  0  1  0  0  0  0  0  0  0  0  0
    0.7072   -0.8294    1.1267 H   0  0  0  0  0  0  0  0  0  0  0  0
    0.5062   -0.3913   -1.0018 C   0  0  1  0  0  0  0  0  0  0  0  0
   -0.3693   -0.4619   -1.6570 H   0  0  0  0  0  0  0  0  0  0  0  0
    1.2713    0.8715   -1.4506 C   0  0  0  0  0  0  0  0  0  0  0  0
    2.0866    1.1089   -0.7603 H   0  0  0  0  0  0  0  0  0  0  0  0
    1.6911    0.7244   -2.4506 H   0  0  0  0  0  0  0  0  0  0  0  0
    0.5977    1.7328   -1.5010 H   0  0  0  0  0  0  0  0  0  0  0  0
    1.3482   -1.6753   -1.2214 C   0  0  0  0  0  0  0  0  0  0  0  0
    0.9454   -2.4929   -0.6174 H   0  0  0  0  0  0  0  0  0  0  0  0
    1.2430   -1.9771   -2.2686 H   0  0  0  0  0  0  0  0  0  0  0  0
    2.8473   -1.5323   -0.9289 C   0  0  0  0  0  0  0  0  0  0  0  0
    3.0059   -1.1526    0.0850 H   0  0  0  0  0  0  0  0  0  0  0  0
    3.3340   -2.5089   -1.0106 H   0  0  0  0  0  0  0  0  0  0  0  0
    3.3285   -0.8558   -1.6411 H   0  0  0  0  0  0  0  0  0  0  0  0
   -0.1922    1.1044    0.9946 C   0  0  0  0  0  0  0  0  0  0  0  0
   -1.1858    1.7554    0.6874 O   0  0  0  0  0  0  0  0  0  0  0  0
    0.7253    1.6456    1.8762 N   0  0  0  0  0  0  0  0  0  0  0  0
    1.5086    1.0627    2.1566 H   0  0  0  0  0  0  0  0  0  0  0  0
    0.5856    2.9727    2.4624 C   0  0  0  0  0  0  0  0  0  0  0  0
   -0.3463    3.0437    3.0332 H   0  0  0  0  0  0  0  0  0  0  0  0
    1.4213    3.1774    3.1386 H   0  0  0  0  0  0  0  0  0  0  0  0
    0.5788    3.7383    1.6794 H   0  0  0  0  0  0  0  0  0  0  0  0
  1  2  1  0  0  0  0
  2  3  1  0  0  0  0
  2  4  1  0  0  0  0
  2  5  1  0  0  0  0
  5  6  2  0  0  0  0
  5  7  1  0  0  0  0
  7  8  1  0  0  0  0
  7  9  1  0  0  0  0
  9 10  1  0  0  0  0
  9 11  1  0  0  0  0
  9 24  1  0  0  0  0
 11 12  1  0  0  0  0
 11 13  1  0  0  0  0
 11 17  1  0  0  0  0
 13 14  1  0  0  0  0
 13 15  1  0  0  0  0
 13 16  1  0  0  0  0
 17 18  1  0  0  0  0
 17 19  1  0  0  0  0
 17 20  1  0  0  0  0
 20 21  1  0  0  0  0
 20 22  1  0  0  0  0
 20 23  1  0  0  0  0
 24 25  2  0  0  0  0
 24 26  1  0  0  0  0
 26 27  1  0  0  0  0
 26 28  1  0  0  0  0
 28 29  1  0  0  0  0
 28 30  1  0  0  0  0
 28 31  1  0  0  0  0
M  END
$$$$

  -OEChem-03222214053D

 31 30  0     1  0  0  0  0  0999 V2000
   -2.9438   -3.8455    1.4969 H   0  0  0  0  0  0  0  0  0  0  0  0
   -2.9520   -2.8308    1.0891 C   0  0  0  0  0  0  0  0  0  0  0  0
   -3.5688   -2.1973    1.7312 H   0  0  0  0  0  0  0  0  0  0  0  0
   -3.3884   -2.8571    0.0878 H   0  0  0  0  0  0  0  0  0  0  0  0
   -1.5394   -2.2818    1.0232 C   0  0  0  0  0  0  0  0  0  0  0  0
   -0.6027   -2.9586    1.4177 O   0  0  0  0  0  0  0  0  0  0  0  0
   -1.3255   -1.0080    0.5408 N   0  0  0  0  0  0  0  0  0  0  0  0
   -2.1453   -0.4413    0.3279 H   0  0  0  0  0  0  0  0  0  0  0  0
   -0.0192   -0.3342    0.4745 C   0  0  1  0  0  0  0  0  0  0  0  0
    0.6937   -0.8242    1.1431 H   0  0  0  0  0  0  0  0  0  0  0  0
    0.5009   -0.3978   -0.9947 C   0  0  1  0  0  0  0  0  0  0  0  0
   -0.3702   -0.4516   -1.6571 H   0  0  0  0  0  0  0  0  0  0  0  0
    1.2997    0.8481   -1.4289 C   0  0  0  0  0  0  0  0  0  0  0  0
    2.1014    1.0732   -0.7190 H   0  0  0  0  0  0  0  0  0  0  0  0
    1.7439    0.6884   -2.4165 H   0  0  0  0  0  0  0  0  0  0  0  0
    0.6430    1.7212   -1.4990 H   0  0  0  0  0  0  0  0  0  0  0  0
    1.3437   -1.6754   -1.2301 C   0  0  0  0  0  0  0  0  0  0  0  0
    0.8041   -2.5401   -0.8323 H   0  0  0  0  0  0  0  0  0  0  0  0
    1.4419   -1.8313   -2.3093 H   0  0  0  0  0  0  0  0  0  0  0  0
    2.7546   -1.6540   -0.6247 C   0  0  0  0  0  0  0  0  0  0  0  0
    2.7199   -1.4682    0.4519 H   0  0  0  0  0  0  0  0  0  0  0  0
    3.2371   -2.6226   -0.7872 H   0  0  0  0  0  0  0  0  0  0  0  0
    3.3742   -0.8858   -1.0958 H   0  0  0  0  0  0  0  0  0  0  0  0
   -0.1994    1.1090    0.9953 C   0  0  0  0  0  0  0  0  0  0  0  0
   -1.1906    1.7582    0.6772 O   0  0  0  0  0  0  0  0  0  0  0  0
    0.7108    1.6566    1.8809 N   0  0  0  0  0  0  0  0  0  0  0  0
    1.4941    1.0777    2.1699 H   0  0  0  0  0  0  0  0  0  0  0  0
    0.5659    2.9893    2.4538 C   0  0  0  0  0  0  0  0  0  0  0  0
   -0.3791    3.0708    3.0012 H   0  0  0  0  0  0  0  0  0  0  0  0
    1.3856    3.1947    3.1490 H   0  0  0  0  0  0  0  0  0  0  0  0
    0.5829    3.7483    1.6646 H   0  0  0  0  0  0  0  0  0  0  0  0
  1  2  1  0  0  0  0
  2  3  1  0  0  0  0
  2  4  1  0  0  0  0
  2  5  1  0  0  0  0
  5  6  2  0  0  0  0
  5  7  1  0  0  0  0
  7  8  1  0  0  0  0
  7  9  1  0  0  0  0
  9 10  1  0  0  0  0
  9 11  1  0  0  0  0
  9 24  1  0  0  0  0
 11 12  1  0  0  0  0
 11 13  1  0  0  0  0
 11 17  1  0  0  0  0
 13 14  1  0  0  0  0
 13 15  1  0  0  0  0
 13 16  1  0  0  0  0
 17 18  1  0  0  0  0
 17 19  1  0  0  0  0
 17 20  1  0  0  0  0
 20 21  1  0  0  0  0
 20 22  1  0  0  0  0
 20 23  1  0  0  0  0
 24 25  2  0  0  0  0
 24 26  1  0  0  0  0
 26 27  1  0  0  0  0
 26 28  1  0  0  0  0
 28 29  1  0  0  0  0
 28 30  1  0  0  0  0
 28 31  1  0  0  0  0
M  END
$$$$

  -OEChem-03222214053D

 31 30  0     1  0  0  0  0  0999 V2000
   -2.9443   -3.8301    1.5284 H   0  0  0  0  0  0  0  0  0  0  0  0
   -2.9568   -2.8186    1.1130 C   0  0  0  0  0  0  0  0  0  0  0  0
   -3.5653   -2.1800    1.7579 H   0  0  0  0  0  0  0  0  0  0  0  0
   -3.4052   -2.8519    0.1172 H   0  0  0  0  0  0  0  0  0  0  0  0
   -1.5446   -2.2717    1.0258 C   0  0  0  0  0  0  0  0  0  0  0  0
   -0.6027   -2.9503    1.4048 O   0  0  0  0  0  0  0  0  0  0  0  0
   -1.3337   -1.0004    0.5357 N   0  0  0  0  0  0  0  0  0  0  0  0
   -2.1535   -0.4317    0.3285 H   0  0  0  0  0  0  0  0  0  0  0  0
   -0.0279   -0.3262    0.4803 C   0  0  1  0  0  0  0  0  0  0  0  0
    0.6718   -0.8014    1.1694 H   0  0  0  0  0  0  0  0  0  0  0  0
    0.5003   -0.4092   -0.9855 C   0  0  1  0  0  0  0  0  0  0  0  0
   -0.3621   -0.4437   -1.6606 H   0  0  0  0  0  0  0  0  0  0  0  0
    1.3323    0.8230   -1.3977 C   0  0  0  0  0  0  0  0  0  0  0  0
    2.1304    1.0220   -0.6765 H   0  0  0  0  0  0  0  0  0  0  0  0
    1.7861    0.6665   -2.3813 H   0  0  0  0  0  0  0  0  0  0  0  0
    0.6966    1.7114   -1.4666 H   0  0  0  0  0  0  0  0  0  0  0  0
    1.3488   -1.6818   -1.2377 C   0  0  0  0  0  0  0  0  0  0  0  0
    0.7137   -2.5590   -1.0765 H   0  0  0  0  0  0  0  0  0  0  0  0
    1.6491   -1.6969   -2.2904 H   0  0  0  0  0  0  0  0  0  0  0  0
    2.6107   -1.8423   -0.3756 C   0  0  0  0  0  0  0  0  0  0  0  0
    2.3625   -1.9862    0.6787 H   0  0  0  0  0  0  0  0  0  0  0  0
    3.1668   -2.7244   -0.7071 H   0  0  0  0  0  0  0  0  0  0  0  0
    3.2674   -0.9735   -0.4705 H   0  0  0  0  0  0  0  0  0  0  0  0
   -0.2170    1.1201    0.9886 C   0  0  0  0  0  0  0  0  0  0  0  0
   -1.2069    1.7649    0.6578 O   0  0  0  0  0  0  0  0  0  0  0  0
    0.6831    1.6726    1.8813 N   0  0  0  0  0  0  0  0  0  0  0  0
    1.4680    1.0981    2.1746 H   0  0  0  0  0  0  0  0  0  0  0  0
    0.5386    3.0113    2.4392 C   0  0  0  0  0  0  0  0  0  0  0  0
   -0.4092    3.1018    2.9801 H   0  0  0  0  0  0  0  0  0  0  0  0
    1.3552    3.2199    3.1369 H   0  0  0  0  0  0  0  0  0  0  0  0
    0.5633    3.7623    1.6426 H   0  0  0  0  0  0  0  0  0  0  0  0
  1  2  1  0  0  0  0
  2  3  1  0  0  0  0
  2  4  1  0  0  0  0
  2  5  1  0  0  0  0
  5  6  2  0  0  0  0
  5  7  1  0  0  0  0
  7  8  1  0  0  0  0
  7  9  1  0  0  0  0
  9 10  1  0  0  0  0
  9 11  1  0  0  0  0
  9 24  1  0  0  0  0
 11 12  1  0  0  0  0
 11 13  1  0  0  0  0
 11 17  1  0  0  0  0
 13 14  1  0  0  0  0
 13 15  1  0  0  0  0
 13 16  1  0  0  0  0
 17 18  1  0  0  0  0
 17 19  1  0  0  0  0
 17 20  1  0  0  0  0
 20 21  1  0  0  0  0
 20 22  1  0  0  0  0
 20 23  1  0  0  0  0
 24 25  2  0  0  0  0
 24 26  1  0  0  0  0
 26 27  1  0  0  0  0
 26 28  1  0  0  0  0
 28 29  1  0  0  0  0
 28 30  1  0  0  0  0
 28 31  1  0  0  0  0
M  END
$$$$

  -OEChem-03222214053D

 31 30  0     1  0  0  0  0  0999 V2000
   -2.9676   -3.8101    1.5456 H   0  0  0  0  0  0  0  0  0  0  0  0
   -2.9697   -2.8009    1.1245 C   0  0  0  0  0  0  0  0  0  0  0  0
   -3.5825   -2.1555    1.7586 H   0  0  0  0  0  0  0  0  0  0  0  0
   -3.4064   -2.8376    0.1236 H   0  0  0  0  0  0  0  0  0  0  0  0
   -1.5536   -2.2616    1.0506 C   0  0  0  0  0  0  0  0  0  0  0  0
   -0.6211   -2.9407    1.4498 O   0  0  0  0  0  0  0  0  0  0  0  0
   -1.3317   -0.9967    0.5497 N   0  0  0  0  0  0  0  0  0  0  0  0
   -2.1481   -0.4289    0.3264 H   0  0  0  0  0  0  0  0  0  0  0  0
   -0.0244   -0.3253    0.4944 C   0  0  1  0  0  0  0  0  0  0  0  0
    0.6732   -0.7864    1.1950 H   0  0  0  0  0  0  0  0  0  0  0  0
    0.5000   -0.4245   -0.9749 C   0  0  1  0  0  0  0  0  0  0  0  0
   -0.3595   -0.4353   -1.6544 H   0  0  0  0  0  0  0  0  0  0  0  0
    1.3619    0.7954   -1.3679 C   0  0  0  0  0  0  0  0  0  0  0  0
    2.1823    0.9411   -0.6586 H   0  0  0  0  0  0  0  0  0  0  0  0
    1.7898    0.6614   -2.3662 H   0  0  0  0  0  0  0  0  0  0  0  0
    0.7568    1.7069   -1.3971 H   0  0  0  0  0  0  0  0  0  0  0  0
    1.3497   -1.6945   -1.2535 C   0  0  0  0  0  0  0  0  0  0  0  0
    0.6659   -2.5460   -1.3326 H   0  0  0  0  0  0  0  0  0  0  0  0
    1.8404   -1.5945   -2.2270 H   0  0  0  0  0  0  0  0  0  0  0  0
    2.4111   -2.0562   -0.2056 C   0  0  0  0  0  0  0  0  0  0  0  0
    1.9532   -2.4367    0.7112 H   0  0  0  0  0  0  0  0  0  0  0  0
    3.0609   -2.8431   -0.6001 H   0  0  0  0  0  0  0  0  0  0  0  0
    3.0312   -1.1889    0.0374 H   0  0  0  0  0  0  0  0  0  0  0  0
   -0.2221    1.1257    0.9877 C   0  0  0  0  0  0  0  0  0  0  0  0
   -1.2106    1.7650    0.6422 O   0  0  0  0  0  0  0  0  0  0  0  0
    0.6689    1.6912    1.8815 N   0  0  0  0  0  0  0  0  0  0  0  0
    1.4520    1.1220    2.1897 H   0  0  0  0  0  0  0  0  0  0  0  0
    0.5106    3.0331    2.4284 C   0  0  0  0  0  0  0  0  0  0  0  0
   -0.4411    3.1196    2.9633 H   0  0  0  0  0  0  0  0  0  0  0  0
    1.3216    3.2543    3.1288 H   0  0  0  0  0  0  0  0  0  0  0  0
    0.5329    3.7784    1.6264 H   0  0  0  0  0  0  0  0  0  0  0  0
  1  2  1  0  0  0  0
  2  3  1  0  0  0  0
  2  4  1  0  0  0  0
  2  5  1  0  0  0  0
  5  6  2  0  0  0  0
  5  7  1  0  0  0  0
  7  8  1  0  0  0  0
  7  9  1  0  0  0  0
  9 10  1  0  0  0  0
  9 11  1  0  0  0  0
  9 24  1  0  0  0  0
 11 12  1  0  0  0  0
 11 13  1  0  0  0  0
 11 17  1  0  0  0  0
 13 14  1  0  0  0  0
 13 15  1  0  0  0  0
 13 16  1  0  0  0  0
 17 18  1  0  0  0  0
 17 19  1  0  0  0  0
 17 20  1  0  0  0  0
 20 21  1  0  0  0  0
 20 22  1  0  0  0  0
 20 23  1  0  0  0  0
 24 25  2  0  0  0  0
 24 26  1  0  0  0  0
 26 27  1  0  0  0  0
 26 28  1  0  0  0  0
 28 29  1  0  0  0  0
 28 30  1  0  0  0  0
 28 31  1  0  0  0  0
M  END
$$$$

  -OEChem-03222214053D

 31 30  0     1  0  0  0  0  0999 V2000
   -3.0307   -3.7873    1.5408 H   0  0  0  0  0  0  0  0  0  0  0  0
   -2.9991   -2.7847    1.1052 C   0  0  0  0  0  0  0  0  0  0  0  0
   -3.6501   -2.1270    1.6863 H   0  0  0  0  0  0  0  0  0  0  0  0
   -3.3673   -2.8359    0.0777 H   0  0  0  0  0  0  0  0  0  0  0  0
   -1.5789   -2.2516    1.1202 C   0  0  0  0  0  0  0  0  0  0  0  0
   -0.6923   -2.9075    1.6398 O   0  0  0  0  0  0  0  0  0  0  0  0
   -1.3195   -1.0015    0.6011 N   0  0  0  0  0  0  0  0  0  0  0  0
   -2.1215   -0.4521    0.2956 H   0  0  0  0  0  0  0  0  0  0  0  0
   -0.0088   -0.3336    0.5339 C   0  0  1  0  0  0  0  0  0  0  0  0
    0.6955   -0.7845    1.2356 H   0  0  0  0  0  0  0  0  0  0  0  0
    0.5039   -0.4412   -0.9454 C   0  0  1  0  0  0  0  0  0  0  0  0
   -0.3630   -0.4339   -1.6154 H   0  0  0  0  0  0  0  0  0  0  0  0
    1.3721    0.7784   -1.3338 C   0  0  0  0  0  0  0  0  0  0  0  0
    2.2233    0.8801   -0.6530 H   0  0  0  0  0  0  0  0  0  0  0  0
    1.7558    0.6742   -2.3535 H   0  0  0  0  0  0  0  0  0  0  0  0
    0.7886    1.7039   -1.3123 H   0  0  0  0  0  0  0  0  0  0  0  0
    1.3578   -1.7022   -1.2765 C   0  0  0  0  0  0  0  0  0  0  0  0
    0.6658   -2.4865   -1.6005 H   0  0  0  0  0  0  0  0  0  0  0  0
    2.0170   -1.5009   -2.1271 H   0  0  0  0  0  0  0  0  0  0  0  0
    2.1991   -2.2986   -0.1426 C   0  0  0  0  0  0  0  0  0  0  0  0
    1.5752   -2.7399    0.6348 H   0  0  0  0  0  0  0  0  0  0  0  0
    2.8409   -3.0908   -0.5393 H   0  0  0  0  0  0  0  0  0  0  0  0
    2.8377   -1.5312    0.3048 H   0  0  0  0  0  0  0  0  0  0  0  0
   -0.2220    1.1246    1.0016 C   0  0  0  0  0  0  0  0  0  0  0  0
   -1.2070    1.7544    0.6289 O   0  0  0  0  0  0  0  0  0  0  0  0
    0.6593    1.7138    1.8896 N   0  0  0  0  0  0  0  0  0  0  0  0
    1.4333    1.1499    2.2286 H   0  0  0  0  0  0  0  0  0  0  0  0
    0.4820    3.0612    2.4166 C   0  0  0  0  0  0  0  0  0  0  0  0
   -0.4685    3.1406    2.9549 H   0  0  0  0  0  0  0  0  0  0  0  0
    1.2928    3.3067    3.1093 H   0  0  0  0  0  0  0  0  0  0  0  0
    0.4887    3.7938    1.6028 H   0  0  0  0  0  0  0  0  0  0  0  0
  1  2  1  0  0  0  0
  2  3  1  0  0  0  0
  2  4  1  0  0  0  0
  2  5  1  0  0  0  0
  5  6  2  0  0  0  0
  5  7  1  0  0  0  0
  7  8  1  0  0  0  0
  7  9  1  0  0  0  0
  9 10  1  0  0  0  0
  9 11  1  0  0  0  0
  9 24  1  0  0  0  0
 11 12  1  0  0  0  0
 11 13  1  0  0  0  0
 11 17  1  0  0  0  0
 13 14  1  0  0  0  0
 13 15  1  0  0  0  0
 13 16  1  0  0  0  0
 17 18  1  0  0  0  0
 17 19  1  0  0  0  0
 17 20  1  0  0  0  0
 20 21  1  0  0  0  0
 20 22  1  0  0  0  0
 20 23  1  0  0  0  0
 24 25  2  0  0  0  0
 24 26  1  0  0  0  0
 26 27  1  0  0  0  0
 26 28  1  0  0  0  0
 28 29  1  0  0  0  0
 28 30  1  0  0  0  0
 28 31  1  0  0  0  0
M  END
$$$$

  -OEChem-03222214053D

 31 30  0     1  0  0  0  0  0999 V2000
   -3.0597   -3.7832    1.5430 H   0  0  0  0  0  0  0  0  0  0  0  0
   -3.0115   -2.7920    1.0833 C   0  0  0  0  0  0  0  0  0  0  0  0
   -3.7198   -2.1324    1.5907 H   0  0  0  0  0  0  0  0  0  0  0  0
   -3.2934   -2.8782    0.0312 H   0  0  0  0  0  0  0  0  0  0  0  0
   -1.6074   -2.2295    1.1992 C   0  0  0  0  0  0  0  0  0  0  0  0
   -0.7719   -2.8233    1.8596 O   0  0  0  0  0  0  0  0  0  0  0  0
   -1.3248   -0.9956    0.6548 N   0  0  0  0  0  0  0  0  0  0  0  0
   -2.1071   -0.4791    0.2562 H   0  0  0  0  0  0  0  0  0  0  0  0
   -0.0061   -0.3431    0.5721 C   0  0  1  0  0  0  0  0  0  0  0  0
    0.7005   -0.7943    1.2721 H   0  0  0  0  0  0  0  0  0  0  0  0
    0.5091   -0.4455   -0.9122 C   0  0  1  0  0  0  0  0  0  0  0  0
   -0.3675   -0.4327   -1.5697 H   0  0  0  0  0  0  0  0  0  0  0  0
    1.3645    0.7814   -1.3127 C   0  0  0  0  0  0  0  0  0  0  0  0
    2.2271    0.8832   -0.6464 H   0  0  0  0  0  0  0  0  0  0  0  0
    1.7292    0.6818   -2.3401 H   0  0  0  0  0  0  0  0  0  0  0  0
    0.7802    1.7059   -1.2813 H   0  0  0  0  0  0  0  0  0  0  0  0
    1.3595   -1.7022   -1.2875 C   0  0  0  0  0  0  0  0  0  0  0  0
    0.7184   -2.3614   -1.8820 H   0  0  0  0  0  0  0  0  0  0  0  0
    2.1941   -1.4197   -1.9370 H   0  0  0  0  0  0  0  0  0  0  0  0
    1.9328   -2.5506   -0.1519 C   0  0  0  0  0  0  0  0  0  0  0  0
    1.1434   -3.0647    0.3920 H   0  0  0  0  0  0  0  0  0  0  0  0
    2.5982   -3.3147   -0.5648 H   0  0  0  0  0  0  0  0  0  0  0  0
    2.5127   -1.9340    0.5411 H   0  0  0  0  0  0  0  0  0  0  0  0
   -0.2182    1.1240    1.0132 C   0  0  0  0  0  0  0  0  0  0  0  0
   -1.1917    1.7567    0.6146 O   0  0  0  0  0  0  0  0  0  0  0  0
    0.6642    1.7258    1.8918 N   0  0  0  0  0  0  0  0  0  0  0  0
    1.4180    1.1558    2.2645 H   0  0  0  0  0  0  0  0  0  0  0  0
    0.4885    3.0823    2.3956 C   0  0  0  0  0  0  0  0  0  0  0  0
   -0.4574    3.1687    2.9406 H   0  0  0  0  0  0  0  0  0  0  0  0
    1.3051    3.3422    3.0761 H   0  0  0  0  0  0  0  0  0  0  0  0
    0.4861    3.8005    1.5688 H   0  0  0  0  0  0  0  0  0  0  0  0
  1  2  1  0  0  0  0
  2  3  1  0  0  0  0
  2  4  1  0  0  0  0
  2  5  1  0  0  0  0
  5  6  2  0  0  0  0
  5  7  1  0  0  0  0
  7  8  1  0  0  0  0
  7  9  1  0  0  0  0
  9 10  1  0  0  0  0
  9 11  1  0  0  0  0
  9 24  1  0  0  0  0
 11 12  1  0  0  0  0
 11 13  1  0  0  0  0
 11 17  1  0  0  0  0
 13 14  1  0  0  0  0
 13 15  1  0  0  0  0
 13 16  1  0  0  0  0
 17 18  1  0  0  0  0
 17 19  1  0  0  0  0
 17 20  1  0  0  0  0
 20 21  1  0  0  0  0
 20 22  1  0  0  0  0
 20 23  1  0  0  0  0
 24 25  2  0  0  0  0
 24 26  1  0  0  0  0
 26 27  1  0  0  0  0
 26 28  1  0  0  0  0
 28 29  1  0  0  0  0
 28 30  1  0  0  0  0
 28 31  1  0  0  0  0
M  END
$$$$

  -OEChem-03222214053D

 31 30  0     1  0  0  0  0  0999 V2000
   -3.0750   -3.7780    1.5646 H   0  0  0  0  0  0  0  0  0  0  0  0
   -3.0294   -2.7870    1.1042 C   0  0  0  0  0  0  0  0  0  0  0  0
   -3.7405   -2.1296    1.6104 H   0  0  0  0  0  0  0  0  0  0  0  0
   -3.3103   -2.8753    0.0520 H   0  0  0  0  0  0  0  0  0  0  0  0
   -1.6272   -2.2198    1.2212 C   0  0  0  0  0  0  0  0  0  0  0  0
   -0.7934   -2.7998    1.8974 O   0  0  0  0  0  0  0  0  0  0  0  0
   -1.3415   -0.9913    0.6661 N   0  0  0  0  0  0  0  0  0  0  0  0
   -2.1185   -0.4768    0.2551 H   0  0  0  0  0  0  0  0  0  0  0  0
   -0.0160   -0.3536    0.5808 C   0  0  1  0  0  0  0  0  0  0  0  0
    0.6864   -0.8045    1.2848 H   0  0  0  0  0  0  0  0  0  0  0  0
    0.5221   -0.4461   -0.8966 C   0  0  1  0  0  0  0  0  0  0  0  0
   -0.3590   -0.4471   -1.5480 H   0  0  0  0  0  0  0  0  0  0  0  0
    1.3551    0.7898   -1.3136 C   0  0  0  0  0  0  0  0  0  0  0  0
    2.2053    0.9288   -0.6383 H   0  0  0  0  0  0  0  0  0  0  0  0
    1.7375    0.6695   -2.3324 H   0  0  0  0  0  0  0  0  0  0  0  0
    0.7484    1.7003   -1.3124 H   0  0  0  0  0  0  0  0  0  0  0  0
    1.3712   -1.7006   -1.2873 C   0  0  0  0  0  0  0  0  0  0  0  0
    0.8754   -2.1888   -2.1326 H   0  0  0  0  0  0  0  0  0  0  0  0
    2.3553   -1.3818   -1.6465 H   0  0  0  0  0  0  0  0  0  0  0  0
    1.6375   -2.7702   -0.2292 C   0  0  0  0  0  0  0  0  0  0  0  0
    0.7168   -3.2980    0.0188 H   0  0  0  0  0  0  0  0  0  0  0  0
    2.3414   -3.5081   -0.6257 H   0  0  0  0  0  0  0  0  0  0  0  0
    2.0775   -2.3427    0.6755 H   0  0  0  0  0  0  0  0  0  0  0  0
   -0.2194    1.1177    1.0134 C   0  0  0  0  0  0  0  0  0  0  0  0
   -1.1879    1.7558    0.6110 O   0  0  0  0  0  0  0  0  0  0  0  0
    0.6662    1.7168    1.8907 N   0  0  0  0  0  0  0  0  0  0  0  0
    1.4188    1.1440    2.2617 H   0  0  0  0  0  0  0  0  0  0  0  0
    0.5076    3.0799    2.3821 C   0  0  0  0  0  0  0  0  0  0  0  0
   -0.4407    3.1863    2.9192 H   0  0  0  0  0  0  0  0  0  0  0  0
    1.3231    3.3322    3.0667 H   0  0  0  0  0  0  0  0  0  0  0  0
    0.5230    3.7912    1.5498 H   0  0  0  0  0  0  0  0  0  0  0  0
  1  2  1  0  0  0  0
  2  3  1  0  0  0  0
  2  4  1  0  0  0  0
  2  5  1  0  0  0  0
  5  6  2  0  0  0  0
  5  7  1  0  0  0  0
  7  8  1  0  0  0  0
  7  9  1  0  0  0  0
  9 10  1  0  0  0  0
  9 11  1  0  0  0  0
  9 24  1  0  0  0  0
 11 12  1  0  0  0  0
 11 13  1  0  0  0  0
 11 17  1  0  0  0  0
 13 14  1  0  0  0  0
 13 15  1  0  0  0  0
 13 16  1  0  0  0  0
 17 18  1  0  0  0  0
 17 19  1  0  0  0  0
 17 20  1  0  0  0  0
 20 21  1  0  0  0  0
 20 22  1  0  0  0  0
 20 23  1  0  0  0  0
 24 25  2  0  0  0  0
 24 26  1  0  0  0  0
 26 27  1  0  0  0  0
 26 28  1  0  0  0  0
 28 29  1  0  0  0  0
 28 30  1  0  0  0  0
 28 31  1  0  0  0  0
M  END
$$$$

  -OEChem-03222214053D

 31 30  0     1  0  0  0  0  0999 V2000
   -3.0927   -3.7711    1.5959 H   0  0  0  0  0  0  0  0  0  0  0  0
   -3.0443   -2.7797    1.1367 C   0  0  0  0  0  0  0  0  0  0  0  0
   -3.7380   -2.1151    1.6577 H   0  0  0  0  0  0  0  0  0  0  0  0
   -3.3455   -2.8622    0.0897 H   0  0  0  0  0  0  0  0  0  0  0  0
   -1.6336   -2.2290    1.2276 C   0  0  0  0  0  0  0  0  0  0  0  0
   -0.7900   -2.8273    1.8756 O   0  0  0  0  0  0  0  0  0  0  0  0
   -1.3454   -1.0012    0.6712 N   0  0  0  0  0  0  0  0  0  0  0  0
   -2.1248   -0.4757    0.2787 H   0  0  0  0  0  0  0  0  0  0  0  0
   -0.0176   -0.3691    0.5764 C   0  0  1  0  0  0  0  0  0  0  0  0
    0.6914   -0.8256    1.2713 H   0  0  0  0  0  0  0  0  0  0  0  0
    0.5245   -0.4467   -0.8989 C   0  0  1  0  0  0  0  0  0  0  0  0
   -0.3604   -0.4529   -1.5450 H   0  0  0  0  0  0  0  0  0  0  0  0
    1.3549    0.7877   -1.3194 C   0  0  0  0  0  0  0  0  0  0  0  0
    2.1892    0.9467   -0.6287 H   0  0  0  0  0  0  0  0  0  0  0  0
    1.7615    0.6500   -2.3267 H   0  0  0  0  0  0  0  0  0  0  0  0
    0.7386    1.6918   -1.3451 H   0  0  0  0  0  0  0  0  0  0  0  0
    1.3703   -1.6959   -1.2970 C   0  0  0  0  0  0  0  0  0  0  0  0
    1.0658   -2.0081   -2.3014 H   0  0  0  0  0  0  0  0  0  0  0  0
    2.4243   -1.4047   -1.3611 H   0  0  0  0  0  0  0  0  0  0  0  0
    1.3377   -2.9200   -0.3848 C   0  0  0  0  0  0  0  0  0  0  0  0
    0.3349   -3.3526   -0.3692 H   0  0  0  0  0  0  0  0  0  0  0  0
    2.0223   -3.6818   -0.7698 H   0  0  0  0  0  0  0  0  0  0  0  0
    1.6513   -2.6746    0.6330 H   0  0  0  0  0  0  0  0  0  0  0  0
   -0.2146    1.1022    1.0118 C   0  0  0  0  0  0  0  0  0  0  0  0
   -1.1838    1.7429    0.6151 O   0  0  0  0  0  0  0  0  0  0  0  0
    0.6775    1.6997    1.8834 N   0  0  0  0  0  0  0  0  0  0  0  0
    1.4348    1.1279    2.2462 H   0  0  0  0  0  0  0  0  0  0  0  0
    0.5269    3.0654    2.3699 C   0  0  0  0  0  0  0  0  0  0  0  0
   -0.4197    3.1786    2.9088 H   0  0  0  0  0  0  0  0  0  0  0  0
    1.3450    3.3165    3.0517 H   0  0  0  0  0  0  0  0  0  0  0  0
    0.5437    3.7733    1.5346 H   0  0  0  0  0  0  0  0  0  0  0  0
  1  2  1  0  0  0  0
  2  3  1  0  0  0  0
  2  4  1  0  0  0  0
  2  5  1  0  0  0  0
  5  6  2  0  0  0  0
  5  7  1  0  0  0  0
  7  8  1  0  0  0  0
  7  9  1  0  0  0  0
  9 10  1  0  0  0  0
  9 11  1  0  0  0  0
  9 24  1  0  0  0  0
 11 12  1  0  0  0  0
 11 13  1  0  0  0  0
 11 17  1  0  0  0  0
 13 14  1  0  0  0  0
 13 15  1  0  0  0  0
 13 16  1  0  0  0  0
 17 18  1  0  0  0  0
 17 19  1  0  0  0  0
 17 20  1  0  0  0  0
 20 21  1  0  0  0  0
 20 22  1  0  0  0  0
 20 23  1  0  0  0  0
 24 25  2  0  0  0  0
 24 26  1  0  0  0  0
 26 27  1  0  0  0  0
 26 28  1  0  0  0  0
 28 29  1  0  0  0  0
 28 30  1  0  0  0  0
 28 31  1  0  0  0  0
M  END
$$$$

  -OEChem-03222214053D

 31 30  0     1  0  0  0  0  0999 V2000
   -3.1049   -3.7727    1.6069 H   0  0  0  0  0  0  0  0  0  0  0  0
   -3.0488   -2.7867    1.1371 C   0  0  0  0  0  0  0  0  0  0  0  0
   -3.7396   -2.1121    1.6487 H   0  0  0  0  0  0  0  0  0  0  0  0
   -3.3473   -2.8783    0.0901 H   0  0  0  0  0  0  0  0  0  0  0  0
   -1.6350   -2.2444    1.2269 C   0  0  0  0  0  0  0  0  0  0  0  0
   -0.7955   -2.8484    1.8740 O   0  0  0  0  0  0  0  0  0  0  0  0
   -1.3423   -1.0167    0.6722 N   0  0  0  0  0  0  0  0  0  0  0  0
   -2.1233   -0.4905    0.2836 H   0  0  0  0  0  0  0  0  0  0  0  0
   -0.0158   -0.3805    0.5677 C   0  0  1  0  0  0  0  0  0  0  0  0
    0.7012   -0.8481    1.2492 H   0  0  0  0  0  0  0  0  0  0  0  0
    0.5222   -0.4482   -0.9087 C   0  0  1  0  0  0  0  0  0  0  0  0
   -0.3622   -0.4521   -1.5555 H   0  0  0  0  0  0  0  0  0  0  0  0
    1.3651    0.7789   -1.3220 C   0  0  0  0  0  0  0  0  0  0  0  0
    2.1960    0.9312   -0.6259 H   0  0  0  0  0  0  0  0  0  0  0  0
    1.7783    0.6378   -2.3260 H   0  0  0  0  0  0  0  0  0  0  0  0
    0.7555    1.6873   -1.3502 H   0  0  0  0  0  0  0  0  0  0  0  0
    1.3694   -1.6911   -1.3016 C   0  0  0  0  0  0  0  0  0  0  0  0
    1.2590   -1.8498   -2.3794 H   0  0  0  0  0  0  0  0  0  0  0  0
    2.4262   -1.4732   -1.1136 H   0  0  0  0  0  0  0  0  0  0  0  0
    1.0710   -3.0065   -0.5920 C   0  0  0  0  0  0  0  0  0  0  0  0
    0.0192   -3.2781   -0.7123 H   0  0  0  0  0  0  0  0  0  0  0  0
    1.6786   -3.8062   -1.0262 H   0  0  0  0  0  0  0  0  0  0  0  0
    1.3190   -2.9400    0.4700 H   0  0  0  0  0  0  0  0  0  0  0  0
   -0.2117    1.0898    1.0066 C   0  0  0  0  0  0  0  0  0  0  0  0
   -1.1837    1.7293    0.6152 O   0  0  0  0  0  0  0  0  0  0  0  0
    0.6858    1.6884    1.8718 N   0  0  0  0  0  0  0  0  0  0  0  0
    1.4418    1.1151    2.2348 H   0  0  0  0  0  0  0  0  0  0  0  0
    0.5328    3.0516    2.3645 C   0  0  0  0  0  0  0  0  0  0  0  0
   -0.4036    3.1545    2.9229 H   0  0  0  0  0  0  0  0  0  0  0  0
    1.3625    3.3084    3.0299 H   0  0  0  0  0  0  0  0  0  0  0  0
    0.5261    3.7617    1.5309 H   0  0  0  0  0  0  0  0  0  0  0  0
  1  2  1  0  0  0  0
  2  3  1  0  0  0  0
  2  4  1  0  0  0  0
  2  5  1  0  0  0  0
  5  6  2  0  0  0  0
  5  7  1  0  0  0  0
  7  8  1  0  0  0  0
  7  9  1  0  0  0  0
  9 10  1  0  0  0  0
  9 11  1  0  0  0  0
  9 24  1  0  0  0  0
 11 12  1  0  0  0  0
 11 13  1  0  0  0  0
 11 17  1  0  0  0  0
 13 14  1  0  0  0  0
 13 15  1  0  0  0  0
 13 16  1  0  0  0  0
 17 18  1  0  0  0  0
 17 19  1  0  0  0  0
 17 20  1  0  0  0  0
 20 21  1  0  0  0  0
 20 22  1  0  0  0  0
 20 23  1  0  0  0  0
 24 25  2  0  0  0  0
 24 26  1  0  0  0  0
 26 27  1  0  0  0  0
 26 28  1  0  0  0  0
 28 29  1  0  0  0  0
 28 30  1  0  0  0  0
 28 31  1  0  0  0  0
M  END
$$$$

  -OEChem-03222214053D

 31 30  0     1  0  0  0  0  0999 V2000
   -3.0749   -3.8044    1.5925 H   0  0  0  0  0  0  0  0  0  0  0  0
   -3.0285   -2.8153    1.1288 C   0  0  0  0  0  0  0  0  0  0  0  0
   -3.7294   -2.1520    1.6413 H   0  0  0  0  0  0  0  0  0  0  0  0
   -3.3215   -2.9045    0.0801 H   0  0  0  0  0  0  0  0  0  0  0  0
   -1.6217   -2.2568    1.2270 C   0  0  0  0  0  0  0  0  0  0  0  0
   -0.7800   -2.8478    1.8833 O   0  0  0  0  0  0  0  0  0  0  0  0
   -1.3389   -1.0267    0.6728 N   0  0  0  0  0  0  0  0  0  0  0  0
   -2.1226   -0.5096    0.2779 H   0  0  0  0  0  0  0  0  0  0  0  0
   -0.0151   -0.3868    0.5589 C   0  0  1  0  0  0  0  0  0  0  0  0
    0.7098   -0.8603    1.2285 H   0  0  0  0  0  0  0  0  0  0  0  0
    0.5116   -0.4449   -0.9214 C   0  0  1  0  0  0  0  0  0  0  0  0
   -0.3696   -0.4347   -1.5723 H   0  0  0  0  0  0  0  0  0  0  0  0
    1.3776    0.7725   -1.3163 C   0  0  0  0  0  0  0  0  0  0  0  0
    2.2107    0.8991   -0.6176 H   0  0  0  0  0  0  0  0  0  0  0  0
    1.7897    0.6409   -2.3219 H   0  0  0  0  0  0  0  0  0  0  0  0
    0.7850    1.6926   -1.3310 H   0  0  0  0  0  0  0  0  0  0  0  0
    1.3555   -1.6880   -1.3060 C   0  0  0  0  0  0  0  0  0  0  0  0
    1.4435   -1.7120   -2.3974 H   0  0  0  0  0  0  0  0  0  0  0  0
    2.3663   -1.5768   -0.8989 H   0  0  0  0  0  0  0  0  0  0  0  0
    0.8287   -3.0441   -0.8535 C   0  0  0  0  0  0  0  0  0  0  0  0
   -0.2391   -3.1398   -1.0693 H   0  0  0  0  0  0  0  0  0  0  0  0
    1.3581   -3.8425   -1.3823 H   0  0  0  0  0  0  0  0  0  0  0  0
    1.0067   -3.1822    0.2143 H   0  0  0  0  0  0  0  0  0  0  0  0
   -0.2123    1.0815    1.0041 C   0  0  0  0  0  0  0  0  0  0  0  0
   -1.1859    1.7214    0.6175 O   0  0  0  0  0  0  0  0  0  0  0  0
    0.6907    1.6800    1.8637 N   0  0  0  0  0  0  0  0  0  0  0  0
    1.4492    1.1068    2.2216 H   0  0  0  0  0  0  0  0  0  0  0  0
    0.5438    3.0447    2.3540 C   0  0  0  0  0  0  0  0  0  0  0  0
   -0.3907    3.1522    2.9147 H   0  0  0  0  0  0  0  0  0  0  0  0
    1.3762    3.3004    3.0165 H   0  0  0  0  0  0  0  0  0  0  0  0
    0.5374    3.7525    1.5184 H   0  0  0  0  0  0  0  0  0  0  0  0
  1  2  1  0  0  0  0
  2  3  1  0  0  0  0
  2  4  1  0  0  0  0
  2  5  1  0  0  0  0
  5  6  2  0  0  0  0
  5  7  1  0  0  0  0
  7  8  1  0  0  0  0
  7  9  1  0  0  0  0
  9 10  1  0  0  0  0
  9 11  1  0  0  0  0
  9 24  1  0  0  0  0
 11 12  1  0  0  0  0
 11 13  1  0  0  0  0
 11 17  1  0  0  0  0
 13 14  1  0  0  0  0
 13 15  1  0  0  0  0
 13 16  1  0  0  0  0
 17 18  1  0  0  0  0
 17 19  1  0  0  0  0
 17 20  1  0  0  0  0
 20 21  1  0  0  0  0
 20 22  1  0  0  0  0
 20 23  1  0  0  0  0
 24 25  2  0  0  0  0
 24 26  1  0  0  0  0
 26 27  1  0  0  0  0
 26 28  1  0  0  0  0
 28 29  1  0  0  0  0
 28 30  1  0  0  0  0
 28 31  1  0  0  0  0
M  END
$$$$

  -OEChem-03222214053D

 31 30  0     1  0  0  0  0  0999 V2000
   -3.0300   -3.8280    1.5768 H   0  0  0  0  0  0  0  0  0  0  0  0
   -2.9987   -2.8392    1.1106 C   0  0  0  0  0  0  0  0  0  0  0  0
   -3.7077   -2.1845    1.6231 H   0  0  0  0  0  0  0  0  0  0  0  0
   -3.2925   -2.9350    0.0626 H   0  0  0  0  0  0  0  0  0  0  0  0
   -1.6000   -2.2603    1.2052 C   0  0  0  0  0  0  0  0  0  0  0  0
   -0.7452   -2.8394    1.8562 O   0  0  0  0  0  0  0  0  0  0  0  0
   -1.3349   -1.0254    0.6536 N   0  0  0  0  0  0  0  0  0  0  0  0
   -2.1225   -0.5150    0.2579 H   0  0  0  0  0  0  0  0  0  0  0  0
   -0.0135   -0.3839    0.5389 C   0  0  1  0  0  0  0  0  0  0  0  0
    0.7145   -0.8596    1.2036 H   0  0  0  0  0  0  0  0  0  0  0  0
    0.5056   -0.4415   -0.9425 C   0  0  1  0  0  0  0  0  0  0  0  0
   -0.3673   -0.4163   -1.6042 H   0  0  0  0  0  0  0  0  0  0  0  0
    1.3958    0.7653   -1.3180 C   0  0  0  0  0  0  0  0  0  0  0  0
    2.2313    0.8625   -0.6175 H   0  0  0  0  0  0  0  0  0  0  0  0
    1.8049    0.6463   -2.3261 H   0  0  0  0  0  0  0  0  0  0  0  0
    0.8219    1.6971   -1.3165 H   0  0  0  0  0  0  0  0  0  0  0  0
    1.3426   -1.6963   -1.2978 C   0  0  0  0  0  0  0  0  0  0  0  0
    1.6441   -1.6206   -2.3479 H   0  0  0  0  0  0  0  0  0  0  0  0
    2.2566   -1.7118   -0.6949 H   0  0  0  0  0  0  0  0  0  0  0  0
    0.6290   -3.0355   -1.1347 C   0  0  0  0  0  0  0  0  0  0  0  0
   -0.4101   -2.9682   -1.4700 H   0  0  0  0  0  0  0  0  0  0  0  0
    1.1351   -3.8001   -1.7318 H   0  0  0  0  0  0  0  0  0  0  0  0
    0.6591   -3.3606   -0.0948 H   0  0  0  0  0  0  0  0  0  0  0  0
   -0.2088    1.0823    0.9920 C   0  0  0  0  0  0  0  0  0  0  0  0
   -1.1811    1.7269    0.6102 O   0  0  0  0  0  0  0  0  0  0  0  0
    0.6985    1.6746    1.8515 N   0  0  0  0  0  0  0  0  0  0  0  0
    1.4538    1.0959    2.2070 H   0  0  0  0  0  0  0  0  0  0  0  0
    0.5524    3.0338    2.3574 C   0  0  0  0  0  0  0  0  0  0  0  0
   -0.3789    3.1341    2.9247 H   0  0  0  0  0  0  0  0  0  0  0  0
    1.3884    3.2828    3.0181 H   0  0  0  0  0  0  0  0  0  0  0  0
    0.5405    3.7514    1.5303 H   0  0  0  0  0  0  0  0  0  0  0  0
  1  2  1  0  0  0  0
  2  3  1  0  0  0  0
  2  4  1  0  0  0  0
  2  5  1  0  0  0  0
  5  6  2  0  0  0  0
  5  7  1  0  0  0  0
  7  8  1  0  0  0  0
  7  9  1  0  0  0  0
  9 10  1  0  0  0  0
  9 11  1  0  0  0  0
  9 24  1  0  0  0  0
 11 12  1  0  0  0  0
 11 13  1  0  0  0  0
 11 17  1  0  0  0  0
 13 14  1  0  0  0  0
 13 15  1  0  0  0  0
 13 16  1  0  0  0  0
 17 18  1  0  0  0  0
 17 19  1  0  0  0  0
 17 20  1  0  0  0  0
 20 21  1  0  0  0  0
 20 22  1  0  0  0  0
 20 23  1  0  0  0  0
 24 25  2  0  0  0  0
 24 26  1  0  0  0  0
 26 27  1  0  0  0  0
 26 28  1  0  0  0  0
 28 29  1  0  0  0  0
 28 30  1  0  0  0  0
 28 31  1  0  0  0  0
M  END
$$$$

  -OEChem-03222214053D

 31 30  0     1  0  0  0  0  0999 V2000
   -3.0007   -3.8418    1.5616 H   0  0  0  0  0  0  0  0  0  0  0  0
   -2.9835   -2.8435    1.1153 C   0  0  0  0  0  0  0  0  0  0  0  0
   -3.6714   -2.1979    1.6668 H   0  0  0  0  0  0  0  0  0  0  0  0
   -3.3157   -2.9166    0.0769 H   0  0  0  0  0  0  0  0  0  0  0  0
   -1.5803   -2.2701    1.1700 C   0  0  0  0  0  0  0  0  0  0  0  0
   -0.6990   -2.8704    1.7651 O   0  0  0  0  0  0  0  0  0  0  0  0
   -1.3295   -1.0285    0.6271 N   0  0  0  0  0  0  0  0  0  0  0  0
   -2.1262   -0.5045    0.2688 H   0  0  0  0  0  0  0  0  0  0  0  0
   -0.0110   -0.3835    0.5152 C   0  0  1  0  0  0  0  0  0  0  0  0
    0.7165   -0.8594    1.1805 H   0  0  0  0  0  0  0  0  0  0  0  0
    0.5087   -0.4403   -0.9645 C   0  0  1  0  0  0  0  0  0  0  0  0
   -0.3554   -0.4068   -1.6371 H   0  0  0  0  0  0  0  0  0  0  0  0
    1.4081    0.7644   -1.3264 C   0  0  0  0  0  0  0  0  0  0  0  0
    2.2503    0.8416   -0.6314 H   0  0  0  0  0  0  0  0  0  0  0  0
    1.8064    0.6607   -2.3405 H   0  0  0  0  0  0  0  0  0  0  0  0
    0.8433    1.7013   -1.3051 H   0  0  0  0  0  0  0  0  0  0  0  0
    1.3443   -1.7067   -1.2846 C   0  0  0  0  0  0  0  0  0  0  0  0
    1.8723   -1.5549   -2.2315 H   0  0  0  0  0  0  0  0  0  0  0  0
    2.1036   -1.8592   -0.5107 H   0  0  0  0  0  0  0  0  0  0  0  0
    0.5214   -2.9853   -1.4472 C   0  0  0  0  0  0  0  0  0  0  0  0
   -0.3780   -2.7967   -2.0412 H   0  0  0  0  0  0  0  0  0  0  0  0
    1.1196   -3.7454   -1.9587 H   0  0  0  0  0  0  0  0  0  0  0  0
    0.2325   -3.3937   -0.4807 H   0  0  0  0  0  0  0  0  0  0  0  0
   -0.2076    1.0785    0.9807 C   0  0  0  0  0  0  0  0  0  0  0  0
   -1.1859    1.7213    0.6114 O   0  0  0  0  0  0  0  0  0  0  0  0
    0.6999    1.6663    1.8430 N   0  0  0  0  0  0  0  0  0  0  0  0
    1.4659    1.0915    2.1817 H   0  0  0  0  0  0  0  0  0  0  0  0
    0.5523    3.0218    2.3583 C   0  0  0  0  0  0  0  0  0  0  0  0
   -0.3874    3.1220    2.9119 H   0  0  0  0  0  0  0  0  0  0  0  0
    1.3788    3.2611    3.0345 H   0  0  0  0  0  0  0  0  0  0  0  0
    0.5566    3.7462    1.5371 H   0  0  0  0  0  0  0  0  0  0  0  0
  1  2  1  0  0  0  0
  2  3  1  0  0  0  0
  2  4  1  0  0  0  0
  2  5  1  0  0  0  0
  5  6  2  0  0  0  0
  5  7  1  0  0  0  0
  7  8  1  0  0  0  0
  7  9  1  0  0  0  0
  9 10  1  0  0  0  0
  9 11  1  0  0  0  0
  9 24  1  0  0  0  0
 11 12  1  0  0  0  0
 11 13  1  0  0  0  0
 11 17  1  0  0  0  0
 13 14  1  0  0  0  0
 13 15  1  0  0  0  0
 13 16  1  0  0  0  0
 17 18  1  0  0  0  0
 17 19  1  0  0  0  0
 17 20  1  0  0  0  0
 20 21  1  0  0  0  0
 20 22  1  0  0  0  0
 20 23  1  0  0  0  0
 24 25  2  0  0  0  0
 24 26  1  0  0  0  0
 26 27  1  0  0  0  0
 26 28  1  0  0  0  0
 28 29  1  0  0  0  0
 28 30  1  0  0  0  0
 28 31  1  0  0  0  0
M  END
$$$$

  -OEChem-03222214053D

 31 30  0     1  0  0  0  0  0999 V2000
   -2.9623   -3.8401    1.5897 H   0  0  0  0  0  0  0  0  0  0  0  0
   -2.9637   -2.8396    1.1485 C   0  0  0  0  0  0  0  0  0  0  0  0
   -3.5965   -2.1873    1.7551 H   0  0  0  0  0  0  0  0  0  0  0  0
   -3.3766   -2.9005    0.1388 H   0  0  0  0  0  0  0  0  0  0  0  0
   -1.5514   -2.2888    1.0975 C   0  0  0  0  0  0  0  0  0  0  0  0
   -0.6251   -2.9397    1.5559 O   0  0  0  0  0  0  0  0  0  0  0  0
   -1.3266   -1.0327    0.5756 N   0  0  0  0  0  0  0  0  0  0  0  0
   -2.1397   -0.4760    0.3160 H   0  0  0  0  0  0  0  0  0  0  0  0
   -0.0139   -0.3764    0.4762 C   0  0  1  0  0  0  0  0  0  0  0  0
    0.7092   -0.8508    1.1469 H   0  0  0  0  0  0  0  0  0  0  0  0
    0.5139   -0.4338   -0.9981 C   0  0  1  0  0  0  0  0  0  0  0  0
   -0.3412   -0.4067   -1.6826 H   0  0  0  0  0  0  0  0  0  0  0  0
    1.4100    0.7733   -1.3542 C   0  0  0  0  0  0  0  0  0  0  0  0
    2.2541    0.8465   -0.6611 H   0  0  0  0  0  0  0  0  0  0  0  0
    1.8041    0.6735   -2.3705 H   0  0  0  0  0  0  0  0  0  0  0  0
    0.8441    1.7094   -1.3248 H   0  0  0  0  0  0  0  0  0  0  0  0
    1.3544   -1.7099   -1.2690 C   0  0  0  0  0  0  0  0  0  0  0  0
    2.1066   -1.5116   -2.0392 H   0  0  0  0  0  0  0  0  0  0  0  0
    1.8945   -2.0069   -0.3644 H   0  0  0  0  0  0  0  0  0  0  0  0
    0.5074   -2.8842   -1.7658 C   0  0  0  0  0  0  0  0  0  0  0  0
   -0.0181   -2.6119   -2.6862 H   0  0  0  0  0  0  0  0  0  0  0  0
    1.1519   -3.7428   -1.9774 H   0  0  0  0  0  0  0  0  0  0  0  0
   -0.2294   -3.1903   -1.0240 H   0  0  0  0  0  0  0  0  0  0  0  0
   -0.2107    1.0770    0.9660 C   0  0  0  0  0  0  0  0  0  0  0  0
   -1.2011    1.7165    0.6249 O   0  0  0  0  0  0  0  0  0  0  0  0
    0.6974    1.6522    1.8361 N   0  0  0  0  0  0  0  0  0  0  0  0
    1.4727    1.0777    2.1537 H   0  0  0  0  0  0  0  0  0  0  0  0
    0.5435    2.9956    2.3803 C   0  0  0  0  0  0  0  0  0  0  0  0
   -0.3860    3.0725    2.9541 H   0  0  0  0  0  0  0  0  0  0  0  0
    1.3804    3.2331    3.0440 H   0  0  0  0  0  0  0  0  0  0  0  0
    0.5221    3.7353    1.5731 H   0  0  0  0  0  0  0  0  0  0  0  0
  1  2  1  0  0  0  0
  2  3  1  0  0  0  0
  2  4  1  0  0  0  0
  2  5  1  0  0  0  0
  5  6  2  0  0  0  0
  5  7  1  0  0  0  0
  7  8  1  0  0  0  0
  7  9  1  0  0  0  0
  9 10  1  0  0  0  0
  9 11  1  0  0  0  0
  9 24  1  0  0  0  0
 11 12  1  0  0  0  0
 11 13  1  0  0  0  0
 11 17  1  0  0  0  0
 13 14  1  0  0  0  0
 13 15  1  0  0  0  0
 13 16  1  0  0  0  0
 17 18  1  0  0  0  0
 17 19  1  0  0  0  0
 17 20  1  0  0  0  0
 20 21  1  0  0  0  0
 20 22  1  0  0  0  0
 20 23  1  0  0  0  0
 24 25  2  0  0  0  0
 24 26  1  0  0  0  0
 26 27  1  0  0  0  0
 26 28  1  0  0  0  0
 28 29  1  0  0  0  0
 28 30  1  0  0  0  0
 28 31  1  0  0  0  0
M  END
$$$$

  -OEChem-03222214053D

 31 30  0     1  0  0  0  0  0999 V2000
   -2.9152   -3.8556    1.5342 H   0  0  0  0  0  0  0  0  0  0  0  0
   -2.9305   -2.8463    1.1133 C   0  0  0  0  0  0  0  0  0  0  0  0
   -3.5424   -2.2065    1.7538 H   0  0  0  0  0  0  0  0  0  0  0  0
   -3.3772   -2.8869    0.1168 H   0  0  0  0  0  0  0  0  0  0  0  0
   -1.5201   -2.2945    1.0263 C   0  0  0  0  0  0  0  0  0  0  0  0
   -0.5766   -2.9676    1.4111 O   0  0  0  0  0  0  0  0  0  0  0  0
   -1.3122   -1.0252    0.5302 N   0  0  0  0  0  0  0  0  0  0  0  0
   -2.1325   -0.4602    0.3150 H   0  0  0  0  0  0  0  0  0  0  0  0
   -0.0062   -0.3536    0.4593 C   0  0  1  0  0  0  0  0  0  0  0  0
    0.7120   -0.8268    1.1358 H   0  0  0  0  0  0  0  0  0  0  0  0
    0.5091   -0.4320   -1.0120 C   0  0  1  0  0  0  0  0  0  0  0  0
   -0.3493   -0.4195   -1.6934 H   0  0  0  0  0  0  0  0  0  0  0  0
    1.3949    0.7722   -1.3924 C   0  0  0  0  0  0  0  0  0  0  0  0
    2.2414    0.8627   -0.7044 H   0  0  0  0  0  0  0  0  0  0  0  0
    1.7841    0.6526   -2.4085 H   0  0  0  0  0  0  0  0  0  0  0  0
    0.8222    1.7046   -1.3742 H   0  0  0  0  0  0  0  0  0  0  0  0
    1.3487   -1.7193   -1.2349 C   0  0  0  0  0  0  0  0  0  0  0  0
    2.2629   -1.4948   -1.7937 H   0  0  0  0  0  0  0  0  0  0  0  0
    1.6617   -2.1559   -0.2814 H   0  0  0  0  0  0  0  0  0  0  0  0
    0.5611   -2.7633   -2.0288 C   0  0  0  0  0  0  0  0  0  0  0  0
    0.2933   -2.3725   -3.0153 H   0  0  0  0  0  0  0  0  0  0  0  0
    1.1664   -3.6644   -2.1656 H   0  0  0  0  0  0  0  0  0  0  0  0
   -0.3554   -3.0407   -1.5012 H   0  0  0  0  0  0  0  0  0  0  0  0
   -0.1996    1.0930    0.9679 C   0  0  0  0  0  0  0  0  0  0  0  0
   -1.1929    1.7335    0.6387 O   0  0  0  0  0  0  0  0  0  0  0  0
    0.7021    1.6556    1.8529 N   0  0  0  0  0  0  0  0  0  0  0  0
    1.4881    1.0854    2.1517 H   0  0  0  0  0  0  0  0  0  0  0  0
    0.5457    2.9932    2.4113 C   0  0  0  0  0  0  0  0  0  0  0  0
   -0.3960    3.0696    2.9650 H   0  0  0  0  0  0  0  0  0  0  0  0
    1.3687    3.2162    3.0972 H   0  0  0  0  0  0  0  0  0  0  0  0
    0.5474    3.7433    1.6134 H   0  0  0  0  0  0  0  0  0  0  0  0
  1  2  1  0  0  0  0
  2  3  1  0  0  0  0
  2  4  1  0  0  0  0
  2  5  1  0  0  0  0
  5  6  2  0  0  0  0
  5  7  1  0  0  0  0
  7  8  1  0  0  0  0
  7  9  1  0  0  0  0
  9 10  1  0  0  0  0
  9 11  1  0  0  0  0
  9 24  1  0  0  0  0
 11 12  1  0  0  0  0
 11 13  1  0  0  0  0
 11 17  1  0  0  0  0
 13 14  1  0  0  0  0
 13 15  1  0  0  0  0
 13 16  1  0  0  0  0
 17 18  1  0  0  0  0
 17 19  1  0  0  0  0
 17 20  1  0  0  0  0
 20 21  1  0  0  0  0
 20 22  1  0  0  0  0
 20 23  1  0  0  0  0
 24 25  2  0  0  0  0
 24 26  1  0  0  0  0
 26 27  1  0  0  0  0
 26 28  1  0  0  0  0
 28 29  1  0  0  0  0
 28 30  1  0  0  0  0
 28 31  1  0  0  0  0
M  END
$$$$

  -OEChem-03222214053D

 31 30  0     1  0  0  0  0  0999 V2000
   -2.9211   -3.8552    1.5103 H   0  0  0  0  0  0  0  0  0  0  0  0
   -2.9325   -2.8441    1.0939 C   0  0  0  0  0  0  0  0  0  0  0  0
   -3.5503   -2.2073    1.7316 H   0  0  0  0  0  0  0  0  0  0  0  0
   -3.3697   -2.8802    0.0933 H   0  0  0  0  0  0  0  0  0  0  0  0
   -1.5214   -2.2925    1.0215 C   0  0  0  0  0  0  0  0  0  0  0  0
   -0.5827   -2.9661    1.4163 O   0  0  0  0  0  0  0  0  0  0  0  0
   -1.3092   -1.0229    0.5279 N   0  0  0  0  0  0  0  0  0  0  0  0
   -2.1287   -0.4590    0.3068 H   0  0  0  0  0  0  0  0  0  0  0  0
   -0.0032   -0.3494    0.4628 C   0  0  1  0  0  0  0  0  0  0  0  0
    0.7150   -0.8236    1.1391 H   0  0  0  0  0  0  0  0  0  0  0  0
    0.5114   -0.4318   -1.0062 C   0  0  1  0  0  0  0  0  0  0  0  0
   -0.3560   -0.4338   -1.6761 H   0  0  0  0  0  0  0  0  0  0  0  0
    1.3830    0.7727   -1.4131 C   0  0  0  0  0  0  0  0  0  0  0  0
    2.2237    0.8953   -0.7229 H   0  0  0  0  0  0  0  0  0  0  0  0
    1.7812    0.6281   -2.4224 H   0  0  0  0  0  0  0  0  0  0  0  0
    0.7960    1.6964   -1.4225 H   0  0  0  0  0  0  0  0  0  0  0  0
    1.3502   -1.7203   -1.2200 C   0  0  0  0  0  0  0  0  0  0  0  0
    2.3784   -1.4768   -1.5078 H   0  0  0  0  0  0  0  0  0  0  0  0
    1.4124   -2.3054   -0.2976 H   0  0  0  0  0  0  0  0  0  0  0  0
    0.7277   -2.6029   -2.3021 C   0  0  0  0  0  0  0  0  0  0  0  0
    0.6853   -2.0681   -3.2560 H   0  0  0  0  0  0  0  0  0  0  0  0
    1.3254   -3.5093   -2.4375 H   0  0  0  0  0  0  0  0  0  0  0  0
   -0.2873   -2.8971   -2.0169 H   0  0  0  0  0  0  0  0  0  0  0  0
   -0.1913    1.0978    0.9693 C   0  0  0  0  0  0  0  0  0  0  0  0
   -1.1807    1.7422    0.6364 O   0  0  0  0  0  0  0  0  0  0  0  0
    0.7112    1.6560    1.8560 N   0  0  0  0  0  0  0  0  0  0  0  0
    1.4915    1.0804    2.1592 H   0  0  0  0  0  0  0  0  0  0  0  0
    0.5549    2.9905    2.4210 C   0  0  0  0  0  0  0  0  0  0  0  0
   -0.3844    3.0629    2.9794 H   0  0  0  0  0  0  0  0  0  0  0  0
    1.3806    3.2114    3.1041 H   0  0  0  0  0  0  0  0  0  0  0  0
    0.5518    3.7442    1.6267 H   0  0  0  0  0  0  0  0  0  0  0  0
  1  2  1  0  0  0  0
  2  3  1  0  0  0  0
  2  4  1  0  0  0  0
  2  5  1  0  0  0  0
  5  6  2  0  0  0  0
  5  7  1  0  0  0  0
  7  8  1  0  0  0  0
  7  9  1  0  0  0  0
  9 10  1  0  0  0  0
  9 11  1  0  0  0  0
  9 24  1  0  0  0  0
 11 12  1  0  0  0  0
 11 13  1  0  0  0  0
 11 17  1  0  0  0  0
 13 14  1  0  0  0  0
 13 15  1  0  0  0  0
 13 16  1  0  0  0  0
 17 18  1  0  0  0  0
 17 19  1  0  0  0  0
 17 20  1  0  0  0  0
 20 21  1  0  0  0  0
 20 22  1  0  0  0  0
 20 23  1  0  0  0  0
 24 25  2  0  0  0  0
 24 26  1  0  0  0  0
 26 27  1  0  0  0  0
 26 28  1  0  0  0  0
 28 29  1  0  0  0  0
 28 30  1  0  0  0  0
 28 31  1  0  0  0  0
M  END
$$$$

  -OEChem-03222214053D

 31 30  0     1  0  0  0  0  0999 V2000
   -2.9438   -3.8529    1.5071 H   0  0  0  0  0  0  0  0  0  0  0  0
   -2.9469   -2.8426    1.0884 C   0  0  0  0  0  0  0  0  0  0  0  0
   -3.5711   -2.2024    1.7164 H   0  0  0  0  0  0  0  0  0  0  0  0
   -3.3714   -2.8802    0.0823 H   0  0  0  0  0  0  0  0  0  0  0  0
   -1.5337   -2.2939    1.0334 C   0  0  0  0  0  0  0  0  0  0  0  0
   -0.6034   -2.9634    1.4540 O   0  0  0  0  0  0  0  0  0  0  0  0
   -1.3135   -1.0262    0.5379 N   0  0  0  0  0  0  0  0  0  0  0  0
   -2.1304   -0.4652    0.3007 H   0  0  0  0  0  0  0  0  0  0  0  0
   -0.0062   -0.3545    0.4682 C   0  0  1  0  0  0  0  0  0  0  0  0
    0.7149   -0.8344    1.1379 H   0  0  0  0  0  0  0  0  0  0  0  0
    0.5114   -0.4292   -0.9995 C   0  0  1  0  0  0  0  0  0  0  0  0
   -0.3614   -0.4429   -1.6622 H   0  0  0  0  0  0  0  0  0  0  0  0
    1.3750    0.7769   -1.4171 C   0  0  0  0  0  0  0  0  0  0  0  0
    2.2083    0.9183   -0.7215 H   0  0  0  0  0  0  0  0  0  0  0  0
    1.7843    0.6212   -2.4203 H   0  0  0  0  0  0  0  0  0  0  0  0
    0.7780    1.6939   -1.4438 H   0  0  0  0  0  0  0  0  0  0  0  0
    1.3496   -1.7138   -1.2159 C   0  0  0  0  0  0  0  0  0  0  0  0
    2.4206   -1.4851   -1.2152 H   0  0  0  0  0  0  0  0  0  0  0  0
    1.1768   -2.4258   -0.4038 H   0  0  0  0  0  0  0  0  0  0  0  0
    0.9695   -2.4072   -2.5249 C   0  0  0  0  0  0  0  0  0  0  0  0
    1.1471   -1.7437   -3.3768 H   0  0  0  0  0  0  0  0  0  0  0  0
    1.5696   -3.3124   -2.6579 H   0  0  0  0  0  0  0  0  0  0  0  0
   -0.0873   -2.6916   -2.5139 H   0  0  0  0  0  0  0  0  0  0  0  0
   -0.1896    1.0939    0.9724 C   0  0  0  0  0  0  0  0  0  0  0  0
   -1.1771    1.7414    0.6399 O   0  0  0  0  0  0  0  0  0  0  0  0
    0.7175    1.6502    1.8554 N   0  0  0  0  0  0  0  0  0  0  0  0
    1.4956    1.0715    2.1581 H   0  0  0  0  0  0  0  0  0  0  0  0
    0.5699    2.9869    2.4172 C   0  0  0  0  0  0  0  0  0  0  0  0
   -0.3670    3.0656    2.9787 H   0  0  0  0  0  0  0  0  0  0  0  0
    1.3991    3.2052    3.0969 H   0  0  0  0  0  0  0  0  0  0  0  0
    0.5683    3.7384    1.6207 H   0  0  0  0  0  0  0  0  0  0  0  0
  1  2  1  0  0  0  0
  2  3  1  0  0  0  0
  2  4  1  0  0  0  0
  2  5  1  0  0  0  0
  5  6  2  0  0  0  0
  5  7  1  0  0  0  0
  7  8  1  0  0  0  0
  7  9  1  0  0  0  0
  9 10  1  0  0  0  0
  9 11  1  0  0  0  0
  9 24  1  0  0  0  0
 11 12  1  0  0  0  0
 11 13  1  0  0  0  0
 11 17  1  0  0  0  0
 13 14  1  0  0  0  0
 13 15  1  0  0  0  0
 13 16  1  0  0  0  0
 17 18  1  0  0  0  0
 17 19  1  0  0  0  0
 17 20  1  0  0  0  0
 20 21  1  0  0  0  0
 20 22  1  0  0  0  0
 20 23  1  0  0  0  0
 24 25  2  0  0  0  0
 24 26  1  0  0  0  0
 26 27  1  0  0  0  0
 26 28  1  0  0  0  0
 28 29  1  0  0  0  0
 28 30  1  0  0  0  0
 28 31  1  0  0  0  0
M  END
$$$$

  -OEChem-03222214053D

 31 30  0     1  0  0  0  0  0999 V2000
   -2.9481   -3.8504    1.5054 H   0  0  0  0  0  0  0  0  0  0  0  0
   -2.9505   -2.8402    1.0863 C   0  0  0  0  0  0  0  0  0  0  0  0
   -3.5745   -2.1997    1.7143 H   0  0  0  0  0  0  0  0  0  0  0  0
   -3.3753   -2.8774    0.0803 H   0  0  0  0  0  0  0  0  0  0  0  0
   -1.5366   -2.2926    1.0319 C   0  0  0  0  0  0  0  0  0  0  0  0
   -0.6078   -2.9617    1.4565 O   0  0  0  0  0  0  0  0  0  0  0  0
   -1.3151   -1.0240    0.5390 N   0  0  0  0  0  0  0  0  0  0  0  0
   -2.1316   -0.4625    0.3013 H   0  0  0  0  0  0  0  0  0  0  0  0
   -0.0074   -0.3534    0.4632 C   0  0  1  0  0  0  0  0  0  0  0  0
    0.7169   -0.8387    1.1258 H   0  0  0  0  0  0  0  0  0  0  0  0
    0.5056   -0.4216   -1.0073 C   0  0  1  0  0  0  0  0  0  0  0  0
   -0.3665   -0.4394   -1.6709 H   0  0  0  0  0  0  0  0  0  0  0  0
    1.3721    0.7880   -1.4142 C   0  0  0  0  0  0  0  0  0  0  0  0
    2.2084    0.9173   -0.7200 H   0  0  0  0  0  0  0  0  0  0  0  0
    1.7793    0.6504   -2.4200 H   0  0  0  0  0  0  0  0  0  0  0  0
    0.7783    1.7074   -1.4255 H   0  0  0  0  0  0  0  0  0  0  0  0
    1.3394   -1.7067   -1.2184 C   0  0  0  0  0  0  0  0  0  0  0  0
    2.3858   -1.5316   -0.9472 H   0  0  0  0  0  0  0  0  0  0  0  0
    0.9675   -2.5039   -0.5692 H   0  0  0  0  0  0  0  0  0  0  0  0
    1.2499   -2.2145   -2.6596 C   0  0  0  0  0  0  0  0  0  0  0  0
    1.6545   -1.4782   -3.3595 H   0  0  0  0  0  0  0  0  0  0  0  0
    1.8228   -3.1408   -2.7648 H   0  0  0  0  0  0  0  0  0  0  0  0
    0.2092   -2.4201   -2.9286 H   0  0  0  0  0  0  0  0  0  0  0  0
   -0.1901    1.0932    0.9739 C   0  0  0  0  0  0  0  0  0  0  0  0
   -1.1805    1.7403    0.6489 O   0  0  0  0  0  0  0  0  0  0  0  0
    0.7209    1.6481    1.8541 N   0  0  0  0  0  0  0  0  0  0  0  0
    1.5026    1.0704    2.1494 H   0  0  0  0  0  0  0  0  0  0  0  0
    0.5742    2.9827    2.4217 C   0  0  0  0  0  0  0  0  0  0  0  0
   -0.3598    3.0580    2.9886 H   0  0  0  0  0  0  0  0  0  0  0  0
    1.4069    3.2002    3.0975 H   0  0  0  0  0  0  0  0  0  0  0  0
    0.5666    3.7370    1.6279 H   0  0  0  0  0  0  0  0  0  0  0  0
  1  2  1  0  0  0  0
  2  3  1  0  0  0  0
  2  4  1  0  0  0  0
  2  5  1  0  0  0  0
  5  6  2  0  0  0  0
  5  7  1  0  0  0  0
  7  8  1  0  0  0  0
  7  9  1  0  0  0  0
  9 10  1  0  0  0  0
  9 11  1  0  0  0  0
  9 24  1  0  0  0  0
 11 12  1  0  0  0  0
 11 13  1  0  0  0  0
 11 17  1  0  0  0  0
 13 14  1  0  0  0  0
 13 15  1  0  0  0  0
 13 16  1  0  0  0  0
 17 18  1  0  0  0  0
 17 19  1  0  0  0  0
 17 20  1  0  0  0  0
 20 21  1  0  0  0  0
 20 22  1  0  0  0  0
 20 23  1  0  0  0  0
 24 25  2  0  0  0  0
 24 26  1  0  0  0  0
 26 27  1  0  0  0  0
 26 28  1  0  0  0  0
 28 29  1  0  0  0  0
 28 30  1  0  0  0  0
 28 31  1  0  0  0  0
M  END
$$$$

  -OEChem-03222214053D

 31 30  0     1  0  0  0  0  0999 V2000
   -2.9315   -3.8556    1.4934 H   0  0  0  0  0  0  0  0  0  0  0  0
   -2.9423   -2.8424    1.0822 C   0  0  0  0  0  0  0  0  0  0  0  0
   -3.5631   -2.2095    1.7211 H   0  0  0  0  0  0  0  0  0  0  0  0
   -3.3760   -2.8740    0.0797 H   0  0  0  0  0  0  0  0  0  0  0  0
   -1.5312   -2.2891    1.0182 C   0  0  0  0  0  0  0  0  0  0  0  0
   -0.5950   -2.9596    1.4243 O   0  0  0  0  0  0  0  0  0  0  0  0
   -1.3185   -1.0159    0.5334 N   0  0  0  0  0  0  0  0  0  0  0  0
   -2.1386   -0.4543    0.3088 H   0  0  0  0  0  0  0  0  0  0  0  0
   -0.0125   -0.3426    0.4511 C   0  0  1  0  0  0  0  0  0  0  0  0
    0.7157   -0.8312    1.1069 H   0  0  0  0  0  0  0  0  0  0  0  0
    0.4944   -0.4063   -1.0230 C   0  0  1  0  0  0  0  0  0  0  0  0
   -0.3743   -0.4310   -1.6903 H   0  0  0  0  0  0  0  0  0  0  0  0
    1.3529    0.8150   -1.4180 C   0  0  0  0  0  0  0  0  0  0  0  0
    2.2118    0.9170   -0.7473 H   0  0  0  0  0  0  0  0  0  0  0  0
    1.7239    0.7204   -2.4413 H   0  0  0  0  0  0  0  0  0  0  0  0
    0.7633    1.7361   -1.3793 H   0  0  0  0  0  0  0  0  0  0  0  0
    1.3265   -1.6953   -1.2176 C   0  0  0  0  0  0  0  0  0  0  0  0
    2.2885   -1.6033   -0.7029 H   0  0  0  0  0  0  0  0  0  0  0  0
    0.7944   -2.5377   -0.7669 H   0  0  0  0  0  0  0  0  0  0  0  0
    1.5636   -2.0434   -2.6908 C   0  0  0  0  0  0  0  0  0  0  0  0
    2.2152   -1.3101   -3.1731 H   0  0  0  0  0  0  0  0  0  0  0  0
    2.0441   -3.0236   -2.7663 H   0  0  0  0  0  0  0  0  0  0  0  0
    0.6137   -2.0823   -3.2330 H   0  0  0  0  0  0  0  0  0  0  0  0
   -0.1951    1.0992    0.9760 C   0  0  0  0  0  0  0  0  0  0  0  0
   -1.1911    1.7459    0.6674 O   0  0  0  0  0  0  0  0  0  0  0  0
    0.7228    1.6479    1.8528 N   0  0  0  0  0  0  0  0  0  0  0  0
    1.5100    1.0701    2.1332 H   0  0  0  0  0  0  0  0  0  0  0  0
    0.5790    2.9769    2.4339 C   0  0  0  0  0  0  0  0  0  0  0  0
   -0.3533    3.0475    3.0040 H   0  0  0  0  0  0  0  0  0  0  0  0
    1.4135    3.1863    3.1099 H   0  0  0  0  0  0  0  0  0  0  0  0
    0.5706    3.7394    1.6481 H   0  0  0  0  0  0  0  0  0  0  0  0
  1  2  1  0  0  0  0
  2  3  1  0  0  0  0
  2  4  1  0  0  0  0
  2  5  1  0  0  0  0
  5  6  2  0  0  0  0
  5  7  1  0  0  0  0
  7  8  1  0  0  0  0
  7  9  1  0  0  0  0
  9 10  1  0  0  0  0
  9 11  1  0  0  0  0
  9 24  1  0  0  0  0
 11 12  1  0  0  0  0
 11 13  1  0  0  0  0
 11 17  1  0  0  0  0
 13 14  1  0  0  0  0
 13 15  1  0  0  0  0
 13 16  1  0  0  0  0
 17 18  1  0  0  0  0
 17 19  1  0  0  0  0
 17 20  1  0  0  0  0
 20 21  1  0  0  0  0
 20 22  1  0  0  0  0
 20 23  1  0  0  0  0
 24 25  2  0  0  0  0
 24 26  1  0  0  0  0
 26 27  1  0  0  0  0
 26 28  1  0  0  0  0
 28 29  1  0  0  0  0
 28 30  1  0  0  0  0
 28 31  1  0  0  0  0
M  END
$$$$

  -OEChem-03222214053D

 31 30  0     1  0  0  0  0  0999 V2000
   -2.9363   -3.8519    1.5139 H   0  0  0  0  0  0  0  0  0  0  0  0
   -2.9460   -2.8405    1.0979 C   0  0  0  0  0  0  0  0  0  0  0  0
   -3.5555   -2.2009    1.7408 H   0  0  0  0  0  0  0  0  0  0  0  0
   -3.3911   -2.8743    0.1006 H   0  0  0  0  0  0  0  0  0  0  0  0
   -1.5330   -2.2950    1.0154 C   0  0  0  0  0  0  0  0  0  0  0  0
   -0.5937   -2.9721    1.4035 O   0  0  0  0  0  0  0  0  0  0  0  0
   -1.3186   -1.0239    0.5256 N   0  0  0  0  0  0  0  0  0  0  0  0
   -2.1374   -0.4566    0.3109 H   0  0  0  0  0  0  0  0  0  0  0  0
   -0.0103   -0.3545    0.4493 C   0  0  1  0  0  0  0  0  0  0  0  0
    0.7159   -0.8474    1.1038 H   0  0  0  0  0  0  0  0  0  0  0  0
    0.5047   -0.3995   -1.0200 C   0  0  1  0  0  0  0  0  0  0  0  0
   -0.3215   -0.1445   -1.6930 H   0  0  0  0  0  0  0  0  0  0  0  0
    1.6416    0.6198   -1.2565 C   0  0  0  0  0  0  0  0  0  0  0  0
    2.4962    0.3990   -0.6091 H   0  0  0  0  0  0  0  0  0  0  0  0
    1.9764    0.5992   -2.2967 H   0  0  0  0  0  0  0  0  0  0  0  0
    1.3067    1.6424   -1.0597 H   0  0  0  0  0  0  0  0  0  0  0  0
    1.0021   -1.8306   -1.3433 C   0  0  0  0  0  0  0  0  0  0  0  0
    1.7847   -2.1199   -0.6344 H   0  0  0  0  0  0  0  0  0  0  0  0
    0.1711   -2.5304   -1.2183 H   0  0  0  0  0  0  0  0  0  0  0  0
    1.5359   -2.0035   -2.7690 C   0  0  0  0  0  0  0  0  0  0  0  0
    2.4895   -1.4846   -2.9003 H   0  0  0  0  0  0  0  0  0  0  0  0
    1.7007   -3.0654   -2.9757 H   0  0  0  0  0  0  0  0  0  0  0  0
    0.8160   -1.6165   -3.4968 H   0  0  0  0  0  0  0  0  0  0  0  0
   -0.1965    1.0886    0.9671 C   0  0  0  0  0  0  0  0  0  0  0  0
   -1.1810    1.7398    0.6332 O   0  0  0  0  0  0  0  0  0  0  0  0
    0.7134    1.6422    1.8493 N   0  0  0  0  0  0  0  0  0  0  0  0
    1.4943    1.0639    2.1456 H   0  0  0  0  0  0  0  0  0  0  0  0
    0.5720    2.9801    2.4097 C   0  0  0  0  0  0  0  0  0  0  0  0
   -0.3662    3.0650    2.9682 H   0  0  0  0  0  0  0  0  0  0  0  0
    1.4004    3.1941    3.0917 H   0  0  0  0  0  0  0  0  0  0  0  0
    0.5774    3.7308    1.6124 H   0  0  0  0  0  0  0  0  0  0  0  0
  1  2  1  0  0  0  0
  2  3  1  0  0  0  0
  2  4  1  0  0  0  0
  2  5  1  0  0  0  0
  5  6  2  0  0  0  0
  5  7  1  0  0  0  0
  7  8  1  0  0  0  0
  7  9  1  0  0  0  0
  9 10  1  0  0  0  0
  9 11  1  0  0  0  0
  9 24  1  0  0  0  0
 11 12  1  0  0  0  0
 11 13  1  0  0  0  0
 11 17  1  0  0  0  0
 13 14  1  0  0  0  0
 13 15  1  0  0  0  0
 13 16  1  0  0  0  0
 17 18  1  0  0  0  0
 17 19  1  0  0  0  0
 17 20  1  0  0  0  0
 20 21  1  0  0  0  0
 20 22  1  0  0  0  0
 20 23  1  0  0  0  0
 24 25  2  0  0  0  0
 24 26  1  0  0  0  0
 26 27  1  0  0  0  0
 26 28  1  0  0  0  0
 28 29  1  0  0  0  0
 28 30  1  0  0  0  0
 28 31  1  0  0  0  0
M  END
$$$$

  -OEChem-03222214053D

 31 30  0     1  0  0  0  0  0999 V2000
   -2.9183   -3.8503    1.4874 H   0  0  0  0  0  0  0  0  0  0  0  0
   -2.9316   -2.8355    1.0802 C   0  0  0  0  0  0  0  0  0  0  0  0
   -3.5396   -2.2026    1.7312 H   0  0  0  0  0  0  0  0  0  0  0  0
   -3.3811   -2.8613    0.0846 H   0  0  0  0  0  0  0  0  0  0  0  0
   -1.5198   -2.2868    0.9957 C   0  0  0  0  0  0  0  0  0  0  0  0
   -0.5770   -2.9673    1.3692 O   0  0  0  0  0  0  0  0  0  0  0  0
   -1.3096   -1.0115    0.5149 N   0  0  0  0  0  0  0  0  0  0  0  0
   -2.1302   -0.4429    0.3102 H   0  0  0  0  0  0  0  0  0  0  0  0
   -0.0029   -0.3386    0.4450 C   0  0  1  0  0  0  0  0  0  0  0  0
    0.7235   -0.8298    1.1004 H   0  0  0  0  0  0  0  0  0  0  0  0
    0.5029   -0.3876   -1.0274 C   0  0  1  0  0  0  0  0  0  0  0  0
   -0.3225   -0.1373   -1.7031 H   0  0  0  0  0  0  0  0  0  0  0  0
    1.6287    0.6449   -1.2653 C   0  0  0  0  0  0  0  0  0  0  0  0
    2.4902    0.4279   -0.6260 H   0  0  0  0  0  0  0  0  0  0  0  0
    1.9542    0.6359   -2.3091 H   0  0  0  0  0  0  0  0  0  0  0  0
    1.2862    1.6630   -1.0596 H   0  0  0  0  0  0  0  0  0  0  0  0
    0.9964   -1.8268   -1.3394 C   0  0  0  0  0  0  0  0  0  0  0  0
    1.5902   -2.2016   -0.4991 H   0  0  0  0  0  0  0  0  0  0  0  0
    0.1225   -2.4787   -1.4370 H   0  0  0  0  0  0  0  0  0  0  0  0
    1.8458   -1.9722   -2.6069 C   0  0  0  0  0  0  0  0  0  0  0  0
    2.8194   -1.4876   -2.4880 H   0  0  0  0  0  0  0  0  0  0  0  0
    2.0212   -3.0321   -2.8146 H   0  0  0  0  0  0  0  0  0  0  0  0
    1.3294   -1.5326   -3.4658 H   0  0  0  0  0  0  0  0  0  0  0  0
   -0.1922    1.1009    0.9721 C   0  0  0  0  0  0  0  0  0  0  0  0
   -1.1796    1.7509    0.6444 O   0  0  0  0  0  0  0  0  0  0  0  0
    0.7154    1.6506    1.8591 N   0  0  0  0  0  0  0  0  0  0  0  0
    1.4963    1.0712    2.1538 H   0  0  0  0  0  0  0  0  0  0  0  0
    0.5646    2.9805    2.4363 C   0  0  0  0  0  0  0  0  0  0  0  0
   -0.3752    3.0521    2.9940 H   0  0  0  0  0  0  0  0  0  0  0  0
    1.3903    3.1909    3.1228 H   0  0  0  0  0  0  0  0  0  0  0  0
    0.5665    3.7416    1.6490 H   0  0  0  0  0  0  0  0  0  0  0  0
  1  2  1  0  0  0  0
  2  3  1  0  0  0  0
  2  4  1  0  0  0  0
  2  5  1  0  0  0  0
  5  6  2  0  0  0  0
  5  7  1  0  0  0  0
  7  8  1  0  0  0  0
  7  9  1  0  0  0  0
  9 10  1  0  0  0  0
  9 11  1  0  0  0  0
  9 24  1  0  0  0  0
 11 12  1  0  0  0  0
 11 13  1  0  0  0  0
 11 17  1  0  0  0  0
 13 14  1  0  0  0  0
 13 15  1  0  0  0  0
 13 16  1  0  0  0  0
 17 18  1  0  0  0  0
 17 19  1  0  0  0  0
 17 20  1  0  0  0  0
 20 21  1  0  0  0  0
 20 22  1  0  0  0  0
 20 23  1  0  0  0  0
 24 25  2  0  0  0  0
 24 26  1  0  0  0  0
 26 27  1  0  0  0  0
 26 28  1  0  0  0  0
 28 29  1  0  0  0  0
 28 30  1  0  0  0  0
 28 31  1  0  0  0  0
M  END
$$$$

  -OEChem-03222214053D

 31 30  0     1  0  0  0  0  0999 V2000
   -2.9174   -3.8528    1.4661 H   0  0  0  0  0  0  0  0  0  0  0  0
   -2.9280   -2.8371    1.0611 C   0  0  0  0  0  0  0  0  0  0  0  0
   -3.5449   -2.2068    1.7062 H   0  0  0  0  0  0  0  0  0  0  0  0
   -3.3659   -2.8617    0.0603 H   0  0  0  0  0  0  0  0  0  0  0  0
   -1.5164   -2.2854    0.9951 C   0  0  0  0  0  0  0  0  0  0  0  0
   -0.5777   -2.9633    1.3826 O   0  0  0  0  0  0  0  0  0  0  0  0
   -1.3042   -1.0089    0.5187 N   0  0  0  0  0  0  0  0  0  0  0  0
   -2.1245   -0.4438    0.3035 H   0  0  0  0  0  0  0  0  0  0  0  0
    0.0011   -0.3329    0.4532 C   0  0  1  0  0  0  0  0  0  0  0  0
    0.7278   -0.8222    1.1098 H   0  0  0  0  0  0  0  0  0  0  0  0
    0.5035   -0.3835   -1.0214 C   0  0  1  0  0  0  0  0  0  0  0  0
   -0.3267   -0.1425   -1.6946 H   0  0  0  0  0  0  0  0  0  0  0  0
    1.6050    0.6745   -1.2661 C   0  0  0  0  0  0  0  0  0  0  0  0
    2.4627    0.4967   -0.6098 H   0  0  0  0  0  0  0  0  0  0  0  0
    1.9451    0.6534   -2.3052 H   0  0  0  0  0  0  0  0  0  0  0  0
    1.2306    1.6866   -1.0870 H   0  0  0  0  0  0  0  0  0  0  0  0
    1.0009   -1.8255   -1.3389 C   0  0  0  0  0  0  0  0  0  0  0  0
    1.3746   -2.2937   -0.4228 H   0  0  0  0  0  0  0  0  0  0  0  0
    0.1431   -2.4173   -1.6740 H   0  0  0  0  0  0  0  0  0  0  0  0
    2.1210   -1.9528   -2.3783 C   0  0  0  0  0  0  0  0  0  0  0  0
    3.0445   -1.4850   -2.0240 H   0  0  0  0  0  0  0  0  0  0  0  0
    2.3303   -3.0101   -2.5672 H   0  0  0  0  0  0  0  0  0  0  0  0
    1.8223   -1.4884   -3.3231 H   0  0  0  0  0  0  0  0  0  0  0  0
   -0.1891    1.1056    0.9830 C   0  0  0  0  0  0  0  0  0  0  0  0
   -1.1743    1.7576    0.6527 O   0  0  0  0  0  0  0  0  0  0  0  0
    0.7180    1.6525    1.8722 N   0  0  0  0  0  0  0  0  0  0  0  0
    1.4992    1.0725    2.1645 H   0  0  0  0  0  0  0  0  0  0  0  0
    0.5721    2.9839    2.4471 C   0  0  0  0  0  0  0  0  0  0  0  0
   -0.3726    3.0636    2.9953 H   0  0  0  0  0  0  0  0  0  0  0  0
    1.3923    3.1879    3.1420 H   0  0  0  0  0  0  0  0  0  0  0  0
    0.5884    3.7444    1.6595 H   0  0  0  0  0  0  0  0  0  0  0  0
  1  2  1  0  0  0  0
  2  3  1  0  0  0  0
  2  4  1  0  0  0  0
  2  5  1  0  0  0  0
  5  6  2  0  0  0  0
  5  7  1  0  0  0  0
  7  8  1  0  0  0  0
  7  9  1  0  0  0  0
  9 10  1  0  0  0  0
  9 11  1  0  0  0  0
  9 24  1  0  0  0  0
 11 12  1  0  0  0  0
 11 13  1  0  0  0  0
 11 17  1  0  0  0  0
 13 14  1  0  0  0  0
 13 15  1  0  0  0  0
 13 16  1  0  0  0  0
 17 18  1  0  0  0  0
 17 19  1  0  0  0  0
 17 20  1  0  0  0  0
 20 21  1  0  0  0  0
 20 22  1  0  0  0  0
 20 23  1  0  0  0  0
 24 25  2  0  0  0  0
 24 26  1  0  0  0  0
 26 27  1  0  0  0  0
 26 28  1  0  0  0  0
 28 29  1  0  0  0  0
 28 30  1  0  0  0  0
 28 31  1  0  0  0  0
M  END
$$$$

  -OEChem-03222214053D

 31 30  0     1  0  0  0  0  0999 V2000
   -2.9347   -3.8507    1.4587 H   0  0  0  0  0  0  0  0  0  0  0  0
   -2.9355   -2.8358    1.0512 C   0  0  0  0  0  0  0  0  0  0  0  0
   -3.5677   -2.2039    1.6797 H   0  0  0  0  0  0  0  0  0  0  0  0
   -3.3494   -2.8629    0.0404 H   0  0  0  0  0  0  0  0  0  0  0  0
   -1.5227   -2.2841    1.0173 C   0  0  0  0  0  0  0  0  0  0  0  0
   -0.5967   -2.9551    1.4446 O   0  0  0  0  0  0  0  0  0  0  0  0
   -1.2995   -1.0113    0.5357 N   0  0  0  0  0  0  0  0  0  0  0  0
   -2.1155   -0.4519    0.2920 H   0  0  0  0  0  0  0  0  0  0  0  0
    0.0075   -0.3372    0.4682 C   0  0  1  0  0  0  0  0  0  0  0  0
    0.7350   -0.8259    1.1245 H   0  0  0  0  0  0  0  0  0  0  0  0
    0.5122   -0.3863   -1.0073 C   0  0  1  0  0  0  0  0  0  0  0  0
   -0.3280   -0.1562   -1.6721 H   0  0  0  0  0  0  0  0  0  0  0  0
    1.5859    0.6961   -1.2700 C   0  0  0  0  0  0  0  0  0  0  0  0
    2.4405    0.5668   -0.5987 H   0  0  0  0  0  0  0  0  0  0  0  0
    1.9378    0.6547   -2.3044 H   0  0  0  0  0  0  0  0  0  0  0  0
    1.1773    1.7004   -1.1244 H   0  0  0  0  0  0  0  0  0  0  0  0
    1.0143   -1.8260   -1.3431 C   0  0  0  0  0  0  0  0  0  0  0  0
    1.1365   -2.3970   -0.4185 H   0  0  0  0  0  0  0  0  0  0  0  0
    0.2364   -2.3302   -1.9254 H   0  0  0  0  0  0  0  0  0  0  0  0
    2.3450   -1.9507   -2.0964 C   0  0  0  0  0  0  0  0  0  0  0  0
    3.1663   -1.5172   -1.5184 H   0  0  0  0  0  0  0  0  0  0  0  0
    2.5732   -3.0072   -2.2668 H   0  0  0  0  0  0  0  0  0  0  0  0
    2.2878   -1.4558   -3.0704 H   0  0  0  0  0  0  0  0  0  0  0  0
   -0.1837    1.1040    0.9908 C   0  0  0  0  0  0  0  0  0  0  0  0
   -1.1669    1.7559    0.6544 O   0  0  0  0  0  0  0  0  0  0  0  0
    0.7225    1.6542    1.8788 N   0  0  0  0  0  0  0  0  0  0  0  0
    1.4992    1.0725    2.1792 H   0  0  0  0  0  0  0  0  0  0  0  0
    0.5750    2.9867    2.4508 C   0  0  0  0  0  0  0  0  0  0  0  0
   -0.3693    3.0663    2.9996 H   0  0  0  0  0  0  0  0  0  0  0  0
    1.3956    3.1933    3.1445 H   0  0  0  0  0  0  0  0  0  0  0  0
    0.5897    3.7456    1.6615 H   0  0  0  0  0  0  0  0  0  0  0  0
  1  2  1  0  0  0  0
  2  3  1  0  0  0  0
  2  4  1  0  0  0  0
  2  5  1  0  0  0  0
  5  6  2  0  0  0  0
  5  7  1  0  0  0  0
  7  8  1  0  0  0  0
  7  9  1  0  0  0  0
  9 10  1  0  0  0  0
  9 11  1  0  0  0  0
  9 24  1  0  0  0  0
 11 12  1  0  0  0  0
 11 13  1  0  0  0  0
 11 17  1  0  0  0  0
 13 14  1  0  0  0  0
 13 15  1  0  0  0  0
 13 16  1  0  0  0  0
 17 18  1  0  0  0  0
 17 19  1  0  0  0  0
 17 20  1  0  0  0  0
 20 21  1  0  0  0  0
 20 22  1  0  0  0  0
 20 23  1  0  0  0  0
 24 25  2  0  0  0  0
 24 26  1  0  0  0  0
 26 27  1  0  0  0  0
 26 28  1  0  0  0  0
 28 29  1  0  0  0  0
 28 30  1  0  0  0  0
 28 31  1  0  0  0  0
M  END
$$$$

  -OEChem-03222214053D

 31 30  0     1  0  0  0  0  0999 V2000
   -2.9605   -3.8474    1.4653 H   0  0  0  0  0  0  0  0  0  0  0  0
   -2.9507   -2.8347    1.0522 C   0  0  0  0  0  0  0  0  0  0  0  0
   -3.5959   -2.1983    1.6627 H   0  0  0  0  0  0  0  0  0  0  0  0
   -3.3419   -2.8667    0.0325 H   0  0  0  0  0  0  0  0  0  0  0  0
   -1.5366   -2.2851    1.0466 C   0  0  0  0  0  0  0  0  0  0  0  0
   -0.6246   -2.9475    1.5156 O   0  0  0  0  0  0  0  0  0  0  0  0
   -1.3006   -1.0181    0.5557 N   0  0  0  0  0  0  0  0  0  0  0  0
   -2.1106   -0.4640    0.2816 H   0  0  0  0  0  0  0  0  0  0  0  0
    0.0100   -0.3500    0.4844 C   0  0  1  0  0  0  0  0  0  0  0  0
    0.7367   -0.8417    1.1396 H   0  0  0  0  0  0  0  0  0  0  0  0
    0.5234   -0.3926   -0.9885 C   0  0  1  0  0  0  0  0  0  0  0  0
   -0.3289   -0.1725   -1.6411 H   0  0  0  0  0  0  0  0  0  0  0  0
    1.5739    0.7056   -1.2740 C   0  0  0  0  0  0  0  0  0  0  0  0
    2.4276    0.6176   -0.5951 H   0  0  0  0  0  0  0  0  0  0  0  0
    1.9309    0.6399   -2.3057 H   0  0  0  0  0  0  0  0  0  0  0  0
    1.1406    1.7036   -1.1578 H   0  0  0  0  0  0  0  0  0  0  0  0
    1.0288   -1.8250   -1.3473 C   0  0  0  0  0  0  0  0  0  0  0  0
    0.8784   -2.4967   -0.4996 H   0  0  0  0  0  0  0  0  0  0  0  0
    0.4078   -2.2073   -2.1637 H   0  0  0  0  0  0  0  0  0  0  0  0
    2.4979   -1.9661   -1.7674 C   0  0  0  0  0  0  0  0  0  0  0  0
    3.1638   -1.5915   -0.9842 H   0  0  0  0  0  0  0  0  0  0  0  0
    2.7318   -3.0219   -1.9349 H   0  0  0  0  0  0  0  0  0  0  0  0
    2.6960   -1.4271   -2.6983 H   0  0  0  0  0  0  0  0  0  0  0  0
   -0.1786    1.0956    0.9957 C   0  0  0  0  0  0  0  0  0  0  0  0
   -1.1571    1.7488    0.6482 O   0  0  0  0  0  0  0  0  0  0  0  0
    0.7266    1.6513    1.8813 N   0  0  0  0  0  0  0  0  0  0  0  0
    1.4984    1.0688    2.1927 H   0  0  0  0  0  0  0  0  0  0  0  0
    0.5784    2.9882    2.4430 C   0  0  0  0  0  0  0  0  0  0  0  0
   -0.3642    3.0701    2.9945 H   0  0  0  0  0  0  0  0  0  0  0  0
    1.4011    3.2022    3.1319 H   0  0  0  0  0  0  0  0  0  0  0  0
    0.5884    3.7410    1.6479 H   0  0  0  0  0  0  0  0  0  0  0  0
  1  2  1  0  0  0  0
  2  3  1  0  0  0  0
  2  4  1  0  0  0  0
  2  5  1  0  0  0  0
  5  6  2  0  0  0  0
  5  7  1  0  0  0  0
  7  8  1  0  0  0  0
  7  9  1  0  0  0  0
  9 10  1  0  0  0  0
  9 11  1  0  0  0  0
  9 24  1  0  0  0  0
 11 12  1  0  0  0  0
 11 13  1  0  0  0  0
 11 17  1  0  0  0  0
 13 14  1  0  0  0  0
 13 15  1  0  0  0  0
 13 16  1  0  0  0  0
 17 18  1  0  0  0  0
 17 19  1  0  0  0  0
 17 20  1  0  0  0  0
 20 21  1  0  0  0  0
 20 22  1  0  0  0  0
 20 23  1  0  0  0  0
 24 25  2  0  0  0  0
 24 26  1  0  0  0  0
 26 27  1  0  0  0  0
 26 28  1  0  0  0  0
 28 29  1  0  0  0  0
 28 30  1  0  0  0  0
 28 31  1  0  0  0  0
M  END
$$$$

  -OEChem-03222214053D

 31 30  0     1  0  0  0  0  0999 V2000
   -2.9770   -3.8435    1.4886 H   0  0  0  0  0  0  0  0  0  0  0  0
   -2.9653   -2.8336    1.0693 C   0  0  0  0  0  0  0  0  0  0  0  0
   -3.6067   -2.1915    1.6777 H   0  0  0  0  0  0  0  0  0  0  0  0
   -3.3592   -2.8707    0.0508 H   0  0  0  0  0  0  0  0  0  0  0  0
   -1.5498   -2.2880    1.0571 C   0  0  0  0  0  0  0  0  0  0  0  0
   -0.6380   -2.9501    1.5273 O   0  0  0  0  0  0  0  0  0  0  0  0
   -1.3118   -1.0237    0.5602 N   0  0  0  0  0  0  0  0  0  0  0  0
   -2.1208   -0.4674    0.2878 H   0  0  0  0  0  0  0  0  0  0  0  0
    0.0008   -0.3595    0.4875 C   0  0  1  0  0  0  0  0  0  0  0  0
    0.7244   -0.8537    1.1441 H   0  0  0  0  0  0  0  0  0  0  0  0
    0.5284   -0.3975   -0.9793 C   0  0  1  0  0  0  0  0  0  0  0  0
   -0.3281   -0.1843   -1.6288 H   0  0  0  0  0  0  0  0  0  0  0  0
    1.5728    0.7007   -1.2769 C   0  0  0  0  0  0  0  0  0  0  0  0
    2.4152    0.6425   -0.5808 H   0  0  0  0  0  0  0  0  0  0  0  0
    1.9493    0.6008   -2.2993 H   0  0  0  0  0  0  0  0  0  0  0  0
    1.1266    1.6969   -1.1979 H   0  0  0  0  0  0  0  0  0  0  0  0
    1.0389   -1.8212   -1.3502 C   0  0  0  0  0  0  0  0  0  0  0  0
    0.6354   -2.5620   -0.6579 H   0  0  0  0  0  0  0  0  0  0  0  0
    0.6435   -2.0715   -2.3399 H   0  0  0  0  0  0  0  0  0  0  0  0
    2.5612   -2.0053   -1.4056 C   0  0  0  0  0  0  0  0  0  0  0  0
    3.0166   -1.7182   -0.4529 H   0  0  0  0  0  0  0  0  0  0  0  0
    2.7974   -3.0569   -1.5943 H   0  0  0  0  0  0  0  0  0  0  0  0
    3.0068   -1.4123   -2.2091 H   0  0  0  0  0  0  0  0  0  0  0  0
   -0.1820    1.0888    0.9920 C   0  0  0  0  0  0  0  0  0  0  0  0
   -1.1577    1.7450    0.6419 O   0  0  0  0  0  0  0  0  0  0  0  0
    0.7255    1.6437    1.8756 N   0  0  0  0  0  0  0  0  0  0  0  0
    1.4946    1.0587    2.1894 H   0  0  0  0  0  0  0  0  0  0  0  0
    0.5841    2.9837    2.4312 C   0  0  0  0  0  0  0  0  0  0  0  0
   -0.3565    3.0715    2.9852 H   0  0  0  0  0  0  0  0  0  0  0  0
    1.4101    3.1985    3.1160 H   0  0  0  0  0  0  0  0  0  0  0  0
    0.5936    3.7322    1.6320 H   0  0  0  0  0  0  0  0  0  0  0  0
  1  2  1  0  0  0  0
  2  3  1  0  0  0  0
  2  4  1  0  0  0  0
  2  5  1  0  0  0  0
  5  6  2  0  0  0  0
  5  7  1  0  0  0  0
  7  8  1  0  0  0  0
  7  9  1  0  0  0  0
  9 10  1  0  0  0  0
  9 11  1  0  0  0  0
  9 24  1  0  0  0  0
 11 12  1  0  0  0  0
 11 13  1  0  0  0  0
 11 17  1  0  0  0  0
 13 14  1  0  0  0  0
 13 15  1  0  0  0  0
 13 16  1  0  0  0  0
 17 18  1  0  0  0  0
 17 19  1  0  0  0  0
 17 20  1  0  0  0  0
 20 21  1  0  0  0  0
 20 22  1  0  0  0  0
 20 23  1  0  0  0  0
 24 25  2  0  0  0  0
 24 26  1  0  0  0  0
 26 27  1  0  0  0  0
 26 28  1  0  0  0  0
 28 29  1  0  0  0  0
 28 30  1  0  0  0  0
 28 31  1  0  0  0  0
M  END
$$$$

  -OEChem-03222214053D

 31 30  0     1  0  0  0  0  0999 V2000
   -2.9770   -3.8404    1.5143 H   0  0  0  0  0  0  0  0  0  0  0  0
   -2.9706   -2.8317    1.0919 C   0  0  0  0  0  0  0  0  0  0  0  0
   -3.5984   -2.1863    1.7111 H   0  0  0  0  0  0  0  0  0  0  0  0
   -3.3842   -2.8704    0.0812 H   0  0  0  0  0  0  0  0  0  0  0  0
   -1.5541   -2.2907    1.0506 C   0  0  0  0  0  0  0  0  0  0  0  0
   -0.6330   -2.9594    1.4930 O   0  0  0  0  0  0  0  0  0  0  0  0
   -1.3218   -1.0259    0.5522 N   0  0  0  0  0  0  0  0  0  0  0  0
   -2.1333   -0.4644    0.2985 H   0  0  0  0  0  0  0  0  0  0  0  0
   -0.0093   -0.3622    0.4810 C   0  0  1  0  0  0  0  0  0  0  0  0
    0.7106   -0.8566    1.1411 H   0  0  0  0  0  0  0  0  0  0  0  0
    0.5252   -0.3991   -0.9815 C   0  0  1  0  0  0  0  0  0  0  0  0
   -0.3251   -0.1814   -1.6374 H   0  0  0  0  0  0  0  0  0  0  0  0
    1.5875    0.6820   -1.2705 C   0  0  0  0  0  0  0  0  0  0  0  0
    2.4019    0.6390   -0.5408 H   0  0  0  0  0  0  0  0  0  0  0  0
    2.0051    0.5451   -2.2728 H   0  0  0  0  0  0  0  0  0  0  0  0
    1.1440    1.6819   -1.2361 H   0  0  0  0  0  0  0  0  0  0  0  0
    1.0380   -1.8161   -1.3551 C   0  0  0  0  0  0  0  0  0  0  0  0
    0.4369   -2.5809   -0.8585 H   0  0  0  0  0  0  0  0  0  0  0  0
    0.8929   -1.9555   -2.4311 H   0  0  0  0  0  0  0  0  0  0  0  0
    2.5193   -2.0778   -1.0539 C   0  0  0  0  0  0  0  0  0  0  0  0
    2.7351   -1.8810    0.0006 H   0  0  0  0  0  0  0  0  0  0  0  0
    2.7593   -3.1245   -1.2640 H   0  0  0  0  0  0  0  0  0  0  0  0
    3.1690   -1.4529   -1.6732 H   0  0  0  0  0  0  0  0  0  0  0  0
   -0.1884    1.0870    0.9836 C   0  0  0  0  0  0  0  0  0  0  0  0
   -1.1654    1.7430    0.6371 O   0  0  0  0  0  0  0  0  0  0  0  0
    0.7204    1.6402    1.8670 N   0  0  0  0  0  0  0  0  0  0  0  0
    1.4894    1.0542    2.1788 H   0  0  0  0  0  0  0  0  0  0  0  0
    0.5821    2.9804    2.4231 C   0  0  0  0  0  0  0  0  0  0  0  0
   -0.3550    3.0685    2.9828 H   0  0  0  0  0  0  0  0  0  0  0  0
    1.4121    3.1951    3.1031 H   0  0  0  0  0  0  0  0  0  0  0  0
    0.5876    3.7288    1.6237 H   0  0  0  0  0  0  0  0  0  0  0  0
  1  2  1  0  0  0  0
  2  3  1  0  0  0  0
  2  4  1  0  0  0  0
  2  5  1  0  0  0  0
  5  6  2  0  0  0  0
  5  7  1  0  0  0  0
  7  8  1  0  0  0  0
  7  9  1  0  0  0  0
  9 10  1  0  0  0  0
  9 11  1  0  0  0  0
  9 24  1  0  0  0  0
 11 12  1  0  0  0  0
 11 13  1  0  0  0  0
 11 17  1  0  0  0  0
 13 14  1  0  0  0  0
 13 15  1  0  0  0  0
 13 16  1  0  0  0  0
 17 18  1  0  0  0  0
 17 19  1  0  0  0  0
 17 20  1  0  0  0  0
 20 21  1  0  0  0  0
 20 22  1  0  0  0  0
 20 23  1  0  0  0  0
 24 25  2  0  0  0  0
 24 26  1  0  0  0  0
 26 27  1  0  0  0  0
 26 28  1  0  0  0  0
 28 29  1  0  0  0  0
 28 30  1  0  0  0  0
 28 31  1  0  0  0  0
M  END
$$$$

  -OEChem-03222214053D

 31 30  0     1  0  0  0  0  0999 V2000
   -2.9639   -3.8421    1.5282 H   0  0  0  0  0  0  0  0  0  0  0  0
   -2.9648   -2.8325    1.1077 C   0  0  0  0  0  0  0  0  0  0  0  0
   -3.5842   -2.1889    1.7370 H   0  0  0  0  0  0  0  0  0  0  0  0
   -3.3934   -2.8697    0.1033 H   0  0  0  0  0  0  0  0  0  0  0  0
   -1.5496   -2.2897    1.0463 C   0  0  0  0  0  0  0  0  0  0  0  0
   -0.6190   -2.9634    1.4603 O   0  0  0  0  0  0  0  0  0  0  0  0
   -1.3255   -1.0237    0.5476 N   0  0  0  0  0  0  0  0  0  0  0  0
   -2.1400   -0.4591    0.3107 H   0  0  0  0  0  0  0  0  0  0  0  0
   -0.0154   -0.3571    0.4837 C   0  0  1  0  0  0  0  0  0  0  0  0
    0.6992   -0.8454    1.1524 H   0  0  0  0  0  0  0  0  0  0  0  0
    0.5156   -0.4011   -0.9786 C   0  0  1  0  0  0  0  0  0  0  0  0
   -0.3239   -0.1671   -1.6430 H   0  0  0  0  0  0  0  0  0  0  0  0
    1.6086    0.6522   -1.2482 C   0  0  0  0  0  0  0  0  0  0  0  0
    2.3965    0.6048   -0.4903 H   0  0  0  0  0  0  0  0  0  0  0  0
    2.0600    0.4888   -2.2318 H   0  0  0  0  0  0  0  0  0  0  0  0
    1.1837    1.6608   -1.2431 H   0  0  0  0  0  0  0  0  0  0  0  0
    1.0307   -1.8118   -1.3608 C   0  0  0  0  0  0  0  0  0  0  0  0
    0.2899   -2.5633   -1.0745 H   0  0  0  0  0  0  0  0  0  0  0  0
    1.1220   -1.8598   -2.4507 H   0  0  0  0  0  0  0  0  0  0  0  0
    2.3880   -2.1989   -0.7572 C   0  0  0  0  0  0  0  0  0  0  0  0
    2.3605   -2.1441    0.3346 H   0  0  0  0  0  0  0  0  0  0  0  0
    2.6354   -3.2265   -1.0398 H   0  0  0  0  0  0  0  0  0  0  0  0
    3.1857   -1.5474   -1.1248 H   0  0  0  0  0  0  0  0  0  0  0  0
   -0.1971    1.0927    0.9834 C   0  0  0  0  0  0  0  0  0  0  0  0
   -1.1731    1.7468    0.6311 O   0  0  0  0  0  0  0  0  0  0  0  0
    0.7059    1.6492    1.8707 N   0  0  0  0  0  0  0  0  0  0  0  0
    1.4777    1.0674    2.1837 H   0  0  0  0  0  0  0  0  0  0  0  0
    0.5697    2.9957    2.4123 C   0  0  0  0  0  0  0  0  0  0  0  0
   -0.3760    3.0974    2.9551 H   0  0  0  0  0  0  0  0  0  0  0  0
    1.3898    3.2093    3.1045 H   0  0  0  0  0  0  0  0  0  0  0  0
    0.5952    3.7369    1.6066 H   0  0  0  0  0  0  0  0  0  0  0  0
  1  2  1  0  0  0  0
  2  3  1  0  0  0  0
  2  4  1  0  0  0  0
  2  5  1  0  0  0  0
  5  6  2  0  0  0  0
  5  7  1  0  0  0  0
  7  8  1  0  0  0  0
  7  9  1  0  0  0  0
  9 10  1  0  0  0  0
  9 11  1  0  0  0  0
  9 24  1  0  0  0  0
 11 12  1  0  0  0  0
 11 13  1  0  0  0  0
 11 17  1  0  0  0  0
 13 14  1  0  0  0  0
 13 15  1  0  0  0  0
 13 16  1  0  0  0  0
 17 18  1  0  0  0  0
 17 19  1  0  0  0  0
 17 20  1  0  0  0  0
 20 21  1  0  0  0  0
 20 22  1  0  0  0  0
 20 23  1  0  0  0  0
 24 25  2  0  0  0  0
 24 26  1  0  0  0  0
 26 27  1  0  0  0  0
 26 28  1  0  0  0  0
 28 29  1  0  0  0  0
 28 30  1  0  0  0  0
 28 31  1  0  0  0  0
M  END
$$$$

  -OEChem-03222214053D

 31 30  0     1  0  0  0  0  0999 V2000
   -2.9684   -3.8289    1.5459 H   0  0  0  0  0  0  0  0  0  0  0  0
   -2.9673   -2.8219    1.1194 C   0  0  0  0  0  0  0  0  0  0  0  0
   -3.5888   -2.1745    1.7428 H   0  0  0  0  0  0  0  0  0  0  0  0
   -3.3918   -2.8650    0.1135 H   0  0  0  0  0  0  0  0  0  0  0  0
   -1.5513   -2.2806    1.0604 C   0  0  0  0  0  0  0  0  0  0  0  0
   -0.6246   -2.9533    1.4833 O   0  0  0  0  0  0  0  0  0  0  0  0
   -1.3234   -1.0184    0.5544 N   0  0  0  0  0  0  0  0  0  0  0  0
   -2.1366   -0.4553    0.3099 H   0  0  0  0  0  0  0  0  0  0  0  0
   -0.0142   -0.3499    0.4952 C   0  0  1  0  0  0  0  0  0  0  0  0
    0.6966   -0.8246    1.1756 H   0  0  0  0  0  0  0  0  0  0  0  0
    0.5096   -0.4109   -0.9695 C   0  0  1  0  0  0  0  0  0  0  0  0
   -0.3208   -0.1608   -1.6391 H   0  0  0  0  0  0  0  0  0  0  0  0
    1.6277    0.6202   -1.2250 C   0  0  0  0  0  0  0  0  0  0  0  0
    2.4094    0.5493   -0.4627 H   0  0  0  0  0  0  0  0  0  0  0  0
    2.0838    0.4564   -2.2064 H   0  0  0  0  0  0  0  0  0  0  0  0
    1.2254    1.6381   -1.2154 H   0  0  0  0  0  0  0  0  0  0  0  0
    1.0292   -1.8162   -1.3679 C   0  0  0  0  0  0  0  0  0  0  0  0
    0.2012   -2.5287   -1.3020 H   0  0  0  0  0  0  0  0  0  0  0  0
    1.3411   -1.7895   -2.4171 H   0  0  0  0  0  0  0  0  0  0  0  0
    2.1955   -2.3609   -0.5310 C   0  0  0  0  0  0  0  0  0  0  0  0
    1.9047   -2.5088    0.5119 H   0  0  0  0  0  0  0  0  0  0  0  0
    2.5092   -3.3301   -0.9302 H   0  0  0  0  0  0  0  0  0  0  0  0
    3.0546   -1.6858   -0.5669 H   0  0  0  0  0  0  0  0  0  0  0  0
   -0.2016    1.1039    0.9819 C   0  0  0  0  0  0  0  0  0  0  0  0
   -1.1765    1.7532    0.6177 O   0  0  0  0  0  0  0  0  0  0  0  0
    0.6937    1.6695    1.8714 N   0  0  0  0  0  0  0  0  0  0  0  0
    1.4643    1.0922    2.1953 H   0  0  0  0  0  0  0  0  0  0  0  0
    0.5488    3.0186    2.4040 C   0  0  0  0  0  0  0  0  0  0  0  0
   -0.3979    3.1179    2.9454 H   0  0  0  0  0  0  0  0  0  0  0  0
    1.3668    3.2427    3.0954 H   0  0  0  0  0  0  0  0  0  0  0  0
    0.5703    3.7545    1.5933 H   0  0  0  0  0  0  0  0  0  0  0  0
  1  2  1  0  0  0  0
  2  3  1  0  0  0  0
  2  4  1  0  0  0  0
  2  5  1  0  0  0  0
  5  6  2  0  0  0  0
  5  7  1  0  0  0  0
  7  8  1  0  0  0  0
  7  9  1  0  0  0  0
  9 10  1  0  0  0  0
  9 11  1  0  0  0  0
  9 24  1  0  0  0  0
 11 12  1  0  0  0  0
 11 13  1  0  0  0  0
 11 17  1  0  0  0  0
 13 14  1  0  0  0  0
 13 15  1  0  0  0  0
 13 16  1  0  0  0  0
 17 18  1  0  0  0  0
 17 19  1  0  0  0  0
 17 20  1  0  0  0  0
 20 21  1  0  0  0  0
 20 22  1  0  0  0  0
 20 23  1  0  0  0  0
 24 25  2  0  0  0  0
 24 26  1  0  0  0  0
 26 27  1  0  0  0  0
 26 28  1  0  0  0  0
 28 29  1  0  0  0  0
 28 30  1  0  0  0  0
 28 31  1  0  0  0  0
M  END
$$$$

  -OEChem-03222214053D

 31 30  0     1  0  0  0  0  0999 V2000
   -3.0206   -3.8166    1.5357 H   0  0  0  0  0  0  0  0  0  0  0  0
   -2.9858   -2.8183    1.0906 C   0  0  0  0  0  0  0  0  0  0  0  0
   -3.6594   -2.1610    1.6457 H   0  0  0  0  0  0  0  0  0  0  0  0
   -3.3236   -2.8833    0.0534 H   0  0  0  0  0  0  0  0  0  0  0  0
   -1.5716   -2.2715    1.1413 C   0  0  0  0  0  0  0  0  0  0  0  0
   -0.6970   -2.9092    1.7025 O   0  0  0  0  0  0  0  0  0  0  0  0
   -1.3094   -1.0250    0.6148 N   0  0  0  0  0  0  0  0  0  0  0  0
   -2.1076   -0.4906    0.2755 H   0  0  0  0  0  0  0  0  0  0  0  0
    0.0007   -0.3557    0.5425 C   0  0  1  0  0  0  0  0  0  0  0  0
    0.7209   -0.8196    1.2212 H   0  0  0  0  0  0  0  0  0  0  0  0
    0.4985   -0.4259   -0.9356 C   0  0  1  0  0  0  0  0  0  0  0  0
   -0.3338   -0.1511   -1.5933 H   0  0  0  0  0  0  0  0  0  0  0  0
    1.6354    0.5891   -1.1868 C   0  0  0  0  0  0  0  0  0  0  0  0
    2.4462    0.4528   -0.4647 H   0  0  0  0  0  0  0  0  0  0  0  0
    2.0462    0.4691   -2.1941 H   0  0  0  0  0  0  0  0  0  0  0  0
    1.2686    1.6174   -1.1103 H   0  0  0  0  0  0  0  0  0  0  0  0
    1.0228   -1.8161   -1.3857 C   0  0  0  0  0  0  0  0  0  0  0  0
    0.1557   -2.4665   -1.5393 H   0  0  0  0  0  0  0  0  0  0  0  0
    1.5222   -1.7242   -2.3557 H   0  0  0  0  0  0  0  0  0  0  0  0
    1.9660   -2.5344   -0.4108 C   0  0  0  0  0  0  0  0  0  0  0  0
    1.4737   -2.7868    0.5273 H   0  0  0  0  0  0  0  0  0  0  0  0
    2.3172   -3.4674   -0.8619 H   0  0  0  0  0  0  0  0  0  0  0  0
    2.8380   -1.9121   -0.1904 H   0  0  0  0  0  0  0  0  0  0  0  0
   -0.1996    1.1065    0.9992 C   0  0  0  0  0  0  0  0  0  0  0  0
   -1.1662    1.7492    0.6021 O   0  0  0  0  0  0  0  0  0  0  0  0
    0.6892    1.6953    1.8800 N   0  0  0  0  0  0  0  0  0  0  0  0
    1.4477    1.1211    2.2366 H   0  0  0  0  0  0  0  0  0  0  0  0
    0.5347    3.0548    2.3825 C   0  0  0  0  0  0  0  0  0  0  0  0
   -0.4105    3.1575    2.9258 H   0  0  0  0  0  0  0  0  0  0  0  0
    1.3543    3.3014    3.0642 H   0  0  0  0  0  0  0  0  0  0  0  0
    0.5456    3.7724    1.5553 H   0  0  0  0  0  0  0  0  0  0  0  0
  1  2  1  0  0  0  0
  2  3  1  0  0  0  0
  2  4  1  0  0  0  0
  2  5  1  0  0  0  0
  5  6  2  0  0  0  0
  5  7  1  0  0  0  0
  7  8  1  0  0  0  0
  7  9  1  0  0  0  0
  9 10  1  0  0  0  0
  9 11  1  0  0  0  0
  9 24  1  0  0  0  0
 11 12  1  0  0  0  0
 11 13  1  0  0  0  0
 11 17  1  0  0  0  0
 13 14  1  0  0  0  0
 13 15  1  0  0  0  0
 13 16  1  0  0  0  0
 17 18  1  0  0  0  0
 17 19  1  0  0  0  0
 17 20  1  0  0  0  0
 20 21  1  0  0  0  0
 20 22  1  0  0  0  0
 20 23  1  0  0  0  0
 24 25  2  0  0  0  0
 24 26  1  0  0  0  0
 26 27  1  0  0  0  0
 26 28  1  0  0  0  0
 28 29  1  0  0  0  0
 28 30  1  0  0  0  0
 28 31  1  0  0  0  0
M  END
$$$$

  -OEChem-03222214053D

 31 30  0     1  0  0  0  0  0999 V2000
   -3.0384   -3.8096    1.5714 H   0  0  0  0  0  0  0  0  0  0  0  0
   -2.9861   -2.8306    1.0865 C   0  0  0  0  0  0  0  0  0  0  0  0
   -3.7235   -2.1686    1.5470 H   0  0  0  0  0  0  0  0  0  0  0  0
   -3.2246   -2.9500    0.0269 H   0  0  0  0  0  0  0  0  0  0  0  0
   -1.5964   -2.2424    1.2414 C   0  0  0  0  0  0  0  0  0  0  0  0
   -0.7801   -2.7982    1.9575 O   0  0  0  0  0  0  0  0  0  0  0  0
   -1.3131   -1.0158    0.6810 N   0  0  0  0  0  0  0  0  0  0  0  0
   -2.0869   -0.5268    0.2349 H   0  0  0  0  0  0  0  0  0  0  0  0
    0.0062   -0.3659    0.5880 C   0  0  1  0  0  0  0  0  0  0  0  0
    0.7315   -0.8298    1.2628 H   0  0  0  0  0  0  0  0  0  0  0  0
    0.4951   -0.4308   -0.9006 C   0  0  1  0  0  0  0  0  0  0  0  0
   -0.3344   -0.1218   -1.5464 H   0  0  0  0  0  0  0  0  0  0  0  0
    1.6529    0.5695   -1.1341 C   0  0  0  0  0  0  0  0  0  0  0  0
    2.4800    0.3674   -0.4463 H   0  0  0  0  0  0  0  0  0  0  0  0
    2.0297    0.4987   -2.1593 H   0  0  0  0  0  0  0  0  0  0  0  0
    1.3246    1.6037   -0.9956 H   0  0  0  0  0  0  0  0  0  0  0  0
    1.0104   -1.8070   -1.4146 C   0  0  0  0  0  0  0  0  0  0  0  0
    0.1517   -2.3470   -1.8264 H   0  0  0  0  0  0  0  0  0  0  0  0
    1.7097   -1.6631   -2.2442 H   0  0  0  0  0  0  0  0  0  0  0  0
    1.6653   -2.7312   -0.3862 C   0  0  0  0  0  0  0  0  0  0  0  0
    0.9318   -3.1546    0.2946 H   0  0  0  0  0  0  0  0  0  0  0  0
    2.1535   -3.5643   -0.9010 H   0  0  0  0  0  0  0  0  0  0  0  0
    2.4237   -2.1936    0.1907 H   0  0  0  0  0  0  0  0  0  0  0  0
   -0.1996    1.1070    1.0117 C   0  0  0  0  0  0  0  0  0  0  0  0
   -1.1505    1.7493    0.5765 O   0  0  0  0  0  0  0  0  0  0  0  0
    0.6859    1.7177    1.8808 N   0  0  0  0  0  0  0  0  0  0  0  0
    1.4241    1.1442    2.2784 H   0  0  0  0  0  0  0  0  0  0  0  0
    0.5309    3.0911    2.3436 C   0  0  0  0  0  0  0  0  0  0  0  0
   -0.4091    3.2060    2.8938 H   0  0  0  0  0  0  0  0  0  0  0  0
    1.3568    3.3626    3.0080 H   0  0  0  0  0  0  0  0  0  0  0  0
    0.5297    3.7829    1.4946 H   0  0  0  0  0  0  0  0  0  0  0  0
  1  2  1  0  0  0  0
  2  3  1  0  0  0  0
  2  4  1  0  0  0  0
  2  5  1  0  0  0  0
  5  6  2  0  0  0  0
  5  7  1  0  0  0  0
  7  8  1  0  0  0  0
  7  9  1  0  0  0  0
  9 10  1  0  0  0  0
  9 11  1  0  0  0  0
  9 24  1  0  0  0  0
 11 12  1  0  0  0  0
 11 13  1  0  0  0  0
 11 17  1  0  0  0  0
 13 14  1  0  0  0  0
 13 15  1  0  0  0  0
 13 16  1  0  0  0  0
 17 18  1  0  0  0  0
 17 19  1  0  0  0  0
 17 20  1  0  0  0  0
 20 21  1  0  0  0  0
 20 22  1  0  0  0  0
 20 23  1  0  0  0  0
 24 25  2  0  0  0  0
 24 26  1  0  0  0  0
 26 27  1  0  0  0  0
 26 28  1  0  0  0  0
 28 29  1  0  0  0  0
 28 30  1  0  0  0  0
 28 31  1  0  0  0  0
M  END
$$$$

  -OEChem-03222214053D

 31 30  0     1  0  0  0  0  0999 V2000
   -2.9958   -3.8398    1.6343 H   0  0  0  0  0  0  0  0  0  0  0  0
   -2.9696   -2.8542    1.1612 C   0  0  0  0  0  0  0  0  0  0  0  0
   -3.6968   -2.2055    1.6556 H   0  0  0  0  0  0  0  0  0  0  0  0
   -3.2433   -2.9619    0.1089 H   0  0  0  0  0  0  0  0  0  0  0  0
   -1.5807   -2.2553    1.2763 C   0  0  0  0  0  0  0  0  0  0  0  0
   -0.7362   -2.8056    1.9650 O   0  0  0  0  0  0  0  0  0  0  0  0
   -1.3192   -1.0273    0.7087 N   0  0  0  0  0  0  0  0  0  0  0  0
   -2.1040   -0.5373    0.2830 H   0  0  0  0  0  0  0  0  0  0  0  0
   -0.0026   -0.3766    0.5963 C   0  0  1  0  0  0  0  0  0  0  0  0
    0.7309   -0.8323    1.2672 H   0  0  0  0  0  0  0  0  0  0  0  0
    0.4928   -0.4191   -0.8940 C   0  0  1  0  0  0  0  0  0  0  0  0
   -0.3483   -0.1128   -1.5264 H   0  0  0  0  0  0  0  0  0  0  0  0
    1.6252    0.6115   -1.1264 C   0  0  0  0  0  0  0  0  0  0  0  0
    2.4676    0.4122   -0.4564 H   0  0  0  0  0  0  0  0  0  0  0  0
    1.9843    0.5686   -2.1596 H   0  0  0  0  0  0  0  0  0  0  0  0
    1.2801    1.6367   -0.9640 H   0  0  0  0  0  0  0  0  0  0  0  0
    1.0223   -1.7786   -1.4547 C   0  0  0  0  0  0  0  0  0  0  0  0
    0.2586   -2.1770   -2.1304 H   0  0  0  0  0  0  0  0  0  0  0  0
    1.9138   -1.6109   -2.0675 H   0  0  0  0  0  0  0  0  0  0  0  0
    1.3648   -2.8896   -0.4630 C   0  0  0  0  0  0  0  0  0  0  0  0
    1.9733   -3.6498   -0.9622 H   0  0  0  0  0  0  0  0  0  0  0  0
    0.4602   -3.3831   -0.1101 H   0  0  0  0  0  0  0  0  0  0  0  0
    1.9355   -2.5056    0.3869 H   0  0  0  0  0  0  0  0  0  0  0  0
   -0.2214    1.0930    1.0264 C   0  0  0  0  0  0  0  0  0  0  0  0
   -1.1836    1.7271    0.6037 O   0  0  0  0  0  0  0  0  0  0  0  0
    0.6680    1.7102    1.8869 N   0  0  0  0  0  0  0  0  0  0  0  0
    1.4195    1.1440    2.2697 H   0  0  0  0  0  0  0  0  0  0  0  0
    0.5084    3.0819    2.3531 C   0  0  0  0  0  0  0  0  0  0  0  0
   -0.4355    3.1946    2.8968 H   0  0  0  0  0  0  0  0  0  0  0  0
    1.3291    3.3510    3.0249 H   0  0  0  0  0  0  0  0  0  0  0  0
    0.5128    3.7771    1.5069 H   0  0  0  0  0  0  0  0  0  0  0  0
  1  2  1  0  0  0  0
  2  3  1  0  0  0  0
  2  4  1  0  0  0  0
  2  5  1  0  0  0  0
  5  6  2  0  0  0  0
  5  7  1  0  0  0  0
  7  8  1  0  0  0  0
  7  9  1  0  0  0  0
  9 10  1  0  0  0  0
  9 11  1  0  0  0  0
  9 24  1  0  0  0  0
 11 12  1  0  0  0  0
 11 13  1  0  0  0  0
 11 17  1  0  0  0  0
 13 14  1  0  0  0  0
 13 15  1  0  0  0  0
 13 16  1  0  0  0  0
 17 18  1  0  0  0  0
 17 19  1  0  0  0  0
 17 20  1  0  0  0  0
 20 21  1  0  0  0  0
 20 22  1  0  0  0  0
 20 23  1  0  0  0  0
 24 25  2  0  0  0  0
 24 26  1  0  0  0  0
 26 27  1  0  0  0  0
 26 28  1  0  0  0  0
 28 29  1  0  0  0  0
 28 30  1  0  0  0  0
 28 31  1  0  0  0  0
M  END
$$$$

  -OEChem-03222214053D

 31 30  0     1  0  0  0  0  0999 V2000
   -3.1026   -3.7639    1.6671 H   0  0  0  0  0  0  0  0  0  0  0  0
   -3.0490   -2.7816    1.1894 C   0  0  0  0  0  0  0  0  0  0  0  0
   -3.7491   -2.1071    1.6885 H   0  0  0  0  0  0  0  0  0  0  0  0
   -3.3375   -2.8847    0.1406 H   0  0  0  0  0  0  0  0  0  0  0  0
   -1.6398   -2.2288    1.2867 C   0  0  0  0  0  0  0  0  0  0  0  0
   -0.8035   -2.8105    1.9597 O   0  0  0  0  0  0  0  0  0  0  0  0
   -1.3430   -1.0141    0.7065 N   0  0  0  0  0  0  0  0  0  0  0  0
   -2.1167   -0.5008    0.2877 H   0  0  0  0  0  0  0  0  0  0  0  0
   -0.0115   -0.3917    0.5972 C   0  0  1  0  0  0  0  0  0  0  0  0
    0.7041   -0.8546    1.2830 H   0  0  0  0  0  0  0  0  0  0  0  0
    0.5254   -0.4478   -0.8799 C   0  0  1  0  0  0  0  0  0  0  0  0
   -0.3130   -0.1523   -1.5209 H   0  0  0  0  0  0  0  0  0  0  0  0
    1.6503    0.5878   -1.1191 C   0  0  0  0  0  0  0  0  0  0  0  0
    2.4758    0.4259   -0.4187 H   0  0  0  0  0  0  0  0  0  0  0  0
    2.0386    0.5061   -2.1395 H   0  0  0  0  0  0  0  0  0  0  0  0
    1.2866    1.6133   -1.0054 H   0  0  0  0  0  0  0  0  0  0  0  0
    1.0535   -1.8092   -1.4398 C   0  0  0  0  0  0  0  0  0  0  0  0
    0.4802   -2.0485   -2.3414 H   0  0  0  0  0  0  0  0  0  0  0  0
    2.0954   -1.6940   -1.7567 H   0  0  0  0  0  0  0  0  0  0  0  0
    1.0297   -3.0369   -0.5344 C   0  0  0  0  0  0  0  0  0  0  0  0
    0.0083   -3.3994   -0.4102 H   0  0  0  0  0  0  0  0  0  0  0  0
    1.6082   -3.8434   -0.9950 H   0  0  0  0  0  0  0  0  0  0  0  0
    1.4718   -2.8210    0.4421 H   0  0  0  0  0  0  0  0  0  0  0  0
   -0.2096    1.0868    1.0078 C   0  0  0  0  0  0  0  0  0  0  0  0
   -1.1606    1.7295    0.5727 O   0  0  0  0  0  0  0  0  0  0  0  0
    0.6815    1.7005    1.8693 N   0  0  0  0  0  0  0  0  0  0  0  0
    1.4243    1.1291    2.2615 H   0  0  0  0  0  0  0  0  0  0  0  0
    0.5430    3.0819    2.3137 C   0  0  0  0  0  0  0  0  0  0  0  0
   -0.4024    3.2197    2.8490 H   0  0  0  0  0  0  0  0  0  0  0  0
    1.3637    3.3465    2.9873 H   0  0  0  0  0  0  0  0  0  0  0  0
    0.5658    3.7641    1.4572 H   0  0  0  0  0  0  0  0  0  0  0  0
  1  2  1  0  0  0  0
  2  3  1  0  0  0  0
  2  4  1  0  0  0  0
  2  5  1  0  0  0  0
  5  6  2  0  0  0  0
  5  7  1  0  0  0  0
  7  8  1  0  0  0  0
  7  9  1  0  0  0  0
  9 10  1  0  0  0  0
  9 11  1  0  0  0  0
  9 24  1  0  0  0  0
 11 12  1  0  0  0  0
 11 13  1  0  0  0  0
 11 17  1  0  0  0  0
 13 14  1  0  0  0  0
 13 15  1  0  0  0  0
 13 16  1  0  0  0  0
 17 18  1  0  0  0  0
 17 19  1  0  0  0  0
 17 20  1  0  0  0  0
 20 21  1  0  0  0  0
 20 22  1  0  0  0  0
 20 23  1  0  0  0  0
 24 25  2  0  0  0  0
 24 26  1  0  0  0  0
 26 27  1  0  0  0  0
 26 28  1  0  0  0  0
 28 29  1  0  0  0  0
 28 30  1  0  0  0  0
 28 31  1  0  0  0  0
M  END
$$$$

  -OEChem-03222214053D

 31 30  0     1  0  0  0  0  0999 V2000
   -3.1335   -3.7624    1.6797 H   0  0  0  0  0  0  0  0  0  0  0  0
   -3.0743   -2.7767    1.2097 C   0  0  0  0  0  0  0  0  0  0  0  0
   -3.7627   -2.0996    1.7211 H   0  0  0  0  0  0  0  0  0  0  0  0
   -3.3739   -2.8676    0.1629 H   0  0  0  0  0  0  0  0  0  0  0  0
   -1.6588   -2.2388    1.2993 C   0  0  0  0  0  0  0  0  0  0  0  0
   -0.8257   -2.8304    1.9668 O   0  0  0  0  0  0  0  0  0  0  0  0
   -1.3539   -1.0272    0.7163 N   0  0  0  0  0  0  0  0  0  0  0  0
   -2.1280   -0.5085    0.3044 H   0  0  0  0  0  0  0  0  0  0  0  0
   -0.0207   -0.4072    0.5991 C   0  0  1  0  0  0  0  0  0  0  0  0
    0.6946   -0.8765    1.2817 H   0  0  0  0  0  0  0  0  0  0  0  0
    0.5304   -0.4558   -0.8738 C   0  0  1  0  0  0  0  0  0  0  0  0
   -0.3141   -0.1722   -1.5119 H   0  0  0  0  0  0  0  0  0  0  0  0
    1.6451    0.5872   -1.1206 C   0  0  0  0  0  0  0  0  0  0  0  0
    2.4608    0.4554   -0.4026 H   0  0  0  0  0  0  0  0  0  0  0  0
    2.0521    0.4806   -2.1315 H   0  0  0  0  0  0  0  0  0  0  0  0
    1.2643    1.6096   -1.0385 H   0  0  0  0  0  0  0  0  0  0  0  0
    1.0686   -1.8049   -1.4439 C   0  0  0  0  0  0  0  0  0  0  0  0
    0.7202   -1.8989   -2.4777 H   0  0  0  0  0  0  0  0  0  0  0  0
    2.1625   -1.7639   -1.4811 H   0  0  0  0  0  0  0  0  0  0  0  0
    0.7360   -3.0972   -0.7108 C   0  0  0  0  0  0  0  0  0  0  0  0
   -0.3397   -3.2841   -0.7283 H   0  0  0  0  0  0  0  0  0  0  0  0
    1.2274   -3.9392   -1.2076 H   0  0  0  0  0  0  0  0  0  0  0  0
    1.0974   -3.0607    0.3199 H   0  0  0  0  0  0  0  0  0  0  0  0
   -0.2138    1.0724    1.0070 C   0  0  0  0  0  0  0  0  0  0  0  0
   -1.1663    1.7153    0.5755 O   0  0  0  0  0  0  0  0  0  0  0  0
    0.6825    1.6866    1.8629 N   0  0  0  0  0  0  0  0  0  0  0  0
    1.4298    1.1168    2.2489 H   0  0  0  0  0  0  0  0  0  0  0  0
    0.5516    3.0716    2.2981 C   0  0  0  0  0  0  0  0  0  0  0  0
   -0.3925    3.2181    2.8334 H   0  0  0  0  0  0  0  0  0  0  0  0
    1.3743    3.3374    2.9689 H   0  0  0  0  0  0  0  0  0  0  0  0
    0.5767    3.7468    1.4362 H   0  0  0  0  0  0  0  0  0  0  0  0
  1  2  1  0  0  0  0
  2  3  1  0  0  0  0
  2  4  1  0  0  0  0
  2  5  1  0  0  0  0
  5  6  2  0  0  0  0
  5  7  1  0  0  0  0
  7  8  1  0  0  0  0
  7  9  1  0  0  0  0
  9 10  1  0  0  0  0
  9 11  1  0  0  0  0
  9 24  1  0  0  0  0
 11 12  1  0  0  0  0
 11 13  1  0  0  0  0
 11 17  1  0  0  0  0
 13 14  1  0  0  0  0
 13 15  1  0  0  0  0
 13 16  1  0  0  0  0
 17 18  1  0  0  0  0
 17 19  1  0  0  0  0
 17 20  1  0  0  0  0
 20 21  1  0  0  0  0
 20 22  1  0  0  0  0
 20 23  1  0  0  0  0
 24 25  2  0  0  0  0
 24 26  1  0  0  0  0
 26 27  1  0  0  0  0
 26 28  1  0  0  0  0
 28 29  1  0  0  0  0
 28 30  1  0  0  0  0
 28 31  1  0  0  0  0
M  END
$$$$

  -OEChem-03222214053D

 31 30  0     1  0  0  0  0  0999 V2000
   -3.1184   -3.7847    1.6809 H   0  0  0  0  0  0  0  0  0  0  0  0
   -3.0688   -2.7961    1.2156 C   0  0  0  0  0  0  0  0  0  0  0  0
   -3.7633   -2.1278    1.7304 H   0  0  0  0  0  0  0  0  0  0  0  0
   -3.3678   -2.8853    0.1685 H   0  0  0  0  0  0  0  0  0  0  0  0
   -1.6581   -2.2454    1.3067 C   0  0  0  0  0  0  0  0  0  0  0  0
   -0.8226   -2.8257    1.9812 O   0  0  0  0  0  0  0  0  0  0  0  0
   -1.3598   -1.0335    0.7203 N   0  0  0  0  0  0  0  0  0  0  0  0
   -2.1347   -0.5215    0.3023 H   0  0  0  0  0  0  0  0  0  0  0  0
   -0.0268   -0.4149    0.5950 C   0  0  1  0  0  0  0  0  0  0  0  0
    0.6911   -0.8883    1.2723 H   0  0  0  0  0  0  0  0  0  0  0  0
    0.5234   -0.4566   -0.8779 C   0  0  1  0  0  0  0  0  0  0  0  0
   -0.3193   -0.1677   -1.5161 H   0  0  0  0  0  0  0  0  0  0  0  0
    1.6495    0.5744   -1.1189 C   0  0  0  0  0  0  0  0  0  0  0  0
    2.4560    0.4419   -0.3907 H   0  0  0  0  0  0  0  0  0  0  0  0
    2.0684    0.4565   -2.1236 H   0  0  0  0  0  0  0  0  0  0  0  0
    1.2748    1.6001   -1.0478 H   0  0  0  0  0  0  0  0  0  0  0  0
    1.0596   -1.8005   -1.4512 C   0  0  0  0  0  0  0  0  0  0  0  0
    0.9386   -1.7721   -2.5392 H   0  0  0  0  0  0  0  0  0  0  0  0
    2.1341   -1.8657   -1.2485 H   0  0  0  0  0  0  0  0  0  0  0  0
    0.4559   -3.1025   -0.9437 C   0  0  0  0  0  0  0  0  0  0  0  0
   -0.6316   -3.0954   -1.0532 H   0  0  0  0  0  0  0  0  0  0  0  0
    0.8481   -3.9420   -1.5258 H   0  0  0  0  0  0  0  0  0  0  0  0
    0.7307   -3.2680    0.0996 H   0  0  0  0  0  0  0  0  0  0  0  0
   -0.2158    1.0653    1.0036 C   0  0  0  0  0  0  0  0  0  0  0  0
   -1.1680    1.7102    0.5747 O   0  0  0  0  0  0  0  0  0  0  0  0
    0.6861    1.6793    1.8539 N   0  0  0  0  0  0  0  0  0  0  0  0
    1.4327    1.1081    2.2389 H   0  0  0  0  0  0  0  0  0  0  0  0
    0.5595    3.0645    2.2899 C   0  0  0  0  0  0  0  0  0  0  0  0
   -0.3822    3.2125    2.8288 H   0  0  0  0  0  0  0  0  0  0  0  0
    1.3852    3.3282    2.9577 H   0  0  0  0  0  0  0  0  0  0  0  0
    0.5831    3.7403    1.4285 H   0  0  0  0  0  0  0  0  0  0  0  0
  1  2  1  0  0  0  0
  2  3  1  0  0  0  0
  2  4  1  0  0  0  0
  2  5  1  0  0  0  0
  5  6  2  0  0  0  0
  5  7  1  0  0  0  0
  7  8  1  0  0  0  0
  7  9  1  0  0  0  0
  9 10  1  0  0  0  0
  9 11  1  0  0  0  0
  9 24  1  0  0  0  0
 11 12  1  0  0  0  0
 11 13  1  0  0  0  0
 11 17  1  0  0  0  0
 13 14  1  0  0  0  0
 13 15  1  0  0  0  0
 13 16  1  0  0  0  0
 17 18  1  0  0  0  0
 17 19  1  0  0  0  0
 17 20  1  0  0  0  0
 20 21  1  0  0  0  0
 20 22  1  0  0  0  0
 20 23  1  0  0  0  0
 24 25  2  0  0  0  0
 24 26  1  0  0  0  0
 26 27  1  0  0  0  0
 26 28  1  0  0  0  0
 28 29  1  0  0  0  0
 28 30  1  0  0  0  0
 28 31  1  0  0  0  0
M  END
$$$$

  -OEChem-03222214053D

 31 30  0     1  0  0  0  0  0999 V2000
   -3.0664   -3.8245    1.6856 H   0  0  0  0  0  0  0  0  0  0  0  0
   -3.0321   -2.8396    1.2116 C   0  0  0  0  0  0  0  0  0  0  0  0
   -3.7189   -2.1711    1.7363 H   0  0  0  0  0  0  0  0  0  0  0  0
   -3.3529   -2.9382    0.1718 H   0  0  0  0  0  0  0  0  0  0  0  0
   -1.6230   -2.2810    1.2683 C   0  0  0  0  0  0  0  0  0  0  0  0
   -0.7579   -2.8741    1.8934 O   0  0  0  0  0  0  0  0  0  0  0  0
   -1.3528   -1.0513    0.7066 N   0  0  0  0  0  0  0  0  0  0  0  0
   -2.1417   -0.5293    0.3288 H   0  0  0  0  0  0  0  0  0  0  0  0
   -0.0265   -0.4230    0.5737 C   0  0  1  0  0  0  0  0  0  0  0  0
    0.7056   -0.9087    1.2267 H   0  0  0  0  0  0  0  0  0  0  0  0
    0.5024   -0.4267   -0.9057 C   0  0  1  0  0  0  0  0  0  0  0  0
   -0.3379   -0.1136   -1.5355 H   0  0  0  0  0  0  0  0  0  0  0  0
    1.6453    0.5920   -1.1170 C   0  0  0  0  0  0  0  0  0  0  0  0
    2.4499    0.4224   -0.3945 H   0  0  0  0  0  0  0  0  0  0  0  0
    2.0628    0.5007   -2.1250 H   0  0  0  0  0  0  0  0  0  0  0  0
    1.2878    1.6210   -1.0120 H   0  0  0  0  0  0  0  0  0  0  0  0
    1.0313   -1.7619   -1.4973 C   0  0  0  0  0  0  0  0  0  0  0  0
    1.1263   -1.6305   -2.5803 H   0  0  0  0  0  0  0  0  0  0  0  0
    2.0351   -1.9541   -1.1033 H   0  0  0  0  0  0  0  0  0  0  0  0
    0.2065   -3.0214   -1.2603 C   0  0  0  0  0  0  0  0  0  0  0  0
   -0.8572   -2.8285   -1.4259 H   0  0  0  0  0  0  0  0  0  0  0  0
    0.3666   -3.3977   -0.2497 H   0  0  0  0  0  0  0  0  0  0  0  0
    0.5233   -3.8054   -1.9547 H   0  0  0  0  0  0  0  0  0  0  0  0
   -0.2150    1.0448    1.0239 C   0  0  0  0  0  0  0  0  0  0  0  0
   -1.1793    1.6952    0.6319 O   0  0  0  0  0  0  0  0  0  0  0  0
    0.6998    1.6399    1.8735 N   0  0  0  0  0  0  0  0  0  0  0  0
    1.4529    1.0602    2.2325 H   0  0  0  0  0  0  0  0  0  0  0  0
    0.5686    3.0083    2.3576 C   0  0  0  0  0  0  0  0  0  0  0  0
   -0.3637    3.1283    2.9193 H   0  0  0  0  0  0  0  0  0  0  0  0
    1.4049    3.2579    3.0175 H   0  0  0  0  0  0  0  0  0  0  0  0
    0.5682    3.7124    1.5188 H   0  0  0  0  0  0  0  0  0  0  0  0
  1  2  1  0  0  0  0
  2  3  1  0  0  0  0
  2  4  1  0  0  0  0
  2  5  1  0  0  0  0
  5  6  2  0  0  0  0
  5  7  1  0  0  0  0
  7  8  1  0  0  0  0
  7  9  1  0  0  0  0
  9 10  1  0  0  0  0
  9 11  1  0  0  0  0
  9 24  1  0  0  0  0
 11 12  1  0  0  0  0
 11 13  1  0  0  0  0
 11 17  1  0  0  0  0
 13 14  1  0  0  0  0
 13 15  1  0  0  0  0
 13 16  1  0  0  0  0
 17 18  1  0  0  0  0
 17 19  1  0  0  0  0
 17 20  1  0  0  0  0
 20 21  1  0  0  0  0
 20 22  1  0  0  0  0
 20 23  1  0  0  0  0
 24 25  2  0  0  0  0
 24 26  1  0  0  0  0
 26 27  1  0  0  0  0
 26 28  1  0  0  0  0
 28 29  1  0  0  0  0
 28 30  1  0  0  0  0
 28 31  1  0  0  0  0
M  END
$$$$

  -OEChem-03222214053D

 31 30  0     1  0  0  0  0  0999 V2000
   -3.0631   -3.8009    1.6915 H   0  0  0  0  0  0  0  0  0  0  0  0
   -3.0327   -2.8175    1.2138 C   0  0  0  0  0  0  0  0  0  0  0  0
   -3.7061   -2.1438    1.7492 H   0  0  0  0  0  0  0  0  0  0  0  0
   -3.3733   -2.9172    0.1804 H   0  0  0  0  0  0  0  0  0  0  0  0
   -1.6201   -2.2656    1.2420 C   0  0  0  0  0  0  0  0  0  0  0  0
   -0.7401   -2.8698    1.8358 O   0  0  0  0  0  0  0  0  0  0  0  0
   -1.3535   -1.0410    0.6679 N   0  0  0  0  0  0  0  0  0  0  0  0
   -2.1438   -0.5116    0.3033 H   0  0  0  0  0  0  0  0  0  0  0  0
   -0.0258   -0.4172    0.5430 C   0  0  1  0  0  0  0  0  0  0  0  0
    0.6968   -0.8946    1.2123 H   0  0  0  0  0  0  0  0  0  0  0  0
    0.5175   -0.4530   -0.9279 C   0  0  1  0  0  0  0  0  0  0  0  0
   -0.2984   -0.1366   -1.5872 H   0  0  0  0  0  0  0  0  0  0  0  0
    1.6893    0.5352   -1.1239 C   0  0  0  0  0  0  0  0  0  0  0  0
    2.4797    0.3435   -0.3914 H   0  0  0  0  0  0  0  0  0  0  0  0
    2.1173    0.4362   -2.1263 H   0  0  0  0  0  0  0  0  0  0  0  0
    1.3573    1.5727   -1.0221 H   0  0  0  0  0  0  0  0  0  0  0  0
    1.0381   -1.8190   -1.4474 C   0  0  0  0  0  0  0  0  0  0  0  0
    1.3834   -1.6805   -2.4774 H   0  0  0  0  0  0  0  0  0  0  0  0
    1.9024   -2.1309   -0.8519 H   0  0  0  0  0  0  0  0  0  0  0  0
    0.0288   -2.9654   -1.4695 C   0  0  0  0  0  0  0  0  0  0  0  0
   -0.9662   -2.6046   -1.7465 H   0  0  0  0  0  0  0  0  0  0  0  0
    0.3391   -3.7151   -2.2035 H   0  0  0  0  0  0  0  0  0  0  0  0
   -0.0163   -3.4611   -0.5002 H   0  0  0  0  0  0  0  0  0  0  0  0
   -0.2139    1.0565    0.9740 C   0  0  0  0  0  0  0  0  0  0  0  0
   -1.1759    1.7022    0.5690 O   0  0  0  0  0  0  0  0  0  0  0  0
    0.6922    1.6612    1.8265 N   0  0  0  0  0  0  0  0  0  0  0  0
    1.4473    1.0887    2.1929 H   0  0  0  0  0  0  0  0  0  0  0  0
    0.5572    3.0362    2.2913 C   0  0  0  0  0  0  0  0  0  0  0  0
   -0.3782    3.1630    2.8463 H   0  0  0  0  0  0  0  0  0  0  0  0
    1.3896    3.2960    2.9522 H   0  0  0  0  0  0  0  0  0  0  0  0
    0.5606    3.7290    1.4431 H   0  0  0  0  0  0  0  0  0  0  0  0
  1  2  1  0  0  0  0
  2  3  1  0  0  0  0
  2  4  1  0  0  0  0
  2  5  1  0  0  0  0
  5  6  2  0  0  0  0
  5  7  1  0  0  0  0
  7  8  1  0  0  0  0
  7  9  1  0  0  0  0
  9 10  1  0  0  0  0
  9 11  1  0  0  0  0
  9 24  1  0  0  0  0
 11 12  1  0  0  0  0
 11 13  1  0  0  0  0
 11 17  1  0  0  0  0
 13 14  1  0  0  0  0
 13 15  1  0  0  0  0
 13 16  1  0  0  0  0
 17 18  1  0  0  0  0
 17 19  1  0  0  0  0
 17 20  1  0  0  0  0
 20 21  1  0  0  0  0
 20 22  1  0  0  0  0
 20 23  1  0  0  0  0
 24 25  2  0  0  0  0
 24 26  1  0  0  0  0
 26 27  1  0  0  0  0
 26 28  1  0  0  0  0
 28 29  1  0  0  0  0
 28 30  1  0  0  0  0
 28 31  1  0  0  0  0
M  END
$$$$

  -OEChem-03222214053D

 31 30  0     1  0  0  0  0  0999 V2000
   -3.0319   -3.8128    1.6714 H   0  0  0  0  0  0  0  0  0  0  0  0
   -3.0168   -2.8178    1.2179 C   0  0  0  0  0  0  0  0  0  0  0  0
   -3.6515   -2.1514    1.8071 H   0  0  0  0  0  0  0  0  0  0  0  0
   -3.4156   -2.8876    0.2030 H   0  0  0  0  0  0  0  0  0  0  0  0
   -1.5984   -2.2817    1.1806 C   0  0  0  0  0  0  0  0  0  0  0  0
   -0.6895   -2.9222    1.6864 O   0  0  0  0  0  0  0  0  0  0  0  0
   -1.3495   -1.0458    0.6227 N   0  0  0  0  0  0  0  0  0  0  0  0
   -2.1515   -0.4935    0.3227 H   0  0  0  0  0  0  0  0  0  0  0  0
   -0.0272   -0.4115    0.5064 C   0  0  1  0  0  0  0  0  0  0  0  0
    0.6946   -0.8899    1.1759 H   0  0  0  0  0  0  0  0  0  0  0  0
    0.5200   -0.4491   -0.9601 C   0  0  1  0  0  0  0  0  0  0  0  0
   -0.2830   -0.1323   -1.6348 H   0  0  0  0  0  0  0  0  0  0  0  0
    1.6971    0.5358   -1.1434 C   0  0  0  0  0  0  0  0  0  0  0  0
    2.4901    0.3265   -0.4184 H   0  0  0  0  0  0  0  0  0  0  0  0
    2.1192    0.4549   -2.1499 H   0  0  0  0  0  0  0  0  0  0  0  0
    1.3716    1.5731   -1.0211 H   0  0  0  0  0  0  0  0  0  0  0  0
    1.0405   -1.8340   -1.4284 C   0  0  0  0  0  0  0  0  0  0  0  0
    1.6235   -1.6997   -2.3452 H   0  0  0  0  0  0  0  0  0  0  0  0
    1.7142   -2.2516   -0.6728 H   0  0  0  0  0  0  0  0  0  0  0  0
   -0.0486   -2.8590   -1.7551 C   0  0  0  0  0  0  0  0  0  0  0  0
   -0.8829   -2.3857   -2.2815 H   0  0  0  0  0  0  0  0  0  0  0  0
    0.3657   -3.6410   -2.3987 H   0  0  0  0  0  0  0  0  0  0  0  0
   -0.4224   -3.3450   -0.8562 H   0  0  0  0  0  0  0  0  0  0  0  0
   -0.2180    1.0555    0.9564 C   0  0  0  0  0  0  0  0  0  0  0  0
   -1.1909    1.6986    0.5746 O   0  0  0  0  0  0  0  0  0  0  0  0
    0.6888    1.6502    1.8151 N   0  0  0  0  0  0  0  0  0  0  0  0
    1.4588    1.0807    2.1539 H   0  0  0  0  0  0  0  0  0  0  0  0
    0.5508    3.0163    2.3041 C   0  0  0  0  0  0  0  0  0  0  0  0
   -0.3908    3.1354    2.8506 H   0  0  0  0  0  0  0  0  0  0  0  0
    1.3755    3.2614    2.9801 H   0  0  0  0  0  0  0  0  0  0  0  0
    0.5658    3.7245    1.4689 H   0  0  0  0  0  0  0  0  0  0  0  0
  1  2  1  0  0  0  0
  2  3  1  0  0  0  0
  2  4  1  0  0  0  0
  2  5  1  0  0  0  0
  5  6  2  0  0  0  0
  5  7  1  0  0  0  0
  7  8  1  0  0  0  0
  7  9  1  0  0  0  0
  9 10  1  0  0  0  0
  9 11  1  0  0  0  0
  9 24  1  0  0  0  0
 11 12  1  0  0  0  0
 11 13  1  0  0  0  0
 11 17  1  0  0  0  0
 13 14  1  0  0  0  0
 13 15  1  0  0  0  0
 13 16  1  0  0  0  0
 17 18  1  0  0  0  0
 17 19  1  0  0  0  0
 17 20  1  0  0  0  0
 20 21  1  0  0  0  0
 20 22  1  0  0  0  0
 20 23  1  0  0  0  0
 24 25  2  0  0  0  0
 24 26  1  0  0  0  0
 26 27  1  0  0  0  0
 26 28  1  0  0  0  0
 28 29  1  0  0  0  0
 28 30  1  0  0  0  0
 28 31  1  0  0  0  0
M  END
$$$$

  -OEChem-03222214053D

 31 30  0     1  0  0  0  0  0999 V2000
   -2.9791   -3.8364    1.6482 H   0  0  0  0  0  0  0  0  0  0  0  0
   -2.9827   -2.8355    1.2078 C   0  0  0  0  0  0  0  0  0  0  0  0
   -3.5810   -2.1745    1.8396 H   0  0  0  0  0  0  0  0  0  0  0  0
   -3.4363   -2.8888    0.2152 H   0  0  0  0  0  0  0  0  0  0  0  0
   -1.5653   -2.3055    1.1007 C   0  0  0  0  0  0  0  0  0  0  0  0
   -0.6289   -2.9795    1.5012 O   0  0  0  0  0  0  0  0  0  0  0  0
   -1.3437   -1.0508    0.5724 N   0  0  0  0  0  0  0  0  0  0  0  0
   -2.1589   -0.4834    0.3440 H   0  0  0  0  0  0  0  0  0  0  0  0
   -0.0306   -0.3968    0.4699 C   0  0  1  0  0  0  0  0  0  0  0  0
    0.6920   -0.8777    1.1369 H   0  0  0  0  0  0  0  0  0  0  0  0
    0.5147   -0.4351   -0.9935 C   0  0  1  0  0  0  0  0  0  0  0  0
   -0.2869   -0.1345   -1.6772 H   0  0  0  0  0  0  0  0  0  0  0  0
    1.6821    0.5566   -1.1855 C   0  0  0  0  0  0  0  0  0  0  0  0
    2.4846    0.3502   -0.4703 H   0  0  0  0  0  0  0  0  0  0  0  0
    2.0908    0.4787   -2.1979 H   0  0  0  0  0  0  0  0  0  0  0  0
    1.3503    1.5910   -1.0554 H   0  0  0  0  0  0  0  0  0  0  0  0
    1.0373   -1.8380   -1.4005 C   0  0  0  0  0  0  0  0  0  0  0  0
    1.8422   -1.7424   -2.1364 H   0  0  0  0  0  0  0  0  0  0  0  0
    1.4598   -2.3448   -0.5266 H   0  0  0  0  0  0  0  0  0  0  0  0
   -0.0412   -2.7248   -2.0305 C   0  0  0  0  0  0  0  0  0  0  0  0
   -0.4600   -2.2397   -2.9173 H   0  0  0  0  0  0  0  0  0  0  0  0
    0.3982   -3.6795   -2.3346 H   0  0  0  0  0  0  0  0  0  0  0  0
   -0.8535   -2.9343   -1.3357 H   0  0  0  0  0  0  0  0  0  0  0  0
   -0.2188    1.0593    0.9518 C   0  0  0  0  0  0  0  0  0  0  0  0
   -1.2028    1.7033    0.6022 O   0  0  0  0  0  0  0  0  0  0  0  0
    0.6927    1.6357    1.8178 N   0  0  0  0  0  0  0  0  0  0  0  0
    1.4738    1.0651    2.1279 H   0  0  0  0  0  0  0  0  0  0  0  0
    0.5574    2.9910    2.3369 C   0  0  0  0  0  0  0  0  0  0  0  0
   -0.3794    3.0967    2.8941 H   0  0  0  0  0  0  0  0  0  0  0  0
    1.3880    3.2229    3.0106 H   0  0  0  0  0  0  0  0  0  0  0  0
    0.5641    3.7169    1.5170 H   0  0  0  0  0  0  0  0  0  0  0  0
  1  2  1  0  0  0  0
  2  3  1  0  0  0  0
  2  4  1  0  0  0  0
  2  5  1  0  0  0  0
  5  6  2  0  0  0  0
  5  7  1  0  0  0  0
  7  8  1  0  0  0  0
  7  9  1  0  0  0  0
  9 10  1  0  0  0  0
  9 11  1  0  0  0  0
  9 24  1  0  0  0  0
 11 12  1  0  0  0  0
 11 13  1  0  0  0  0
 11 17  1  0  0  0  0
 13 14  1  0  0  0  0
 13 15  1  0  0  0  0
 13 16  1  0  0  0  0
 17 18  1  0  0  0  0
 17 19  1  0  0  0  0
 17 20  1  0  0  0  0
 20 21  1  0  0  0  0
 20 22  1  0  0  0  0
 20 23  1  0  0  0  0
 24 25  2  0  0  0  0
 24 26  1  0  0  0  0
 26 27  1  0  0  0  0
 26 28  1  0  0  0  0
 28 29  1  0  0  0  0
 28 30  1  0  0  0  0
 28 31  1  0  0  0  0
M  END
$$$$

  -OEChem-03222214053D

 31 30  0     1  0  0  0  0  0999 V2000
   -2.9351   -3.8699    1.5397 H   0  0  0  0  0  0  0  0  0  0  0  0
   -2.9422   -2.8630    1.1131 C   0  0  0  0  0  0  0  0  0  0  0  0
   -3.5698   -2.2208    1.7358 H   0  0  0  0  0  0  0  0  0  0  0  0
   -3.3650   -2.9097    0.1067 H   0  0  0  0  0  0  0  0  0  0  0  0
   -1.5311   -2.3094    1.0558 C   0  0  0  0  0  0  0  0  0  0  0  0
   -0.5984   -2.9741    1.4786 O   0  0  0  0  0  0  0  0  0  0  0  0
   -1.3140   -1.0460    0.5478 N   0  0  0  0  0  0  0  0  0  0  0  0
   -2.1312   -0.4907    0.2988 H   0  0  0  0  0  0  0  0  0  0  0  0
   -0.0076   -0.3746    0.4696 C   0  0  1  0  0  0  0  0  0  0  0  0
    0.7188   -0.8556    1.1329 H   0  0  0  0  0  0  0  0  0  0  0  0
    0.5063   -0.4315   -0.9985 C   0  0  1  0  0  0  0  0  0  0  0  0
   -0.3094   -0.1457   -1.6724 H   0  0  0  0  0  0  0  0  0  0  0  0
    1.6642    0.5595   -1.2315 C   0  0  0  0  0  0  0  0  0  0  0  0
    2.4817    0.3694   -0.5289 H   0  0  0  0  0  0  0  0  0  0  0  0
    2.0512    0.4609   -2.2507 H   0  0  0  0  0  0  0  0  0  0  0  0
    1.3298    1.5945   -1.1117 H   0  0  0  0  0  0  0  0  0  0  0  0
    1.0175   -1.8519   -1.3560 C   0  0  0  0  0  0  0  0  0  0  0  0
    1.9703   -1.7963   -1.8922 H   0  0  0  0  0  0  0  0  0  0  0  0
    1.2016   -2.4371   -0.4498 H   0  0  0  0  0  0  0  0  0  0  0  0
    0.0236   -2.5947   -2.2515 C   0  0  0  0  0  0  0  0  0  0  0  0
   -0.1202   -2.0554   -3.1929 H   0  0  0  0  0  0  0  0  0  0  0  0
    0.4013   -3.5960   -2.4800 H   0  0  0  0  0  0  0  0  0  0  0  0
   -0.9454   -2.6964   -1.7552 H   0  0  0  0  0  0  0  0  0  0  0  0
   -0.1951    1.0773    0.9620 C   0  0  0  0  0  0  0  0  0  0  0  0
   -1.1748    1.7245    0.6070 O   0  0  0  0  0  0  0  0  0  0  0  0
    0.7093    1.6470    1.8398 N   0  0  0  0  0  0  0  0  0  0  0  0
    1.4854    1.0728    2.1560 H   0  0  0  0  0  0  0  0  0  0  0  0
    0.5686    2.9988    2.3667 C   0  0  0  0  0  0  0  0  0  0  0  0
   -0.3719    3.0989    2.9186 H   0  0  0  0  0  0  0  0  0  0  0  0
    1.3946    3.2283    3.0467 H   0  0  0  0  0  0  0  0  0  0  0  0
    0.5787    3.7299    1.5515 H   0  0  0  0  0  0  0  0  0  0  0  0
  1  2  1  0  0  0  0
  2  3  1  0  0  0  0
  2  4  1  0  0  0  0
  2  5  1  0  0  0  0
  5  6  2  0  0  0  0
  5  7  1  0  0  0  0
  7  8  1  0  0  0  0
  7  9  1  0  0  0  0
  9 10  1  0  0  0  0
  9 11  1  0  0  0  0
  9 24  1  0  0  0  0
 11 12  1  0  0  0  0
 11 13  1  0  0  0  0
 11 17  1  0  0  0  0
 13 14  1  0  0  0  0
 13 15  1  0  0  0  0
 13 16  1  0  0  0  0
 17 18  1  0  0  0  0
 17 19  1  0  0  0  0
 17 20  1  0  0  0  0
 20 21  1  0  0  0  0
 20 22  1  0  0  0  0
 20 23  1  0  0  0  0
 24 25  2  0  0  0  0
 24 26  1  0  0  0  0
 26 27  1  0  0  0  0
 26 28  1  0  0  0  0
 28 29  1  0  0  0  0
 28 30  1  0  0  0  0
 28 31  1  0  0  0  0
M  END
$$$$

  -OEChem-03222214053D

 31 30  0     1  0  0  0  0  0999 V2000
   -2.9482   -3.8723    1.5119 H   0  0  0  0  0  0  0  0  0  0  0  0
   -2.9462   -2.8666    1.0823 C   0  0  0  0  0  0  0  0  0  0  0  0
   -3.5949   -2.2248    1.6833 H   0  0  0  0  0  0  0  0  0  0  0  0
   -3.3378   -2.9181    0.0635 H   0  0  0  0  0  0  0  0  0  0  0  0
   -1.5364   -2.3073    1.0671 C   0  0  0  0  0  0  0  0  0  0  0  0
   -0.6177   -2.9594    1.5379 O   0  0  0  0  0  0  0  0  0  0  0  0
   -1.3094   -1.0470    0.5558 N   0  0  0  0  0  0  0  0  0  0  0  0
   -2.1223   -0.5005    0.2755 H   0  0  0  0  0  0  0  0  0  0  0  0
   -0.0020   -0.3752    0.4819 C   0  0  1  0  0  0  0  0  0  0  0  0
    0.7242   -0.8577    1.1441 H   0  0  0  0  0  0  0  0  0  0  0  0
    0.5084   -0.4359   -0.9857 C   0  0  1  0  0  0  0  0  0  0  0  0
   -0.3217   -0.1615   -1.6467 H   0  0  0  0  0  0  0  0  0  0  0  0
    1.6508    0.5642   -1.2488 C   0  0  0  0  0  0  0  0  0  0  0  0
    2.4702    0.4108   -0.5394 H   0  0  0  0  0  0  0  0  0  0  0  0
    2.0404    0.4361   -2.2638 H   0  0  0  0  0  0  0  0  0  0  0  0
    1.2984    1.5966   -1.1618 H   0  0  0  0  0  0  0  0  0  0  0  0
    1.0188   -1.8569   -1.3425 C   0  0  0  0  0  0  0  0  0  0  0  0
    2.0788   -1.8331   -1.6162 H   0  0  0  0  0  0  0  0  0  0  0  0
    0.9371   -2.5283   -0.4839 H   0  0  0  0  0  0  0  0  0  0  0  0
    0.2263   -2.4489   -2.5080 C   0  0  0  0  0  0  0  0  0  0  0  0
    0.3270   -1.8204   -3.3983 H   0  0  0  0  0  0  0  0  0  0  0  0
    0.5985   -3.4501   -2.7450 H   0  0  0  0  0  0  0  0  0  0  0  0
   -0.8340   -2.5256   -2.2484 H   0  0  0  0  0  0  0  0  0  0  0  0
   -0.1843    1.0798    0.9651 C   0  0  0  0  0  0  0  0  0  0  0  0
   -1.1563    1.7324    0.5993 O   0  0  0  0  0  0  0  0  0  0  0  0
    0.7208    1.6472    1.8432 N   0  0  0  0  0  0  0  0  0  0  0  0
    1.4866    1.0656    2.1709 H   0  0  0  0  0  0  0  0  0  0  0  0
    0.5842    2.9994    2.3697 C   0  0  0  0  0  0  0  0  0  0  0  0
   -0.3542    3.1014    2.9248 H   0  0  0  0  0  0  0  0  0  0  0  0
    1.4131    3.2272    3.0468 H   0  0  0  0  0  0  0  0  0  0  0  0
    0.5930    3.7304    1.5544 H   0  0  0  0  0  0  0  0  0  0  0  0
  1  2  1  0  0  0  0
  2  3  1  0  0  0  0
  2  4  1  0  0  0  0
  2  5  1  0  0  0  0
  5  6  2  0  0  0  0
  5  7  1  0  0  0  0
  7  8  1  0  0  0  0
  7  9  1  0  0  0  0
  9 10  1  0  0  0  0
  9 11  1  0  0  0  0
  9 24  1  0  0  0  0
 11 12  1  0  0  0  0
 11 13  1  0  0  0  0
 11 17  1  0  0  0  0
 13 14  1  0  0  0  0
 13 15  1  0  0  0  0
 13 16  1  0  0  0  0
 17 18  1  0  0  0  0
 17 19  1  0  0  0  0
 17 20  1  0  0  0  0
 20 21  1  0  0  0  0
 20 22  1  0  0  0  0
 20 23  1  0  0  0  0
 24 25  2  0  0  0  0
 24 26  1  0  0  0  0
 26 27  1  0  0  0  0
 26 28  1  0  0  0  0
 28 29  1  0  0  0  0
 28 30  1  0  0  0  0
 28 31  1  0  0  0  0
M  END
$$$$

  -OEChem-03222214053D

 31 30  0     1  0  0  0  0  0999 V2000
   -2.9754   -3.8623    1.5317 H   0  0  0  0  0  0  0  0  0  0  0  0
   -2.9656   -2.8590    1.0968 C   0  0  0  0  0  0  0  0  0  0  0  0
   -3.6107   -2.2096    1.6935 H   0  0  0  0  0  0  0  0  0  0  0  0
   -3.3570   -2.9131    0.0781 H   0  0  0  0  0  0  0  0  0  0  0  0
   -1.5517   -2.3090    1.0801 C   0  0  0  0  0  0  0  0  0  0  0  0
   -0.6381   -2.9618    1.5598 O   0  0  0  0  0  0  0  0  0  0  0  0
   -1.3162   -1.0519    0.5644 N   0  0  0  0  0  0  0  0  0  0  0  0
   -2.1255   -0.5039    0.2771 H   0  0  0  0  0  0  0  0  0  0  0  0
   -0.0054   -0.3859    0.4874 C   0  0  1  0  0  0  0  0  0  0  0  0
    0.7184   -0.8721    1.1498 H   0  0  0  0  0  0  0  0  0  0  0  0
    0.5143   -0.4408   -0.9777 C   0  0  1  0  0  0  0  0  0  0  0  0
   -0.3225   -0.1723   -1.6327 H   0  0  0  0  0  0  0  0  0  0  0  0
    1.6521    0.5625   -1.2466 C   0  0  0  0  0  0  0  0  0  0  0  0
    2.4679    0.4231   -0.5303 H   0  0  0  0  0  0  0  0  0  0  0  0
    2.0498    0.4232   -2.2569 H   0  0  0  0  0  0  0  0  0  0  0  0
    1.2929    1.5938   -1.1741 H   0  0  0  0  0  0  0  0  0  0  0  0
    1.0255   -1.8556   -1.3479 C   0  0  0  0  0  0  0  0  0  0  0  0
    2.1200   -1.8874   -1.3334 H   0  0  0  0  0  0  0  0  0  0  0  0
    0.6830   -2.5938   -0.6198 H   0  0  0  0  0  0  0  0  0  0  0  0
    0.5178   -2.2850   -2.7249 C   0  0  0  0  0  0  0  0  0  0  0  0
    0.8623   -1.5886   -3.4955 H   0  0  0  0  0  0  0  0  0  0  0  0
    0.8914   -3.2844   -2.9676 H   0  0  0  0  0  0  0  0  0  0  0  0
   -0.5763   -2.3118   -2.7380 H   0  0  0  0  0  0  0  0  0  0  0  0
   -0.1839    1.0715    0.9662 C   0  0  0  0  0  0  0  0  0  0  0  0
   -1.1544    1.7252    0.5981 O   0  0  0  0  0  0  0  0  0  0  0  0
    0.7219    1.6406    1.8426 N   0  0  0  0  0  0  0  0  0  0  0  0
    1.4872    1.0592    2.1721 H   0  0  0  0  0  0  0  0  0  0  0  0
    0.5893    2.9967    2.3607 C   0  0  0  0  0  0  0  0  0  0  0  0
   -0.3481    3.1050    2.9163 H   0  0  0  0  0  0  0  0  0  0  0  0
    1.4195    3.2270    3.0351 H   0  0  0  0  0  0  0  0  0  0  0  0
    0.5987    3.7223    1.5406 H   0  0  0  0  0  0  0  0  0  0  0  0
  1  2  1  0  0  0  0
  2  3  1  0  0  0  0
  2  4  1  0  0  0  0
  2  5  1  0  0  0  0
  5  6  2  0  0  0  0
  5  7  1  0  0  0  0
  7  8  1  0  0  0  0
  7  9  1  0  0  0  0
  9 10  1  0  0  0  0
  9 11  1  0  0  0  0
  9 24  1  0  0  0  0
 11 12  1  0  0  0  0
 11 13  1  0  0  0  0
 11 17  1  0  0  0  0
 13 14  1  0  0  0  0
 13 15  1  0  0  0  0
 13 16  1  0  0  0  0
 17 18  1  0  0  0  0
 17 19  1  0  0  0  0
 17 20  1  0  0  0  0
 20 21  1  0  0  0  0
 20 22  1  0  0  0  0
 20 23  1  0  0  0  0
 24 25  2  0  0  0  0
 24 26  1  0  0  0  0
 26 27  1  0  0  0  0
 26 28  1  0  0  0  0
 28 29  1  0  0  0  0
 28 30  1  0  0  0  0
 28 31  1  0  0  0  0
M  END
$$$$

  -OEChem-03222214053D

 31 30  0     1  0  0  0  0  0999 V2000
   -2.9788   -3.8554    1.5429 H   0  0  0  0  0  0  0  0  0  0  0  0
   -2.9719   -2.8510    1.1101 C   0  0  0  0  0  0  0  0  0  0  0  0
   -3.6053   -2.2005    1.7183 H   0  0  0  0  0  0  0  0  0  0  0  0
   -3.3788   -2.9010    0.0972 H   0  0  0  0  0  0  0  0  0  0  0  0
   -1.5562   -2.3072    1.0726 C   0  0  0  0  0  0  0  0  0  0  0  0
   -0.6371   -2.9683    1.5302 O   0  0  0  0  0  0  0  0  0  0  0  0
   -1.3220   -1.0489    0.5591 N   0  0  0  0  0  0  0  0  0  0  0  0
   -2.1326   -0.4926    0.2914 H   0  0  0  0  0  0  0  0  0  0  0  0
   -0.0093   -0.3870    0.4791 C   0  0  1  0  0  0  0  0  0  0  0  0
    0.7143   -0.8765    1.1395 H   0  0  0  0  0  0  0  0  0  0  0  0
    0.5140   -0.4356   -0.9856 C   0  0  1  0  0  0  0  0  0  0  0  0
   -0.3195   -0.1679   -1.6446 H   0  0  0  0  0  0  0  0  0  0  0  0
    1.6587    0.5674   -1.2351 C   0  0  0  0  0  0  0  0  0  0  0  0
    2.4646    0.4210   -0.5089 H   0  0  0  0  0  0  0  0  0  0  0  0
    2.0727    0.4394   -2.2394 H   0  0  0  0  0  0  0  0  0  0  0  0
    1.3005    1.5987   -1.1591 H   0  0  0  0  0  0  0  0  0  0  0  0
    1.0206   -1.8506   -1.3542 C   0  0  0  0  0  0  0  0  0  0  0  0
    2.0721   -1.9650   -1.0705 H   0  0  0  0  0  0  0  0  0  0  0  0
    0.4579   -2.6098   -0.8071 H   0  0  0  0  0  0  0  0  0  0  0  0
    0.8451   -2.1450   -2.8463 C   0  0  0  0  0  0  0  0  0  0  0  0
    1.4215   -1.4415   -3.4538 H   0  0  0  0  0  0  0  0  0  0  0  0
    1.1925   -3.1582   -3.0699 H   0  0  0  0  0  0  0  0  0  0  0  0
   -0.2094   -2.0713   -3.1298 H   0  0  0  0  0  0  0  0  0  0  0  0
   -0.1879    1.0685    0.9641 C   0  0  0  0  0  0  0  0  0  0  0  0
   -1.1618    1.7214    0.6039 O   0  0  0  0  0  0  0  0  0  0  0  0
    0.7193    1.6356    1.8403 N   0  0  0  0  0  0  0  0  0  0  0  0
    1.4927    1.0581    2.1571 H   0  0  0  0  0  0  0  0  0  0  0  0
    0.5878    2.9909    2.3609 C   0  0  0  0  0  0  0  0  0  0  0  0
   -0.3505    3.0994    2.9152 H   0  0  0  0  0  0  0  0  0  0  0  0
    1.4172    3.2190    3.0372 H   0  0  0  0  0  0  0  0  0  0  0  0
    0.5994    3.7182    1.5424 H   0  0  0  0  0  0  0  0  0  0  0  0
  1  2  1  0  0  0  0
  2  3  1  0  0  0  0
  2  4  1  0  0  0  0
  2  5  1  0  0  0  0
  5  6  2  0  0  0  0
  5  7  1  0  0  0  0
  7  8  1  0  0  0  0
  7  9  1  0  0  0  0
  9 10  1  0  0  0  0
  9 11  1  0  0  0  0
  9 24  1  0  0  0  0
 11 12  1  0  0  0  0
 11 13  1  0  0  0  0
 11 17  1  0  0  0  0
 13 14  1  0  0  0  0
 13 15  1  0  0  0  0
 13 16  1  0  0  0  0
 17 18  1  0  0  0  0
 17 19  1  0  0  0  0
 17 20  1  0  0  0  0
 20 21  1  0  0  0  0
 20 22  1  0  0  0  0
 20 23  1  0  0  0  0
 24 25  2  0  0  0  0
 24 26  1  0  0  0  0
 26 27  1  0  0  0  0
 26 28  1  0  0  0  0
 28 29  1  0  0  0  0
 28 30  1  0  0  0  0
 28 31  1  0  0  0  0
M  END
$$$$

  -OEChem-03222214053D

 31 30  0     1  0  0  0  0  0999 V2000
   -2.9617   -3.8489    1.5413 H   0  0  0  0  0  0  0  0  0  0  0  0
   -2.9633   -2.8425    1.1134 C   0  0  0  0  0  0  0  0  0  0  0  0
   -3.5803   -2.1939    1.7399 H   0  0  0  0  0  0  0  0  0  0  0  0
   -3.3953   -2.8869    0.1108 H   0  0  0  0  0  0  0  0  0  0  0  0
   -1.5477   -2.3013    1.0440 C   0  0  0  0  0  0  0  0  0  0  0  0
   -0.6168   -2.9726    1.4612 O   0  0  0  0  0  0  0  0  0  0  0  0
   -1.3235   -1.0367    0.5413 N   0  0  0  0  0  0  0  0  0  0  0  0
   -2.1387   -0.4730    0.3043 H   0  0  0  0  0  0  0  0  0  0  0  0
   -0.0124   -0.3718    0.4593 C   0  0  1  0  0  0  0  0  0  0  0  0
    0.7128   -0.8635    1.1159 H   0  0  0  0  0  0  0  0  0  0  0  0
    0.5096   -0.4171   -1.0073 C   0  0  1  0  0  0  0  0  0  0  0  0
   -0.3188   -0.1553   -1.6748 H   0  0  0  0  0  0  0  0  0  0  0  0
    1.6535    0.5932   -1.2420 C   0  0  0  0  0  0  0  0  0  0  0  0
    2.4798    0.4061   -0.5489 H   0  0  0  0  0  0  0  0  0  0  0  0
    2.0369    0.5233   -2.2629 H   0  0  0  0  0  0  0  0  0  0  0  0
    1.3057    1.6214   -1.1046 H   0  0  0  0  0  0  0  0  0  0  0  0
    1.0125   -1.8394   -1.3531 C   0  0  0  0  0  0  0  0  0  0  0  0
    1.9531   -2.0425   -0.8305 H   0  0  0  0  0  0  0  0  0  0  0  0
    0.2841   -2.5780   -1.0103 H   0  0  0  0  0  0  0  0  0  0  0  0
    1.1979   -2.0613   -2.8579 C   0  0  0  0  0  0  0  0  0  0  0  0
    2.0187   -1.4562   -3.2514 H   0  0  0  0  0  0  0  0  0  0  0  0
    1.4311   -3.1128   -3.0505 H   0  0  0  0  0  0  0  0  0  0  0  0
    0.2811   -1.8067   -3.3984 H   0  0  0  0  0  0  0  0  0  0  0  0
   -0.1942    1.0778    0.9612 C   0  0  0  0  0  0  0  0  0  0  0  0
   -1.1760    1.7289    0.6195 O   0  0  0  0  0  0  0  0  0  0  0  0
    0.7167    1.6376    1.8383 N   0  0  0  0  0  0  0  0  0  0  0  0
    1.4944    1.0590    2.1423 H   0  0  0  0  0  0  0  0  0  0  0  0
    0.5783    2.9815    2.3855 C   0  0  0  0  0  0  0  0  0  0  0  0
   -0.3543    3.0706    2.9526 H   0  0  0  0  0  0  0  0  0  0  0  0
    1.4133    3.2046    3.0566 H   0  0  0  0  0  0  0  0  0  0  0  0
    0.5737    3.7239    1.5805 H   0  0  0  0  0  0  0  0  0  0  0  0
  1  2  1  0  0  0  0
  2  3  1  0  0  0  0
  2  4  1  0  0  0  0
  2  5  1  0  0  0  0
  5  6  2  0  0  0  0
  5  7  1  0  0  0  0
  7  8  1  0  0  0  0
  7  9  1  0  0  0  0
  9 10  1  0  0  0  0
  9 11  1  0  0  0  0
  9 24  1  0  0  0  0
 11 12  1  0  0  0  0
 11 13  1  0  0  0  0
 11 17  1  0  0  0  0
 13 14  1  0  0  0  0
 13 15  1  0  0  0  0
 13 16  1  0  0  0  0
 17 18  1  0  0  0  0
 17 19  1  0  0  0  0
 17 20  1  0  0  0  0
 20 21  1  0  0  0  0
 20 22  1  0  0  0  0
 20 23  1  0  0  0  0
 24 25  2  0  0  0  0
 24 26  1  0  0  0  0
 26 27  1  0  0  0  0
 26 28  1  0  0  0  0
 28 29  1  0  0  0  0
 28 30  1  0  0  0  0
 28 31  1  0  0  0  0
M  END
$$$$

  -OEChem-03222214053D

 31 30  0     1  0  0  0  0  0999 V2000
   -2.9664   -3.8539    1.5556 H   0  0  0  0  0  0  0  0  0  0  0  0
   -2.9743   -2.8463    1.1309 C   0  0  0  0  0  0  0  0  0  0  0  0
   -3.5782   -2.1986    1.7711 H   0  0  0  0  0  0  0  0  0  0  0  0
   -3.4245   -2.8869    0.1361 H   0  0  0  0  0  0  0  0  0  0  0  0
   -1.5594   -2.3078    1.0367 C   0  0  0  0  0  0  0  0  0  0  0  0
   -0.6202   -2.9903    1.4153 O   0  0  0  0  0  0  0  0  0  0  0  0
   -1.3410   -1.0419    0.5341 N   0  0  0  0  0  0  0  0  0  0  0  0
   -2.1584   -0.4723    0.3201 H   0  0  0  0  0  0  0  0  0  0  0  0
   -0.0298   -0.3769    0.4524 C   0  0  1  0  0  0  0  0  0  0  0  0
    0.6882   -0.8767    1.1108 H   0  0  0  0  0  0  0  0  0  0  0  0
    0.5110   -0.4162   -1.0059 C   0  0  1  0  0  0  0  0  0  0  0  0
   -0.2126    0.0863   -1.6573 H   0  0  0  0  0  0  0  0  0  0  0  0
    1.8559    0.3347   -1.1070 C   0  0  0  0  0  0  0  0  0  0  0  0
    2.6173   -0.1593   -0.4953 H   0  0  0  0  0  0  0  0  0  0  0  0
    2.2071    0.3701   -2.1415 H   0  0  0  0  0  0  0  0  0  0  0  0
    1.7585    1.3715   -0.7739 H   0  0  0  0  0  0  0  0  0  0  0  0
    0.6745   -1.8800   -1.4882 C   0  0  0  0  0  0  0  0  0  0  0  0
    1.3429   -2.4196   -0.8090 H   0  0  0  0  0  0  0  0  0  0  0  0
   -0.2979   -2.3793   -1.4586 H   0  0  0  0  0  0  0  0  0  0  0  0
    1.2041   -2.0091   -2.9200 C   0  0  0  0  0  0  0  0  0  0  0  0
    2.2535   -1.7076   -2.9817 H   0  0  0  0  0  0  0  0  0  0  0  0
    1.1338   -3.0507   -3.2482 H   0  0  0  0  0  0  0  0  0  0  0  0
    0.6148   -1.3905   -3.6038 H   0  0  0  0  0  0  0  0  0  0  0  0
   -0.1983    1.0741    0.9528 C   0  0  0  0  0  0  0  0  0  0  0  0
   -1.1755    1.7316    0.6111 O   0  0  0  0  0  0  0  0  0  0  0  0
    0.7184    1.6293    1.8269 N   0  0  0  0  0  0  0  0  0  0  0  0
    1.4963    1.0482    2.1254 H   0  0  0  0  0  0  0  0  0  0  0  0
    0.5997    2.9809    2.3596 C   0  0  0  0  0  0  0  0  0  0  0  0
   -0.3389    3.0949    2.9122 H   0  0  0  0  0  0  0  0  0  0  0  0
    1.4292    3.1932    3.0410 H   0  0  0  0  0  0  0  0  0  0  0  0
    0.6224    3.7151    1.5474 H   0  0  0  0  0  0  0  0  0  0  0  0
  1  2  1  0  0  0  0
  2  3  1  0  0  0  0
  2  4  1  0  0  0  0
  2  5  1  0  0  0  0
  5  6  2  0  0  0  0
  5  7  1  0  0  0  0
  7  8  1  0  0  0  0
  7  9  1  0  0  0  0
  9 10  1  0  0  0  0
  9 11  1  0  0  0  0
  9 24  1  0  0  0  0
 11 12  1  0  0  0  0
 11 13  1  0  0  0  0
 11 17  1  0  0  0  0
 13 14  1  0  0  0  0
 13 15  1  0  0  0  0
 13 16  1  0  0  0  0
 17 18  1  0  0  0  0
 17 19  1  0  0  0  0
 17 20  1  0  0  0  0
 20 21  1  0  0  0  0
 20 22  1  0  0  0  0
 20 23  1  0  0  0  0
 24 25  2  0  0  0  0
 24 26  1  0  0  0  0
 26 27  1  0  0  0  0
 26 28  1  0  0  0  0
 28 29  1  0  0  0  0
 28 30  1  0  0  0  0
 28 31  1  0  0  0  0
M  END
$$$$

  -OEChem-03222214053D

 31 30  0     1  0  0  0  0  0999 V2000
   -2.9568   -3.8515    1.5192 H   0  0  0  0  0  0  0  0  0  0  0  0
   -2.9607   -2.8416    1.0995 C   0  0  0  0  0  0  0  0  0  0  0  0
   -3.5719   -2.1973    1.7360 H   0  0  0  0  0  0  0  0  0  0  0  0
   -3.4001   -2.8773    0.0997 H   0  0  0  0  0  0  0  0  0  0  0  0
   -1.5456   -2.3010    1.0237 C   0  0  0  0  0  0  0  0  0  0  0  0
   -0.6110   -2.9790    1.4209 O   0  0  0  0  0  0  0  0  0  0  0  0
   -1.3256   -1.0332    0.5277 N   0  0  0  0  0  0  0  0  0  0  0  0
   -2.1426   -0.4670    0.3034 H   0  0  0  0  0  0  0  0  0  0  0  0
   -0.0161   -0.3650    0.4535 C   0  0  1  0  0  0  0  0  0  0  0  0
    0.7038   -0.8647    1.1099 H   0  0  0  0  0  0  0  0  0  0  0  0
    0.5136   -0.4031   -1.0090 C   0  0  1  0  0  0  0  0  0  0  0  0
   -0.2103    0.0967   -1.6620 H   0  0  0  0  0  0  0  0  0  0  0  0
    1.8520    0.3604   -1.1127 C   0  0  0  0  0  0  0  0  0  0  0  0
    2.6224   -0.1347   -0.5131 H   0  0  0  0  0  0  0  0  0  0  0  0
    2.1924    0.4110   -2.1507 H   0  0  0  0  0  0  0  0  0  0  0  0
    1.7505    1.3930   -0.7679 H   0  0  0  0  0  0  0  0  0  0  0  0
    0.6685   -1.8742   -1.4804 C   0  0  0  0  0  0  0  0  0  0  0  0
    1.1327   -2.4627   -0.6821 H   0  0  0  0  0  0  0  0  0  0  0  0
   -0.3270   -2.2917   -1.6608 H   0  0  0  0  0  0  0  0  0  0  0  0
    1.5050   -2.0694   -2.7499 C   0  0  0  0  0  0  0  0  0  0  0  0
    2.5582   -1.8356   -2.5687 H   0  0  0  0  0  0  0  0  0  0  0  0
    1.4440   -3.1120   -3.0765 H   0  0  0  0  0  0  0  0  0  0  0  0
    1.1309   -1.4317   -3.5568 H   0  0  0  0  0  0  0  0  0  0  0  0
   -0.1903    1.0833    0.9592 C   0  0  0  0  0  0  0  0  0  0  0  0
   -1.1677    1.7400    0.6165 O   0  0  0  0  0  0  0  0  0  0  0  0
    0.7220    1.6366    1.8390 N   0  0  0  0  0  0  0  0  0  0  0  0
    1.4960    1.0532    2.1433 H   0  0  0  0  0  0  0  0  0  0  0  0
    0.5927    2.9823    2.3839 C   0  0  0  0  0  0  0  0  0  0  0  0
   -0.3452    3.0816    2.9404 H   0  0  0  0  0  0  0  0  0  0  0  0
    1.4228    3.1966    3.0638 H   0  0  0  0  0  0  0  0  0  0  0  0
    0.6052    3.7241    1.5784 H   0  0  0  0  0  0  0  0  0  0  0  0
  1  2  1  0  0  0  0
  2  3  1  0  0  0  0
  2  4  1  0  0  0  0
  2  5  1  0  0  0  0
  5  6  2  0  0  0  0
  5  7  1  0  0  0  0
  7  8  1  0  0  0  0
  7  9  1  0  0  0  0
  9 10  1  0  0  0  0
  9 11  1  0  0  0  0
  9 24  1  0  0  0  0
 11 12  1  0  0  0  0
 11 13  1  0  0  0  0
 11 17  1  0  0  0  0
 13 14  1  0  0  0  0
 13 15  1  0  0  0  0
 13 16  1  0  0  0  0
 17 18  1  0  0  0  0
 17 19  1  0  0  0  0
 17 20  1  0  0  0  0
 20 21  1  0  0  0  0
 20 22  1  0  0  0  0
 20 23  1  0  0  0  0
 24 25  2  0  0  0  0
 24 26  1  0  0  0  0
 26 27  1  0  0  0  0
 26 28  1  0  0  0  0
 28 29  1  0  0  0  0
 28 30  1  0  0  0  0
 28 31  1  0  0  0  0
M  END
$$$$

  -OEChem-03222214053D

 31 30  0     1  0  0  0  0  0999 V2000
   -2.9606   -3.8505    1.4938 H   0  0  0  0  0  0  0  0  0  0  0  0
   -2.9565   -2.8407    1.0737 C   0  0  0  0  0  0  0  0  0  0  0  0
   -3.5868   -2.1981    1.6931 H   0  0  0  0  0  0  0  0  0  0  0  0
   -3.3686   -2.8782    0.0624 H   0  0  0  0  0  0  0  0  0  0  0  0
   -1.5414   -2.2958    1.0355 C   0  0  0  0  0  0  0  0  0  0  0  0
   -0.6188   -2.9651    1.4731 O   0  0  0  0  0  0  0  0  0  0  0  0
   -1.3113   -1.0303    0.5379 N   0  0  0  0  0  0  0  0  0  0  0  0
   -2.1241   -0.4702    0.2852 H   0  0  0  0  0  0  0  0  0  0  0  0
   -0.0004   -0.3629    0.4655 C   0  0  1  0  0  0  0  0  0  0  0  0
    0.7216   -0.8621    1.1199 H   0  0  0  0  0  0  0  0  0  0  0  0
    0.5199   -0.3994   -1.0018 C   0  0  1  0  0  0  0  0  0  0  0  0
   -0.2095    0.0977   -1.6507 H   0  0  0  0  0  0  0  0  0  0  0  0
    1.8461    0.3868   -1.1089 C   0  0  0  0  0  0  0  0  0  0  0  0
    2.6178   -0.0754   -0.4853 H   0  0  0  0  0  0  0  0  0  0  0  0
    2.1999    0.4177   -2.1432 H   0  0  0  0  0  0  0  0  0  0  0  0
    1.7191    1.4260   -0.7935 H   0  0  0  0  0  0  0  0  0  0  0  0
    0.6704   -1.8724   -1.4831 C   0  0  0  0  0  0  0  0  0  0  0  0
    0.9062   -2.5073   -0.6237 H   0  0  0  0  0  0  0  0  0  0  0  0
   -0.2920   -2.2076   -1.8828 H   0  0  0  0  0  0  0  0  0  0  0  0
    1.7606   -2.1428   -2.5272 C   0  0  0  0  0  0  0  0  0  0  0  0
    2.7568   -1.9487   -2.1187 H   0  0  0  0  0  0  0  0  0  0  0  0
    1.7223   -3.1914   -2.8378 H   0  0  0  0  0  0  0  0  0  0  0  0
    1.6072   -1.5179   -3.4124 H   0  0  0  0  0  0  0  0  0  0  0  0
   -0.1792    1.0866    0.9679 C   0  0  0  0  0  0  0  0  0  0  0  0
   -1.1547    1.7421    0.6174 O   0  0  0  0  0  0  0  0  0  0  0  0
    0.7284    1.6442    1.8501 N   0  0  0  0  0  0  0  0  0  0  0  0
    1.4962    1.0597    2.1680 H   0  0  0  0  0  0  0  0  0  0  0  0
    0.5886    2.9877    2.3979 C   0  0  0  0  0  0  0  0  0  0  0  0
   -0.3490    3.0787    2.9564 H   0  0  0  0  0  0  0  0  0  0  0  0
    1.4178    3.2082    3.0770 H   0  0  0  0  0  0  0  0  0  0  0  0
    0.5935    3.7308    1.5936 H   0  0  0  0  0  0  0  0  0  0  0  0
  1  2  1  0  0  0  0
  2  3  1  0  0  0  0
  2  4  1  0  0  0  0
  2  5  1  0  0  0  0
  5  6  2  0  0  0  0
  5  7  1  0  0  0  0
  7  8  1  0  0  0  0
  7  9  1  0  0  0  0
  9 10  1  0  0  0  0
  9 11  1  0  0  0  0
  9 24  1  0  0  0  0
 11 12  1  0  0  0  0
 11 13  1  0  0  0  0
 11 17  1  0  0  0  0
 13 14  1  0  0  0  0
 13 15  1  0  0  0  0
 13 16  1  0  0  0  0
 17 18  1  0  0  0  0
 17 19  1  0  0  0  0
 17 20  1  0  0  0  0
 20 21  1  0  0  0  0
 20 22  1  0  0  0  0
 20 23  1  0  0  0  0
 24 25  2  0  0  0  0
 24 26  1  0  0  0  0
 26 27  1  0  0  0  0
 26 28  1  0  0  0  0
 28 29  1  0  0  0  0
 28 30  1  0  0  0  0
 28 31  1  0  0  0  0
M  END
$$$$

  -OEChem-03222214053D

 31 30  0     1  0  0  0  0  0999 V2000
   -2.9797   -3.8538    1.4892 H   0  0  0  0  0  0  0  0  0  0  0  0
   -2.9670   -2.8447    1.0679 C   0  0  0  0  0  0  0  0  0  0  0  0
   -3.6129   -2.2025    1.6716 H   0  0  0  0  0  0  0  0  0  0  0  0
   -3.3552   -2.8847    0.0473 H   0  0  0  0  0  0  0  0  0  0  0  0
   -1.5523   -2.2971    1.0624 C   0  0  0  0  0  0  0  0  0  0  0  0
   -0.6426   -2.9561    1.5409 O   0  0  0  0  0  0  0  0  0  0  0  0
   -1.3113   -1.0361    0.5578 N   0  0  0  0  0  0  0  0  0  0  0  0
   -2.1184   -0.4838    0.2721 H   0  0  0  0  0  0  0  0  0  0  0  0
    0.0022   -0.3725    0.4838 C   0  0  1  0  0  0  0  0  0  0  0  0
    0.7234   -0.8718    1.1394 H   0  0  0  0  0  0  0  0  0  0  0  0
    0.5271   -0.4039   -0.9839 C   0  0  1  0  0  0  0  0  0  0  0  0
   -0.2127    0.0888   -1.6247 H   0  0  0  0  0  0  0  0  0  0  0  0
    1.8348    0.4132   -1.0981 C   0  0  0  0  0  0  0  0  0  0  0  0
    2.6103   -0.0042   -0.4482 H   0  0  0  0  0  0  0  0  0  0  0  0
    2.2014    0.4208   -2.1283 H   0  0  0  0  0  0  0  0  0  0  0  0
    1.6749    1.4582   -0.8183 H   0  0  0  0  0  0  0  0  0  0  0  0
    0.6841   -1.8708   -1.4928 C   0  0  0  0  0  0  0  0  0  0  0  0
    0.6543   -2.5541   -0.6412 H   0  0  0  0  0  0  0  0  0  0  0  0
   -0.1749   -2.1093   -2.1282 H   0  0  0  0  0  0  0  0  0  0  0  0
    1.9712   -2.2168   -2.2526 C   0  0  0  0  0  0  0  0  0  0  0  0
    2.8538   -2.0596   -1.6256 H   0  0  0  0  0  0  0  0  0  0  0  0
    1.9513   -3.2700   -2.5486 H   0  0  0  0  0  0  0  0  0  0  0  0
    2.0602   -1.6117   -3.1598 H   0  0  0  0  0  0  0  0  0  0  0  0
   -0.1771    1.0802    0.9773 C   0  0  0  0  0  0  0  0  0  0  0  0
   -1.1450    1.7387    0.6113 O   0  0  0  0  0  0  0  0  0  0  0  0
    0.7289    1.6415    1.8588 N   0  0  0  0  0  0  0  0  0  0  0  0
    1.4930    1.0563    2.1840 H   0  0  0  0  0  0  0  0  0  0  0  0
    0.5970    2.9922    2.3909 C   0  0  0  0  0  0  0  0  0  0  0  0
   -0.3464    3.0991    2.9367 H   0  0  0  0  0  0  0  0  0  0  0  0
    1.4202    3.2097    3.0783 H   0  0  0  0  0  0  0  0  0  0  0  0
    0.6206    3.7275    1.5797 H   0  0  0  0  0  0  0  0  0  0  0  0
  1  2  1  0  0  0  0
  2  3  1  0  0  0  0
  2  4  1  0  0  0  0
  2  5  1  0  0  0  0
  5  6  2  0  0  0  0
  5  7  1  0  0  0  0
  7  8  1  0  0  0  0
  7  9  1  0  0  0  0
  9 10  1  0  0  0  0
  9 11  1  0  0  0  0
  9 24  1  0  0  0  0
 11 12  1  0  0  0  0
 11 13  1  0  0  0  0
 11 17  1  0  0  0  0
 13 14  1  0  0  0  0
 13 15  1  0  0  0  0
 13 16  1  0  0  0  0
 17 18  1  0  0  0  0
 17 19  1  0  0  0  0
 17 20  1  0  0  0  0
 20 21  1  0  0  0  0
 20 22  1  0  0  0  0
 20 23  1  0  0  0  0
 24 25  2  0  0  0  0
 24 26  1  0  0  0  0
 26 27  1  0  0  0  0
 26 28  1  0  0  0  0
 28 29  1  0  0  0  0
 28 30  1  0  0  0  0
 28 31  1  0  0  0  0
M  END
$$$$

  -OEChem-03222214053D

 31 30  0     1  0  0  0  0  0999 V2000
   -3.0151   -3.8326    1.5280 H   0  0  0  0  0  0  0  0  0  0  0  0
   -2.9926   -2.8290    1.0943 C   0  0  0  0  0  0  0  0  0  0  0  0
   -3.6296   -2.1723    1.6919 H   0  0  0  0  0  0  0  0  0  0  0  0
   -3.3840   -2.8768    0.0753 H   0  0  0  0  0  0  0  0  0  0  0  0
   -1.5720   -2.2972    1.0786 C   0  0  0  0  0  0  0  0  0  0  0  0
   -0.6669   -2.9617    1.5584 O   0  0  0  0  0  0  0  0  0  0  0  0
   -1.3212   -1.0411    0.5665 N   0  0  0  0  0  0  0  0  0  0  0  0
   -2.1250   -0.4825    0.2840 H   0  0  0  0  0  0  0  0  0  0  0  0
   -0.0039   -0.3853    0.4894 C   0  0  1  0  0  0  0  0  0  0  0  0
    0.7114   -0.8852    1.1506 H   0  0  0  0  0  0  0  0  0  0  0  0
    0.5417   -0.4173   -0.9719 C   0  0  1  0  0  0  0  0  0  0  0  0
   -0.2132    0.0616   -1.6058 H   0  0  0  0  0  0  0  0  0  0  0  0
    1.8258    0.4322   -1.1047 C   0  0  0  0  0  0  0  0  0  0  0  0
    2.6095    0.0630   -0.4360 H   0  0  0  0  0  0  0  0  0  0  0  0
    2.1967    0.4134   -2.1332 H   0  0  0  0  0  0  0  0  0  0  0  0
    1.6316    1.4809   -0.8620 H   0  0  0  0  0  0  0  0  0  0  0  0
    0.7128   -1.8751   -1.5057 C   0  0  0  0  0  0  0  0  0  0  0  0
    0.3872   -2.5928   -0.7522 H   0  0  0  0  0  0  0  0  0  0  0  0
    0.0511   -2.0005   -2.3688 H   0  0  0  0  0  0  0  0  0  0  0  0
    2.1255   -2.3027   -1.9259 C   0  0  0  0  0  0  0  0  0  0  0  0
    2.8276   -2.1974   -1.0932 H   0  0  0  0  0  0  0  0  0  0  0  0
    2.1157   -3.3539   -2.2299 H   0  0  0  0  0  0  0  0  0  0  0  0
    2.4808   -1.7119   -2.7750 H   0  0  0  0  0  0  0  0  0  0  0  0
   -0.1791    1.0706    0.9747 C   0  0  0  0  0  0  0  0  0  0  0  0
   -1.1473    1.7289    0.6089 O   0  0  0  0  0  0  0  0  0  0  0  0
    0.7284    1.6325    1.8541 N   0  0  0  0  0  0  0  0  0  0  0  0
    1.4898    1.0459    2.1831 H   0  0  0  0  0  0  0  0  0  0  0  0
    0.5953    2.9824    2.3873 C   0  0  0  0  0  0  0  0  0  0  0  0
   -0.3424    3.0839    2.9437 H   0  0  0  0  0  0  0  0  0  0  0  0
    1.4252    3.2050    3.0649 H   0  0  0  0  0  0  0  0  0  0  0  0
    0.6053    3.7174    1.5755 H   0  0  0  0  0  0  0  0  0  0  0  0
  1  2  1  0  0  0  0
  2  3  1  0  0  0  0
  2  4  1  0  0  0  0
  2  5  1  0  0  0  0
  5  6  2  0  0  0  0
  5  7  1  0  0  0  0
  7  8  1  0  0  0  0
  7  9  1  0  0  0  0
  9 10  1  0  0  0  0
  9 11  1  0  0  0  0
  9 24  1  0  0  0  0
 11 12  1  0  0  0  0
 11 13  1  0  0  0  0
 11 17  1  0  0  0  0
 13 14  1  0  0  0  0
 13 15  1  0  0  0  0
 13 16  1  0  0  0  0
 17 18  1  0  0  0  0
 17 19  1  0  0  0  0
 17 20  1  0  0  0  0
 20 21  1  0  0  0  0
 20 22  1  0  0  0  0
 20 23  1  0  0  0  0
 24 25  2  0  0  0  0
 24 26  1  0  0  0  0
 26 27  1  0  0  0  0
 26 28  1  0  0  0  0
 28 29  1  0  0  0  0
 28 30  1  0  0  0  0
 28 31  1  0  0  0  0
M  END
$$$$

  -OEChem-03222214053D

 31 30  0     1  0  0  0  0  0999 V2000
   -3.0249   -3.8326    1.5523 H   0  0  0  0  0  0  0  0  0  0  0  0
   -3.0079   -2.8280    1.1204 C   0  0  0  0  0  0  0  0  0  0  0  0
   -3.6317   -2.1711    1.7314 H   0  0  0  0  0  0  0  0  0  0  0  0
   -3.4188   -2.8727    0.1089 H   0  0  0  0  0  0  0  0  0  0  0  0
   -1.5861   -2.3006    1.0790 C   0  0  0  0  0  0  0  0  0  0  0  0
   -0.6728   -2.9739    1.5306 O   0  0  0  0  0  0  0  0  0  0  0  0
   -1.3380   -1.0443    0.5653 N   0  0  0  0  0  0  0  0  0  0  0  0
   -2.1430   -0.4780    0.3015 H   0  0  0  0  0  0  0  0  0  0  0  0
   -0.0187   -0.3924    0.4887 C   0  0  1  0  0  0  0  0  0  0  0  0
    0.6915   -0.8940    1.1541 H   0  0  0  0  0  0  0  0  0  0  0  0
    0.5454   -0.4220   -0.9643 C   0  0  1  0  0  0  0  0  0  0  0  0
   -0.2142    0.0504   -1.5974 H   0  0  0  0  0  0  0  0  0  0  0  0
    1.8231    0.4330   -1.1052 C   0  0  0  0  0  0  0  0  0  0  0  0
    2.5996    0.0959   -0.4118 H   0  0  0  0  0  0  0  0  0  0  0  0
    2.2098    0.3753   -2.1271 H   0  0  0  0  0  0  0  0  0  0  0  0
    1.6140    1.4875   -0.9026 H   0  0  0  0  0  0  0  0  0  0  0  0
    0.7276   -1.8705   -1.5110 C   0  0  0  0  0  0  0  0  0  0  0  0
    0.1374   -2.5824   -0.9337 H   0  0  0  0  0  0  0  0  0  0  0  0
    0.3307   -1.8947   -2.5309 H   0  0  0  0  0  0  0  0  0  0  0  0
    2.1686   -2.3937   -1.5698 C   0  0  0  0  0  0  0  0  0  0  0  0
    2.6353   -2.3416   -0.5814 H   0  0  0  0  0  0  0  0  0  0  0  0
    2.1668   -3.4391   -1.8927 H   0  0  0  0  0  0  0  0  0  0  0  0
    2.7723   -1.8244   -2.2821 H   0  0  0  0  0  0  0  0  0  0  0  0
   -0.1870    1.0643    0.9727 C   0  0  0  0  0  0  0  0  0  0  0  0
   -1.1529    1.7263    0.6076 O   0  0  0  0  0  0  0  0  0  0  0  0
    0.7231    1.6229    1.8515 N   0  0  0  0  0  0  0  0  0  0  0  0
    1.4870    1.0361    2.1743 H   0  0  0  0  0  0  0  0  0  0  0  0
    0.6019    2.9777    2.3753 C   0  0  0  0  0  0  0  0  0  0  0  0
   -0.3393    3.0944    2.9229 H   0  0  0  0  0  0  0  0  0  0  0  0
    1.4284    3.1942    3.0589 H   0  0  0  0  0  0  0  0  0  0  0  0
    0.6279    3.7075    1.5593 H   0  0  0  0  0  0  0  0  0  0  0  0
  1  2  1  0  0  0  0
  2  3  1  0  0  0  0
  2  4  1  0  0  0  0
  2  5  1  0  0  0  0
  5  6  2  0  0  0  0
  5  7  1  0  0  0  0
  7  8  1  0  0  0  0
  7  9  1  0  0  0  0
  9 10  1  0  0  0  0
  9 11  1  0  0  0  0
  9 24  1  0  0  0  0
 11 12  1  0  0  0  0
 11 13  1  0  0  0  0
 11 17  1  0  0  0  0
 13 14  1  0  0  0  0
 13 15  1  0  0  0  0
 13 16  1  0  0  0  0
 17 18  1  0  0  0  0
 17 19  1  0  0  0  0
 17 20  1  0  0  0  0
 20 21  1  0  0  0  0
 20 22  1  0  0  0  0
 20 23  1  0  0  0  0
 24 25  2  0  0  0  0
 24 26  1  0  0  0  0
 26 27  1  0  0  0  0
 26 28  1  0  0  0  0
 28 29  1  0  0  0  0
 28 30  1  0  0  0  0
 28 31  1  0  0  0  0
M  END
$$$$

  -OEChem-03222214053D

 31 30  0     1  0  0  0  0  0999 V2000
   -3.0147   -3.8356    1.5638 H   0  0  0  0  0  0  0  0  0  0  0  0
   -3.0064   -2.8302    1.1338 C   0  0  0  0  0  0  0  0  0  0  0  0
   -3.6173   -2.1743    1.7587 H   0  0  0  0  0  0  0  0  0  0  0  0
   -3.4380   -2.8725    0.1309 H   0  0  0  0  0  0  0  0  0  0  0  0
   -1.5857   -2.3029    1.0644 C   0  0  0  0  0  0  0  0  0  0  0  0
   -0.6612   -2.9830    1.4817 O   0  0  0  0  0  0  0  0  0  0  0  0
   -1.3487   -1.0430    0.5545 N   0  0  0  0  0  0  0  0  0  0  0  0
   -2.1582   -0.4727    0.3141 H   0  0  0  0  0  0  0  0  0  0  0  0
   -0.0318   -0.3878    0.4803 C   0  0  1  0  0  0  0  0  0  0  0  0
    0.6763   -0.8896    1.1473 H   0  0  0  0  0  0  0  0  0  0  0  0
    0.5375   -0.4200   -0.9680 C   0  0  1  0  0  0  0  0  0  0  0  0
   -0.2165    0.0518   -1.6081 H   0  0  0  0  0  0  0  0  0  0  0  0
    1.8247    0.4171   -1.1071 C   0  0  0  0  0  0  0  0  0  0  0  0
    2.5756    0.1069   -0.3740 H   0  0  0  0  0  0  0  0  0  0  0  0
    2.2443    0.3035   -2.1116 H   0  0  0  0  0  0  0  0  0  0  0  0
    1.6157    1.4808   -0.9584 H   0  0  0  0  0  0  0  0  0  0  0  0
    0.7256   -1.8648   -1.5083 C   0  0  0  0  0  0  0  0  0  0  0  0
   -0.0531   -2.5287   -1.1295 H   0  0  0  0  0  0  0  0  0  0  0  0
    0.6030   -1.8347   -2.5958 H   0  0  0  0  0  0  0  0  0  0  0  0
    2.0954   -2.4916   -1.2197 C   0  0  0  0  0  0  0  0  0  0  0  0
    2.2985   -2.4820   -0.1443 H   0  0  0  0  0  0  0  0  0  0  0  0
    2.1051   -3.5309   -1.5615 H   0  0  0  0  0  0  0  0  0  0  0  0
    2.8974   -1.9592   -1.7389 H   0  0  0  0  0  0  0  0  0  0  0  0
   -0.1930    1.0682    0.9679 C   0  0  0  0  0  0  0  0  0  0  0  0
   -1.1605    1.7322    0.6114 O   0  0  0  0  0  0  0  0  0  0  0  0
    0.7212    1.6210    1.8460 N   0  0  0  0  0  0  0  0  0  0  0  0
    1.4878    1.0326    2.1594 H   0  0  0  0  0  0  0  0  0  0  0  0
    0.6067    2.9748    2.3740 C   0  0  0  0  0  0  0  0  0  0  0  0
   -0.3329    3.0941    2.9236 H   0  0  0  0  0  0  0  0  0  0  0  0
    1.4353    3.1855    3.0567 H   0  0  0  0  0  0  0  0  0  0  0  0
    0.6347    3.7065    1.5599 H   0  0  0  0  0  0  0  0  0  0  0  0
  1  2  1  0  0  0  0
  2  3  1  0  0  0  0
  2  4  1  0  0  0  0
  2  5  1  0  0  0  0
  5  6  2  0  0  0  0
  5  7  1  0  0  0  0
  7  8  1  0  0  0  0
  7  9  1  0  0  0  0
  9 10  1  0  0  0  0
  9 11  1  0  0  0  0
  9 24  1  0  0  0  0
 11 12  1  0  0  0  0
 11 13  1  0  0  0  0
 11 17  1  0  0  0  0
 13 14  1  0  0  0  0
 13 15  1  0  0  0  0
 13 16  1  0  0  0  0
 17 18  1  0  0  0  0
 17 19  1  0  0  0  0
 17 20  1  0  0  0  0
 20 21  1  0  0  0  0
 20 22  1  0  0  0  0
 20 23  1  0  0  0  0
 24 25  2  0  0  0  0
 24 26  1  0  0  0  0
 26 27  1  0  0  0  0
 26 28  1  0  0  0  0
 28 29  1  0  0  0  0
 28 30  1  0  0  0  0
 28 31  1  0  0  0  0
M  END
$$$$

  -OEChem-03222214053D

 31 30  0     1  0  0  0  0  0999 V2000
   -3.0007   -3.8376    1.5687 H   0  0  0  0  0  0  0  0  0  0  0  0
   -2.9975   -2.8328    1.1370 C   0  0  0  0  0  0  0  0  0  0  0  0
   -3.6083   -2.1781    1.7633 H   0  0  0  0  0  0  0  0  0  0  0  0
   -3.4330   -2.8781    0.1360 H   0  0  0  0  0  0  0  0  0  0  0  0
   -1.5787   -2.3011    1.0612 C   0  0  0  0  0  0  0  0  0  0  0  0
   -0.6511   -2.9802    1.4725 O   0  0  0  0  0  0  0  0  0  0  0  0
   -1.3472   -1.0402    0.5515 N   0  0  0  0  0  0  0  0  0  0  0  0
   -2.1592   -0.4718    0.3153 H   0  0  0  0  0  0  0  0  0  0  0  0
   -0.0333   -0.3795    0.4811 C   0  0  1  0  0  0  0  0  0  0  0  0
    0.6741   -0.8762    1.1521 H   0  0  0  0  0  0  0  0  0  0  0  0
    0.5274   -0.4166   -0.9691 C   0  0  1  0  0  0  0  0  0  0  0  0
   -0.2151    0.0652   -1.6153 H   0  0  0  0  0  0  0  0  0  0  0  0
    1.8350    0.3879   -1.0992 C   0  0  0  0  0  0  0  0  0  0  0  0
    2.5627    0.0802   -0.3420 H   0  0  0  0  0  0  0  0  0  0  0  0
    2.2764    0.2383   -2.0896 H   0  0  0  0  0  0  0  0  0  0  0  0
    1.6444    1.4588   -0.9798 H   0  0  0  0  0  0  0  0  0  0  0  0
    0.7163   -1.8582   -1.5066 C   0  0  0  0  0  0  0  0  0  0  0  0
   -0.1857   -2.4489   -1.3279 H   0  0  0  0  0  0  0  0  0  0  0  0
    0.8439   -1.8050   -2.5925 H   0  0  0  0  0  0  0  0  0  0  0  0
    1.9256   -2.6036   -0.9275 C   0  0  0  0  0  0  0  0  0  0  0  0
    1.8705   -2.6430    0.1642 H   0  0  0  0  0  0  0  0  0  0  0  0
    1.9410   -3.6302   -1.3055 H   0  0  0  0  0  0  0  0  0  0  0  0
    2.8642   -2.1229   -1.2171 H   0  0  0  0  0  0  0  0  0  0  0  0
   -0.1945    1.0770    0.9661 C   0  0  0  0  0  0  0  0  0  0  0  0
   -1.1635    1.7390    0.6098 O   0  0  0  0  0  0  0  0  0  0  0  0
    0.7180    1.6317    1.8447 N   0  0  0  0  0  0  0  0  0  0  0  0
    1.4834    1.0438    2.1621 H   0  0  0  0  0  0  0  0  0  0  0  0
    0.5985    2.9846    2.3738 C   0  0  0  0  0  0  0  0  0  0  0  0
   -0.3386    3.0977    2.9290 H   0  0  0  0  0  0  0  0  0  0  0  0
    1.4298    3.2007    3.0515 H   0  0  0  0  0  0  0  0  0  0  0  0
    0.6169    3.7171    1.5600 H   0  0  0  0  0  0  0  0  0  0  0  0
  1  2  1  0  0  0  0
  2  3  1  0  0  0  0
  2  4  1  0  0  0  0
  2  5  1  0  0  0  0
  5  6  2  0  0  0  0
  5  7  1  0  0  0  0
  7  8  1  0  0  0  0
  7  9  1  0  0  0  0
  9 10  1  0  0  0  0
  9 11  1  0  0  0  0
  9 24  1  0  0  0  0
 11 12  1  0  0  0  0
 11 13  1  0  0  0  0
 11 17  1  0  0  0  0
 13 14  1  0  0  0  0
 13 15  1  0  0  0  0
 13 16  1  0  0  0  0
 17 18  1  0  0  0  0
 17 19  1  0  0  0  0
 17 20  1  0  0  0  0
 20 21  1  0  0  0  0
 20 22  1  0  0  0  0
 20 23  1  0  0  0  0
 24 25  2  0  0  0  0
 24 26  1  0  0  0  0
 26 27  1  0  0  0  0
 26 28  1  0  0  0  0
 28 29  1  0  0  0  0
 28 30  1  0  0  0  0
 28 31  1  0  0  0  0
M  END
$$$$

  -OEChem-03222214053D

 31 30  0     1  0  0  0  0  0999 V2000
   -3.0250   -3.8359    1.5525 H   0  0  0  0  0  0  0  0  0  0  0  0
   -2.9977   -2.8381    1.1057 C   0  0  0  0  0  0  0  0  0  0  0  0
   -3.6587   -2.1791    1.6740 H   0  0  0  0  0  0  0  0  0  0  0  0
   -3.3569   -2.9037    0.0759 H   0  0  0  0  0  0  0  0  0  0  0  0
   -1.5819   -2.2938    1.1259 C   0  0  0  0  0  0  0  0  0  0  0  0
   -0.6915   -2.9412    1.6511 O   0  0  0  0  0  0  0  0  0  0  0  0
   -1.3284   -1.0449    0.5998 N   0  0  0  0  0  0  0  0  0  0  0  0
   -2.1311   -0.5030    0.2840 H   0  0  0  0  0  0  0  0  0  0  0  0
   -0.0171   -0.3789    0.5232 C   0  0  1  0  0  0  0  0  0  0  0  0
    0.6983   -0.8621    1.1952 H   0  0  0  0  0  0  0  0  0  0  0  0
    0.5107   -0.4234   -0.9413 C   0  0  1  0  0  0  0  0  0  0  0  0
   -0.2279    0.0774   -1.5774 H   0  0  0  0  0  0  0  0  0  0  0  0
    1.8378    0.3490   -1.0726 C   0  0  0  0  0  0  0  0  0  0  0  0
    2.5687   -0.0007   -0.3371 H   0  0  0  0  0  0  0  0  0  0  0  0
    2.2609    0.2159   -2.0730 H   0  0  0  0  0  0  0  0  0  0  0  0
    1.6803    1.4212   -0.9218 H   0  0  0  0  0  0  0  0  0  0  0  0
    0.7026   -1.8507   -1.5112 C   0  0  0  0  0  0  0  0  0  0  0  0
   -0.2666   -2.3588   -1.5211 H   0  0  0  0  0  0  0  0  0  0  0  0
    1.0326   -1.7786   -2.5525 H   0  0  0  0  0  0  0  0  0  0  0  0
    1.6996   -2.7296   -0.7431 C   0  0  0  0  0  0  0  0  0  0  0  0
    1.4425   -2.8098    0.3136 H   0  0  0  0  0  0  0  0  0  0  0  0
    1.7039   -3.7376   -1.1682 H   0  0  0  0  0  0  0  0  0  0  0  0
    2.7121   -2.3234   -0.8218 H   0  0  0  0  0  0  0  0  0  0  0  0
   -0.1896    1.0852    0.9815 C   0  0  0  0  0  0  0  0  0  0  0  0
   -1.1523    1.7408    0.5971 O   0  0  0  0  0  0  0  0  0  0  0  0
    0.7160    1.6594    1.8546 N   0  0  0  0  0  0  0  0  0  0  0  0
    1.4691    1.0735    2.2033 H   0  0  0  0  0  0  0  0  0  0  0  0
    0.5875    3.0205    2.3598 C   0  0  0  0  0  0  0  0  0  0  0  0
   -0.3474    3.1354    2.9184 H   0  0  0  0  0  0  0  0  0  0  0  0
    1.4214    3.2562    3.0281 H   0  0  0  0  0  0  0  0  0  0  0  0
    0.5943    3.7384    1.5327 H   0  0  0  0  0  0  0  0  0  0  0  0
  1  2  1  0  0  0  0
  2  3  1  0  0  0  0
  2  4  1  0  0  0  0
  2  5  1  0  0  0  0
  5  6  2  0  0  0  0
  5  7  1  0  0  0  0
  7  8  1  0  0  0  0
  7  9  1  0  0  0  0
  9 10  1  0  0  0  0
  9 11  1  0  0  0  0
  9 24  1  0  0  0  0
 11 12  1  0  0  0  0
 11 13  1  0  0  0  0
 11 17  1  0  0  0  0
 13 14  1  0  0  0  0
 13 15  1  0  0  0  0
 13 16  1  0  0  0  0
 17 18  1  0  0  0  0
 17 19  1  0  0  0  0
 17 20  1  0  0  0  0
 20 21  1  0  0  0  0
 20 22  1  0  0  0  0
 20 23  1  0  0  0  0
 24 25  2  0  0  0  0
 24 26  1  0  0  0  0
 26 27  1  0  0  0  0
 26 28  1  0  0  0  0
 28 29  1  0  0  0  0
 28 30  1  0  0  0  0
 28 31  1  0  0  0  0
M  END
$$$$

  -OEChem-03222214053D

 31 30  0     1  0  0  0  0  0999 V2000
   -3.0353   -3.8459    1.5621 H   0  0  0  0  0  0  0  0  0  0  0  0
   -2.9892   -2.8627    1.0855 C   0  0  0  0  0  0  0  0  0  0  0  0
   -3.7331   -2.2102    1.5492 H   0  0  0  0  0  0  0  0  0  0  0  0
   -3.2237   -2.9754    0.0243 H   0  0  0  0  0  0  0  0  0  0  0  0
   -1.6043   -2.2658    1.2491 C   0  0  0  0  0  0  0  0  0  0  0  0
   -0.7891   -2.8155    1.9715 O   0  0  0  0  0  0  0  0  0  0  0  0
   -1.3237   -1.0401    0.6843 N   0  0  0  0  0  0  0  0  0  0  0  0
   -2.0963   -0.5604    0.2265 H   0  0  0  0  0  0  0  0  0  0  0  0
   -0.0061   -0.3868    0.5858 C   0  0  1  0  0  0  0  0  0  0  0  0
    0.7190   -0.8657    1.2513 H   0  0  0  0  0  0  0  0  0  0  0  0
    0.4944   -0.4308   -0.8946 C   0  0  1  0  0  0  0  0  0  0  0  0
   -0.2373    0.1015   -1.5128 H   0  0  0  0  0  0  0  0  0  0  0  0
    1.8402    0.3155   -1.0193 C   0  0  0  0  0  0  0  0  0  0  0  0
    2.5795   -0.0994   -0.3275 H   0  0  0  0  0  0  0  0  0  0  0  0
    2.2354    0.2353   -2.0368 H   0  0  0  0  0  0  0  0  0  0  0  0
    1.7218    1.3816   -0.8037 H   0  0  0  0  0  0  0  0  0  0  0  0
    0.6831   -1.8318   -1.5326 C   0  0  0  0  0  0  0  0  0  0  0  0
   -0.3090   -2.2315   -1.7652 H   0  0  0  0  0  0  0  0  0  0  0  0
    1.2132   -1.7335   -2.4855 H   0  0  0  0  0  0  0  0  0  0  0  0
    1.4063   -2.8718   -0.6707 C   0  0  0  0  0  0  0  0  0  0  0  0
    0.8549   -3.1115    0.2329 H   0  0  0  0  0  0  0  0  0  0  0  0
    1.5305   -3.7972   -1.2411 H   0  0  0  0  0  0  0  0  0  0  0  0
    2.3982   -2.5105   -0.3851 H   0  0  0  0  0  0  0  0  0  0  0  0
   -0.1830    1.0915    1.0003 C   0  0  0  0  0  0  0  0  0  0  0  0
   -1.1273    1.7460    0.5701 O   0  0  0  0  0  0  0  0  0  0  0  0
    0.7202    1.6920    1.8585 N   0  0  0  0  0  0  0  0  0  0  0  0
    1.4515    1.1079    2.2537 H   0  0  0  0  0  0  0  0  0  0  0  0
    0.5918    3.0699    2.3161 C   0  0  0  0  0  0  0  0  0  0  0  0
   -0.3420    3.2034    2.8721 H   0  0  0  0  0  0  0  0  0  0  0  0
    1.4269    3.3298    2.9736 H   0  0  0  0  0  0  0  0  0  0  0  0
    0.5963    3.7585    1.4646 H   0  0  0  0  0  0  0  0  0  0  0  0
  1  2  1  0  0  0  0
  2  3  1  0  0  0  0
  2  4  1  0  0  0  0
  2  5  1  0  0  0  0
  5  6  2  0  0  0  0
  5  7  1  0  0  0  0
  7  8  1  0  0  0  0
  7  9  1  0  0  0  0
  9 10  1  0  0  0  0
  9 11  1  0  0  0  0
  9 24  1  0  0  0  0
 11 12  1  0  0  0  0
 11 13  1  0  0  0  0
 11 17  1  0  0  0  0
 13 14  1  0  0  0  0
 13 15  1  0  0  0  0
 13 16  1  0  0  0  0
 17 18  1  0  0  0  0
 17 19  1  0  0  0  0
 17 20  1  0  0  0  0
 20 21  1  0  0  0  0
 20 22  1  0  0  0  0
 20 23  1  0  0  0  0
 24 25  2  0  0  0  0
 24 26  1  0  0  0  0
 26 27  1  0  0  0  0
 26 28  1  0  0  0  0
 28 29  1  0  0  0  0
 28 30  1  0  0  0  0
 28 31  1  0  0  0  0
M  END
$$$$

  -OEChem-03222214053D

 31 30  0     1  0  0  0  0  0999 V2000
   -2.9928   -3.8563    1.6613 H   0  0  0  0  0  0  0  0  0  0  0  0
   -2.9726   -2.8747    1.1797 C   0  0  0  0  0  0  0  0  0  0  0  0
   -3.6948   -2.2223    1.6766 H   0  0  0  0  0  0  0  0  0  0  0  0
   -3.2573   -2.9912    0.1313 H   0  0  0  0  0  0  0  0  0  0  0  0
   -1.5830   -2.2742    1.2747 C   0  0  0  0  0  0  0  0  0  0  0  0
   -0.7243   -2.8294    1.9422 O   0  0  0  0  0  0  0  0  0  0  0  0
   -1.3291   -1.0469    0.7015 N   0  0  0  0  0  0  0  0  0  0  0  0
   -2.1184   -0.5564    0.2851 H   0  0  0  0  0  0  0  0  0  0  0  0
   -0.0143   -0.3935    0.5862 C   0  0  1  0  0  0  0  0  0  0  0  0
    0.7174   -0.8635    1.2504 H   0  0  0  0  0  0  0  0  0  0  0  0
    0.4938   -0.4152   -0.8952 C   0  0  1  0  0  0  0  0  0  0  0  0
   -0.2270    0.1409   -1.5055 H   0  0  0  0  0  0  0  0  0  0  0  0
    1.8487    0.3241   -0.9825 C   0  0  0  0  0  0  0  0  0  0  0  0
    2.5928   -0.1617   -0.3432 H   0  0  0  0  0  0  0  0  0  0  0  0
    2.2244    0.3276   -2.0105 H   0  0  0  0  0  0  0  0  0  0  0  0
    1.7562    1.3703   -0.6789 H   0  0  0  0  0  0  0  0  0  0  0  0
    0.6999   -1.7952   -1.5858 C   0  0  0  0  0  0  0  0  0  0  0  0
   -0.2370   -2.0650   -2.0839 H   0  0  0  0  0  0  0  0  0  0  0  0
    1.4507   -1.7020   -2.3771 H   0  0  0  0  0  0  0  0  0  0  0  0
    1.0930   -2.9751   -0.6954 C   0  0  0  0  0  0  0  0  0  0  0  0
    1.6208   -3.7246   -1.2926 H   0  0  0  0  0  0  0  0  0  0  0  0
    0.2106   -3.4603   -0.2802 H   0  0  0  0  0  0  0  0  0  0  0  0
    1.7554   -2.6582    0.1151 H   0  0  0  0  0  0  0  0  0  0  0  0
   -0.2135    1.0811    1.0074 C   0  0  0  0  0  0  0  0  0  0  0  0
   -1.1758    1.7197    0.5930 O   0  0  0  0  0  0  0  0  0  0  0  0
    0.6864    1.6943    1.8603 N   0  0  0  0  0  0  0  0  0  0  0  0
    1.4371    1.1241    2.2387 H   0  0  0  0  0  0  0  0  0  0  0  0
    0.5393    3.0678    2.3255 C   0  0  0  0  0  0  0  0  0  0  0  0
   -0.3967    3.1861    2.8816 H   0  0  0  0  0  0  0  0  0  0  0  0
    1.3702    3.3343    2.9857 H   0  0  0  0  0  0  0  0  0  0  0  0
    0.5362    3.7609    1.4778 H   0  0  0  0  0  0  0  0  0  0  0  0
  1  2  1  0  0  0  0
  2  3  1  0  0  0  0
  2  4  1  0  0  0  0
  2  5  1  0  0  0  0
  5  6  2  0  0  0  0
  5  7  1  0  0  0  0
  7  8  1  0  0  0  0
  7  9  1  0  0  0  0
  9 10  1  0  0  0  0
  9 11  1  0  0  0  0
  9 24  1  0  0  0  0
 11 12  1  0  0  0  0
 11 13  1  0  0  0  0
 11 17  1  0  0  0  0
 13 14  1  0  0  0  0
 13 15  1  0  0  0  0
 13 16  1  0  0  0  0
 17 18  1  0  0  0  0
 17 19  1  0  0  0  0
 17 20  1  0  0  0  0
 20 21  1  0  0  0  0
 20 22  1  0  0  0  0
 20 23  1  0  0  0  0
 24 25  2  0  0  0  0
 24 26  1  0  0  0  0
 26 27  1  0  0  0  0
 26 28  1  0  0  0  0
 28 29  1  0  0  0  0
 28 30  1  0  0  0  0
 28 31  1  0  0  0  0
M  END
$$$$

  -OEChem-03222214053D

 31 30  0     1  0  0  0  0  0999 V2000
   -3.0977   -3.7675    1.7354 H   0  0  0  0  0  0  0  0  0  0  0  0
   -3.0513   -2.7879    1.2514 C   0  0  0  0  0  0  0  0  0  0  0  0
   -3.7389   -2.1091    1.7617 H   0  0  0  0  0  0  0  0  0  0  0  0
   -3.3620   -2.8954    0.2094 H   0  0  0  0  0  0  0  0  0  0  0  0
   -1.6389   -2.2385    1.3160 C   0  0  0  0  0  0  0  0  0  0  0  0
   -0.7863   -2.8240    1.9654 O   0  0  0  0  0  0  0  0  0  0  0  0
   -1.3504   -1.0289    0.7213 N   0  0  0  0  0  0  0  0  0  0  0  0
   -2.1303   -0.5153    0.3144 H   0  0  0  0  0  0  0  0  0  0  0  0
   -0.0205   -0.4072    0.5945 C   0  0  1  0  0  0  0  0  0  0  0  0
    0.6969   -0.8800    1.2726 H   0  0  0  0  0  0  0  0  0  0  0  0
    0.5189   -0.4499   -0.8799 C   0  0  1  0  0  0  0  0  0  0  0  0
   -0.1952    0.1075   -1.4968 H   0  0  0  0  0  0  0  0  0  0  0  0
    1.8713    0.2966   -0.9596 C   0  0  0  0  0  0  0  0  0  0  0  0
    2.6111   -0.1828   -0.3107 H   0  0  0  0  0  0  0  0  0  0  0  0
    2.2548    0.2959   -1.9849 H   0  0  0  0  0  0  0  0  0  0  0  0
    1.7734    1.3449   -0.6655 H   0  0  0  0  0  0  0  0  0  0  0  0
    0.7282   -1.8258   -1.5906 C   0  0  0  0  0  0  0  0  0  0  0  0
   -0.0722   -1.9444   -2.3282 H   0  0  0  0  0  0  0  0  0  0  0  0
    1.6645   -1.8112   -2.1579 H   0  0  0  0  0  0  0  0  0  0  0  0
    0.7436   -3.0927   -0.7396 C   0  0  0  0  0  0  0  0  0  0  0  0
   -0.2720   -3.4245   -0.5226 H   0  0  0  0  0  0  0  0  0  0  0  0
    1.2348   -3.8995   -1.2920 H   0  0  0  0  0  0  0  0  0  0  0  0
    1.2944   -2.9357    0.1923 H   0  0  0  0  0  0  0  0  0  0  0  0
   -0.2034    1.0770    0.9916 C   0  0  0  0  0  0  0  0  0  0  0  0
   -1.1569    1.7210    0.5648 O   0  0  0  0  0  0  0  0  0  0  0  0
    0.7011    1.6935    1.8375 N   0  0  0  0  0  0  0  0  0  0  0  0
    1.4459    1.1217    2.2254 H   0  0  0  0  0  0  0  0  0  0  0  0
    0.5725    3.0783    2.2742 C   0  0  0  0  0  0  0  0  0  0  0  0
   -0.3672    3.2232    2.8175 H   0  0  0  0  0  0  0  0  0  0  0  0
    1.4005    3.3441    2.9382 H   0  0  0  0  0  0  0  0  0  0  0  0
    0.5898    3.7543    1.4129 H   0  0  0  0  0  0  0  0  0  0  0  0
  1  2  1  0  0  0  0
  2  3  1  0  0  0  0
  2  4  1  0  0  0  0
  2  5  1  0  0  0  0
  5  6  2  0  0  0  0
  5  7  1  0  0  0  0
  7  8  1  0  0  0  0
  7  9  1  0  0  0  0
  9 10  1  0  0  0  0
  9 11  1  0  0  0  0
  9 24  1  0  0  0  0
 11 12  1  0  0  0  0
 11 13  1  0  0  0  0
 11 17  1  0  0  0  0
 13 14  1  0  0  0  0
 13 15  1  0  0  0  0
 13 16  1  0  0  0  0
 17 18  1  0  0  0  0
 17 19  1  0  0  0  0
 17 20  1  0  0  0  0
 20 21  1  0  0  0  0
 20 22  1  0  0  0  0
 20 23  1  0  0  0  0
 24 25  2  0  0  0  0
 24 26  1  0  0  0  0
 26 27  1  0  0  0  0
 26 28  1  0  0  0  0
 28 29  1  0  0  0  0
 28 30  1  0  0  0  0
 28 31  1  0  0  0  0
M  END
$$$$

  -OEChem-03222214053D

 31 30  0     1  0  0  0  0  0999 V2000
   -3.1458   -3.7468    1.7769 H   0  0  0  0  0  0  0  0  0  0  0  0
   -3.0914   -2.7642    1.3000 C   0  0  0  0  0  0  0  0  0  0  0  0
   -3.7590   -2.0781    1.8269 H   0  0  0  0  0  0  0  0  0  0  0  0
   -3.4214   -2.8585    0.2627 H   0  0  0  0  0  0  0  0  0  0  0  0
   -1.6692   -2.2383    1.3458 C   0  0  0  0  0  0  0  0  0  0  0  0
   -0.8199   -2.8355    1.9882 O   0  0  0  0  0  0  0  0  0  0  0  0
   -1.3678   -1.0362    0.7409 N   0  0  0  0  0  0  0  0  0  0  0  0
   -2.1450   -0.5126    0.3415 H   0  0  0  0  0  0  0  0  0  0  0  0
   -0.0324   -0.4264    0.6051 C   0  0  1  0  0  0  0  0  0  0  0  0
    0.6789   -0.9001    1.2889 H   0  0  0  0  0  0  0  0  0  0  0  0
    0.5331   -0.4678   -0.8629 C   0  0  1  0  0  0  0  0  0  0  0  0
   -0.1940    0.0760   -1.4766 H   0  0  0  0  0  0  0  0  0  0  0  0
    1.8670    0.3093   -0.9501 C   0  0  0  0  0  0  0  0  0  0  0  0
    2.6110   -0.1316   -0.2791 H   0  0  0  0  0  0  0  0  0  0  0  0
    2.2603    0.2837   -1.9716 H   0  0  0  0  0  0  0  0  0  0  0  0
    1.7399    1.3636   -0.6897 H   0  0  0  0  0  0  0  0  0  0  0  0
    0.7598   -1.8297   -1.5987 C   0  0  0  0  0  0  0  0  0  0  0  0
    0.1816   -1.8090   -2.5283 H   0  0  0  0  0  0  0  0  0  0  0  0
    1.8118   -1.9127   -1.8911 H   0  0  0  0  0  0  0  0  0  0  0  0
    0.4284   -3.1312   -0.8806 C   0  0  0  0  0  0  0  0  0  0  0  0
   -0.6516   -3.2597   -0.7926 H   0  0  0  0  0  0  0  0  0  0  0  0
    0.8118   -3.9776   -1.4586 H   0  0  0  0  0  0  0  0  0  0  0  0
    0.8975   -3.1587    0.1064 H   0  0  0  0  0  0  0  0  0  0  0  0
   -0.2129    1.0610    0.9929 C   0  0  0  0  0  0  0  0  0  0  0  0
   -1.1670    1.7031    0.5641 O   0  0  0  0  0  0  0  0  0  0  0  0
    0.6926    1.6835    1.8333 N   0  0  0  0  0  0  0  0  0  0  0  0
    1.4421    1.1166    2.2193 H   0  0  0  0  0  0  0  0  0  0  0  0
    0.5737    3.0762    2.2473 C   0  0  0  0  0  0  0  0  0  0  0  0
   -0.3651    3.2368    2.7879 H   0  0  0  0  0  0  0  0  0  0  0  0
    1.4036    3.3471    2.9069 H   0  0  0  0  0  0  0  0  0  0  0  0
    0.5959    3.7381    1.3751 H   0  0  0  0  0  0  0  0  0  0  0  0
  1  2  1  0  0  0  0
  2  3  1  0  0  0  0
  2  4  1  0  0  0  0
  2  5  1  0  0  0  0
  5  6  2  0  0  0  0
  5  7  1  0  0  0  0
  7  8  1  0  0  0  0
  7  9  1  0  0  0  0
  9 10  1  0  0  0  0
  9 11  1  0  0  0  0
  9 24  1  0  0  0  0
 11 12  1  0  0  0  0
 11 13  1  0  0  0  0
 11 17  1  0  0  0  0
 13 14  1  0  0  0  0
 13 15  1  0  0  0  0
 13 16  1  0  0  0  0
 17 18  1  0  0  0  0
 17 19  1  0  0  0  0
 17 20  1  0  0  0  0
 20 21  1  0  0  0  0
 20 22  1  0  0  0  0
 20 23  1  0  0  0  0
 24 25  2  0  0  0  0
 24 26  1  0  0  0  0
 26 27  1  0  0  0  0
 26 28  1  0  0  0  0
 28 29  1  0  0  0  0
 28 30  1  0  0  0  0
 28 31  1  0  0  0  0
M  END
$$$$

  -OEChem-03222214053D

 31 30  0     1  0  0  0  0  0999 V2000
   -3.1492   -3.7571    1.7892 H   0  0  0  0  0  0  0  0  0  0  0  0
   -3.1011   -2.7692    1.3225 C   0  0  0  0  0  0  0  0  0  0  0  0
   -3.7637   -2.0896    1.8640 H   0  0  0  0  0  0  0  0  0  0  0  0
   -3.4419   -2.8526    0.2877 H   0  0  0  0  0  0  0  0  0  0  0  0
   -1.6793   -2.2421    1.3591 C   0  0  0  0  0  0  0  0  0  0  0  0
   -0.8269   -2.8356    2.0008 O   0  0  0  0  0  0  0  0  0  0  0  0
   -1.3819   -1.0406    0.7501 N   0  0  0  0  0  0  0  0  0  0  0  0
   -2.1604   -0.5171    0.3532 H   0  0  0  0  0  0  0  0  0  0  0  0
   -0.0453   -0.4358    0.6062 C   0  0  1  0  0  0  0  0  0  0  0  0
    0.6657   -0.9112    1.2892 H   0  0  0  0  0  0  0  0  0  0  0  0
    0.5293   -0.4739   -0.8587 C   0  0  1  0  0  0  0  0  0  0  0  0
   -0.2079    0.0615   -1.4678 H   0  0  0  0  0  0  0  0  0  0  0  0
    1.8555    0.3125   -0.9558 C   0  0  0  0  0  0  0  0  0  0  0  0
    2.5941   -0.0938   -0.2575 H   0  0  0  0  0  0  0  0  0  0  0  0
    2.2645    0.2494   -1.9695 H   0  0  0  0  0  0  0  0  0  0  0  0
    1.7109    1.3742   -0.7366 H   0  0  0  0  0  0  0  0  0  0  0  0
    0.7635   -1.8246   -1.6074 C   0  0  0  0  0  0  0  0  0  0  0  0
    0.4381   -1.6911   -2.6444 H   0  0  0  0  0  0  0  0  0  0  0  0
    1.8393   -2.0284   -1.6382 H   0  0  0  0  0  0  0  0  0  0  0  0
    0.1272   -3.1013   -1.0772 C   0  0  0  0  0  0  0  0  0  0  0  0
   -0.9621   -3.0204   -1.0741 H   0  0  0  0  0  0  0  0  0  0  0  0
    0.3959   -3.9421   -1.7237 H   0  0  0  0  0  0  0  0  0  0  0  0
    0.4975   -3.3231   -0.0743 H   0  0  0  0  0  0  0  0  0  0  0  0
   -0.2177    1.0525    0.9936 C   0  0  0  0  0  0  0  0  0  0  0  0
   -1.1698    1.6987    0.5668 O   0  0  0  0  0  0  0  0  0  0  0  0
    0.6954    1.6717    1.8282 N   0  0  0  0  0  0  0  0  0  0  0  0
    1.4407    1.1002    2.2156 H   0  0  0  0  0  0  0  0  0  0  0  0
    0.5824    3.0639    2.2452 C   0  0  0  0  0  0  0  0  0  0  0  0
   -0.3541    3.2272    2.7890 H   0  0  0  0  0  0  0  0  0  0  0  0
    1.4152    3.3311    2.9028 H   0  0  0  0  0  0  0  0  0  0  0  0
    0.6041    3.7267    1.3737 H   0  0  0  0  0  0  0  0  0  0  0  0
  1  2  1  0  0  0  0
  2  3  1  0  0  0  0
  2  4  1  0  0  0  0
  2  5  1  0  0  0  0
  5  6  2  0  0  0  0
  5  7  1  0  0  0  0
  7  8  1  0  0  0  0
  7  9  1  0  0  0  0
  9 10  1  0  0  0  0
  9 11  1  0  0  0  0
  9 24  1  0  0  0  0
 11 12  1  0  0  0  0
 11 13  1  0  0  0  0
 11 17  1  0  0  0  0
 13 14  1  0  0  0  0
 13 15  1  0  0  0  0
 13 16  1  0  0  0  0
 17 18  1  0  0  0  0
 17 19  1  0  0  0  0
 17 20  1  0  0  0  0
 20 21  1  0  0  0  0
 20 22  1  0  0  0  0
 20 23  1  0  0  0  0
 24 25  2  0  0  0  0
 24 26  1  0  0  0  0
 26 27  1  0  0  0  0
 26 28  1  0  0  0  0
 28 29  1  0  0  0  0
 28 30  1  0  0  0  0
 28 31  1  0  0  0  0
M  END
$$$$

  -OEChem-03222214053D

 31 30  0     1  0  0  0  0  0999 V2000
   -3.1224   -3.7859    1.7901 H   0  0  0  0  0  0  0  0  0  0  0  0
   -3.0841   -2.8034    1.3116 C   0  0  0  0  0  0  0  0  0  0  0  0
   -3.7399   -2.1197    1.8561 H   0  0  0  0  0  0  0  0  0  0  0  0
   -3.4412   -2.8990    0.2835 H   0  0  0  0  0  0  0  0  0  0  0  0
   -1.6630   -2.2728    1.3199 C   0  0  0  0  0  0  0  0  0  0  0  0
   -0.7885   -2.8830    1.9152 O   0  0  0  0  0  0  0  0  0  0  0  0
   -1.3854   -1.0542    0.7361 N   0  0  0  0  0  0  0  0  0  0  0  0
   -2.1735   -0.5196    0.3744 H   0  0  0  0  0  0  0  0  0  0  0  0
   -0.0530   -0.4426    0.5897 C   0  0  1  0  0  0  0  0  0  0  0  0
    0.6653   -0.9319    1.2552 H   0  0  0  0  0  0  0  0  0  0  0  0
    0.5135   -0.4476   -0.8771 C   0  0  1  0  0  0  0  0  0  0  0  0
   -0.2254    0.0999   -1.4732 H   0  0  0  0  0  0  0  0  0  0  0  0
    1.8447    0.3298   -0.9620 C   0  0  0  0  0  0  0  0  0  0  0  0
    2.5757   -0.0835   -0.2599 H   0  0  0  0  0  0  0  0  0  0  0  0
    2.2617    0.2670   -1.9724 H   0  0  0  0  0  0  0  0  0  0  0  0
    1.7032    1.3912   -0.7383 H   0  0  0  0  0  0  0  0  0  0  0  0
    0.7460   -1.7816   -1.6482 C   0  0  0  0  0  0  0  0  0  0  0  0
    0.6651   -1.5613   -2.7179 H   0  0  0  0  0  0  0  0  0  0  0  0
    1.7732   -2.1156   -1.4666 H   0  0  0  0  0  0  0  0  0  0  0  0
   -0.1432   -2.9823   -1.3524 C   0  0  0  0  0  0  0  0  0  0  0  0
   -1.2001   -2.7067   -1.4006 H   0  0  0  0  0  0  0  0  0  0  0  0
    0.0958   -3.4020   -0.3746 H   0  0  0  0  0  0  0  0  0  0  0  0
    0.0360   -3.7642   -2.0965 H   0  0  0  0  0  0  0  0  0  0  0  0
   -0.2202    1.0353    1.0156 C   0  0  0  0  0  0  0  0  0  0  0  0
   -1.1828    1.6891    0.6257 O   0  0  0  0  0  0  0  0  0  0  0  0
    0.7054    1.6323    1.8524 N   0  0  0  0  0  0  0  0  0  0  0  0
    1.4572    1.0509    2.2110 H   0  0  0  0  0  0  0  0  0  0  0  0
    0.5866    3.0052    2.3269 C   0  0  0  0  0  0  0  0  0  0  0  0
   -0.3402    3.1355    2.8954 H   0  0  0  0  0  0  0  0  0  0  0  0
    1.4298    3.2548    2.9780 H   0  0  0  0  0  0  0  0  0  0  0  0
    0.5835    3.7029    1.4829 H   0  0  0  0  0  0  0  0  0  0  0  0
  1  2  1  0  0  0  0
  2  3  1  0  0  0  0
  2  4  1  0  0  0  0
  2  5  1  0  0  0  0
  5  6  2  0  0  0  0
  5  7  1  0  0  0  0
  7  8  1  0  0  0  0
  7  9  1  0  0  0  0
  9 10  1  0  0  0  0
  9 11  1  0  0  0  0
  9 24  1  0  0  0  0
 11 12  1  0  0  0  0
 11 13  1  0  0  0  0
 11 17  1  0  0  0  0
 13 14  1  0  0  0  0
 13 15  1  0  0  0  0
 13 16  1  0  0  0  0
 17 18  1  0  0  0  0
 17 19  1  0  0  0  0
 17 20  1  0  0  0  0
 20 21  1  0  0  0  0
 20 22  1  0  0  0  0
 20 23  1  0  0  0  0
 24 25  2  0  0  0  0
 24 26  1  0  0  0  0
 26 27  1  0  0  0  0
 26 28  1  0  0  0  0
 28 29  1  0  0  0  0
 28 30  1  0  0  0  0
 28 31  1  0  0  0  0
M  END
$$$$

  -OEChem-03222214053D

 31 30  0     1  0  0  0  0  0999 V2000
   -3.1155   -3.7771    1.8011 H   0  0  0  0  0  0  0  0  0  0  0  0
   -3.0835   -2.7957    1.3196 C   0  0  0  0  0  0  0  0  0  0  0  0
   -3.7182   -2.1062    1.8814 H   0  0  0  0  0  0  0  0  0  0  0  0
   -3.4705   -2.8896    0.3021 H   0  0  0  0  0  0  0  0  0  0  0  0
   -1.6587   -2.2764    1.2852 C   0  0  0  0  0  0  0  0  0  0  0  0
   -0.7649   -2.9099    1.8254 O   0  0  0  0  0  0  0  0  0  0  0  0
   -1.3908   -1.0549    0.7036 N   0  0  0  0  0  0  0  0  0  0  0  0
   -2.1845   -0.5066    0.3758 H   0  0  0  0  0  0  0  0  0  0  0  0
   -0.0605   -0.4409    0.5616 C   0  0  1  0  0  0  0  0  0  0  0  0
    0.6544   -0.9283    1.2320 H   0  0  0  0  0  0  0  0  0  0  0  0
    0.5145   -0.4562   -0.8985 C   0  0  1  0  0  0  0  0  0  0  0  0
   -0.2061    0.0953   -1.5131 H   0  0  0  0  0  0  0  0  0  0  0  0
    1.8620    0.2931   -0.9647 C   0  0  0  0  0  0  0  0  0  0  0  0
    2.5754   -0.1359   -0.2540 H   0  0  0  0  0  0  0  0  0  0  0  0
    2.2918    0.2247   -1.9692 H   0  0  0  0  0  0  0  0  0  0  0  0
    1.7383    1.3563   -0.7400 H   0  0  0  0  0  0  0  0  0  0  0  0
    0.7442   -1.8080   -1.6317 C   0  0  0  0  0  0  0  0  0  0  0  0
    0.9156   -1.5816   -2.6894 H   0  0  0  0  0  0  0  0  0  0  0  0
    1.6598   -2.2690   -1.2460 H   0  0  0  0  0  0  0  0  0  0  0  0
   -0.3523   -2.8675   -1.5664 C   0  0  0  0  0  0  0  0  0  0  0  0
   -1.3417   -2.4141   -1.6757 H   0  0  0  0  0  0  0  0  0  0  0  0
   -0.2962   -3.4235   -0.6305 H   0  0  0  0  0  0  0  0  0  0  0  0
   -0.2153   -3.5871   -2.3792 H   0  0  0  0  0  0  0  0  0  0  0  0
   -0.2256    1.0365    0.9884 C   0  0  0  0  0  0  0  0  0  0  0  0
   -1.1911    1.6888    0.6032 O   0  0  0  0  0  0  0  0  0  0  0  0
    0.6990    1.6329    1.8268 N   0  0  0  0  0  0  0  0  0  0  0  0
    1.4561    1.0539    2.1785 H   0  0  0  0  0  0  0  0  0  0  0  0
    0.5836    3.0079    2.2957 C   0  0  0  0  0  0  0  0  0  0  0  0
   -0.3434    3.1428    2.8627 H   0  0  0  0  0  0  0  0  0  0  0  0
    1.4269    3.2575    2.9466 H   0  0  0  0  0  0  0  0  0  0  0  0
    0.5834    3.7021    1.4488 H   0  0  0  0  0  0  0  0  0  0  0  0
  1  2  1  0  0  0  0
  2  3  1  0  0  0  0
  2  4  1  0  0  0  0
  2  5  1  0  0  0  0
  5  6  2  0  0  0  0
  5  7  1  0  0  0  0
  7  8  1  0  0  0  0
  7  9  1  0  0  0  0
  9 10  1  0  0  0  0
  9 11  1  0  0  0  0
  9 24  1  0  0  0  0
 11 12  1  0  0  0  0
 11 13  1  0  0  0  0
 11 17  1  0  0  0  0
 13 14  1  0  0  0  0
 13 15  1  0  0  0  0
 13 16  1  0  0  0  0
 17 18  1  0  0  0  0
 17 19  1  0  0  0  0
 17 20  1  0  0  0  0
 20 21  1  0  0  0  0
 20 22  1  0  0  0  0
 20 23  1  0  0  0  0
 24 25  2  0  0  0  0
 24 26  1  0  0  0  0
 26 27  1  0  0  0  0
 26 28  1  0  0  0  0
 28 29  1  0  0  0  0
 28 30  1  0  0  0  0
 28 31  1  0  0  0  0
M  END
$$$$

  -OEChem-03222214053D

 31 30  0     1  0  0  0  0  0999 V2000
   -3.0797   -3.7915    1.7700 H   0  0  0  0  0  0  0  0  0  0  0  0
   -3.0639   -2.7944    1.3211 C   0  0  0  0  0  0  0  0  0  0  0  0
   -3.6736   -2.1230    1.9306 H   0  0  0  0  0  0  0  0  0  0  0  0
   -3.4914   -2.8539    0.3172 H   0  0  0  0  0  0  0  0  0  0  0  0
   -1.6400   -2.2770    1.2464 C   0  0  0  0  0  0  0  0  0  0  0  0
   -0.7262   -2.9320    1.7241 O   0  0  0  0  0  0  0  0  0  0  0  0
   -1.3884   -1.0510    0.6670 N   0  0  0  0  0  0  0  0  0  0  0  0
   -2.1902   -0.4909    0.3811 H   0  0  0  0  0  0  0  0  0  0  0  0
   -0.0624   -0.4297    0.5272 C   0  0  1  0  0  0  0  0  0  0  0  0
    0.6522   -0.9130    1.2013 H   0  0  0  0  0  0  0  0  0  0  0  0
    0.5103   -0.4648   -0.9298 C   0  0  1  0  0  0  0  0  0  0  0  0
   -0.1926    0.0854   -1.5655 H   0  0  0  0  0  0  0  0  0  0  0  0
    1.8726    0.2575   -0.9913 C   0  0  0  0  0  0  0  0  0  0  0  0
    2.5800   -0.1970   -0.2905 H   0  0  0  0  0  0  0  0  0  0  0  0
    2.2974    0.1963   -1.9981 H   0  0  0  0  0  0  0  0  0  0  0  0
    1.7721    1.3194   -0.7499 H   0  0  0  0  0  0  0  0  0  0  0  0
    0.7273   -1.8496   -1.5975 C   0  0  0  0  0  0  0  0  0  0  0  0
    1.1358   -1.6781   -2.5988 H   0  0  0  0  0  0  0  0  0  0  0  0
    1.4776   -2.4109   -1.0309 H   0  0  0  0  0  0  0  0  0  0  0  0
   -0.5070   -2.7366   -1.7695 C   0  0  0  0  0  0  0  0  0  0  0  0
   -1.3967   -2.1333   -1.9734 H   0  0  0  0  0  0  0  0  0  0  0  0
   -0.3541   -3.4177   -2.6121 H   0  0  0  0  0  0  0  0  0  0  0  0
   -0.6746   -3.3516   -0.8855 H   0  0  0  0  0  0  0  0  0  0  0  0
   -0.2244    1.0473    0.9550 C   0  0  0  0  0  0  0  0  0  0  0  0
   -1.1941    1.6975    0.5776 O   0  0  0  0  0  0  0  0  0  0  0  0
    0.7016    1.6430    1.7922 N   0  0  0  0  0  0  0  0  0  0  0  0
    1.4651    1.0668    2.1341 H   0  0  0  0  0  0  0  0  0  0  0  0
    0.5939    3.0213    2.2540 C   0  0  0  0  0  0  0  0  0  0  0  0
   -0.3439    3.1709    2.7993 H   0  0  0  0  0  0  0  0  0  0  0  0
    1.4251    3.2618    2.9238 H   0  0  0  0  0  0  0  0  0  0  0  0
    0.6226    3.7126    1.4052 H   0  0  0  0  0  0  0  0  0  0  0  0
  1  2  1  0  0  0  0
  2  3  1  0  0  0  0
  2  4  1  0  0  0  0
  2  5  1  0  0  0  0
  5  6  2  0  0  0  0
  5  7  1  0  0  0  0
  7  8  1  0  0  0  0
  7  9  1  0  0  0  0
  9 10  1  0  0  0  0
  9 11  1  0  0  0  0
  9 24  1  0  0  0  0
 11 12  1  0  0  0  0
 11 13  1  0  0  0  0
 11 17  1  0  0  0  0
 13 14  1  0  0  0  0
 13 15  1  0  0  0  0
 13 16  1  0  0  0  0
 17 18  1  0  0  0  0
 17 19  1  0  0  0  0
 17 20  1  0  0  0  0
 20 21  1  0  0  0  0
 20 22  1  0  0  0  0
 20 23  1  0  0  0  0
 24 25  2  0  0  0  0
 24 26  1  0  0  0  0
 26 27  1  0  0  0  0
 26 28  1  0  0  0  0
 28 29  1  0  0  0  0
 28 30  1  0  0  0  0
 28 31  1  0  0  0  0
M  END
$$$$

  -OEChem-03222214053D

 31 30  0     1  0  0  0  0  0999 V2000
   -3.0381   -3.8032    1.7605 H   0  0  0  0  0  0  0  0  0  0  0  0
   -3.0357   -2.8020    1.3208 C   0  0  0  0  0  0  0  0  0  0  0  0
   -3.6063   -2.1313    1.9676 H   0  0  0  0  0  0  0  0  0  0  0  0
   -3.5155   -2.8471    0.3402 H   0  0  0  0  0  0  0  0  0  0  0  0
   -1.6123   -2.2966    1.1787 C   0  0  0  0  0  0  0  0  0  0  0  0
   -0.6803   -2.9765    1.5796 O   0  0  0  0  0  0  0  0  0  0  0  0
   -1.3797   -1.0581    0.6169 N   0  0  0  0  0  0  0  0  0  0  0  0
   -2.1890   -0.4835    0.3859 H   0  0  0  0  0  0  0  0  0  0  0  0
   -0.0588   -0.4254    0.4882 C   0  0  1  0  0  0  0  0  0  0  0  0
    0.6562   -0.9111    1.1598 H   0  0  0  0  0  0  0  0  0  0  0  0
    0.5141   -0.4567   -0.9656 C   0  0  1  0  0  0  0  0  0  0  0  0
   -0.1747    0.0968   -1.6134 H   0  0  0  0  0  0  0  0  0  0  0  0
    1.8824    0.2552   -1.0129 C   0  0  0  0  0  0  0  0  0  0  0  0
    2.5855   -0.2178   -0.3199 H   0  0  0  0  0  0  0  0  0  0  0  0
    2.3074    0.2104   -2.0206 H   0  0  0  0  0  0  0  0  0  0  0  0
    1.7898    1.3134   -0.7521 H   0  0  0  0  0  0  0  0  0  0  0  0
    0.7213   -1.8636   -1.5871 C   0  0  0  0  0  0  0  0  0  0  0  0
    1.3565   -1.7666   -2.4737 H   0  0  0  0  0  0  0  0  0  0  0  0
    1.2511   -2.5047   -0.8746 H   0  0  0  0  0  0  0  0  0  0  0  0
   -0.5593   -2.5715   -2.0432 C   0  0  0  0  0  0  0  0  0  0  0  0
   -1.2232   -1.8714   -2.5593 H   0  0  0  0  0  0  0  0  0  0  0  0
   -0.3031   -3.3777   -2.7374 H   0  0  0  0  0  0  0  0  0  0  0  0
   -1.0959   -3.0214   -1.2105 H   0  0  0  0  0  0  0  0  0  0  0  0
   -0.2257    1.0444    0.9368 C   0  0  0  0  0  0  0  0  0  0  0  0
   -1.2061    1.6906    0.5813 O   0  0  0  0  0  0  0  0  0  0  0  0
    0.6980    1.6319    1.7824 N   0  0  0  0  0  0  0  0  0  0  0  0
    1.4738    1.0593    2.1024 H   0  0  0  0  0  0  0  0  0  0  0  0
    0.5753    2.9973    2.2778 C   0  0  0  0  0  0  0  0  0  0  0  0
   -0.3547    3.1177    2.8433 H   0  0  0  0  0  0  0  0  0  0  0  0
    1.4145    3.2373    2.9377 H   0  0  0  0  0  0  0  0  0  0  0  0
    0.5763    3.7084    1.4450 H   0  0  0  0  0  0  0  0  0  0  0  0
  1  2  1  0  0  0  0
  2  3  1  0  0  0  0
  2  4  1  0  0  0  0
  2  5  1  0  0  0  0
  5  6  2  0  0  0  0
  5  7  1  0  0  0  0
  7  8  1  0  0  0  0
  7  9  1  0  0  0  0
  9 10  1  0  0  0  0
  9 11  1  0  0  0  0
  9 24  1  0  0  0  0
 11 12  1  0  0  0  0
 11 13  1  0  0  0  0
 11 17  1  0  0  0  0
 13 14  1  0  0  0  0
 13 15  1  0  0  0  0
 13 16  1  0  0  0  0
 17 18  1  0  0  0  0
 17 19  1  0  0  0  0
 17 20  1  0  0  0  0
 20 21  1  0  0  0  0
 20 22  1  0  0  0  0
 20 23  1  0  0  0  0
 24 25  2  0  0  0  0
 24 26  1  0  0  0  0
 26 27  1  0  0  0  0
 26 28  1  0  0  0  0
 28 29  1  0  0  0  0
 28 30  1  0  0  0  0
 28 31  1  0  0  0  0
M  END
$$$$

  -OEChem-03222214053D

 31 30  0     1  0  0  0  0  0999 V2000
   -2.9785   -3.8575    1.6536 H   0  0  0  0  0  0  0  0  0  0  0  0
   -2.9901   -2.8536    1.2201 C   0  0  0  0  0  0  0  0  0  0  0  0
   -3.5889   -2.2004    1.8593 H   0  0  0  0  0  0  0  0  0  0  0  0
   -3.4494   -2.9032    0.2299 H   0  0  0  0  0  0  0  0  0  0  0  0
   -1.5759   -2.3156    1.1091 C   0  0  0  0  0  0  0  0  0  0  0  0
   -0.6356   -2.9888    1.5012 O   0  0  0  0  0  0  0  0  0  0  0  0
   -1.3624   -1.0589    0.5810 N   0  0  0  0  0  0  0  0  0  0  0  0
   -2.1810   -0.4955    0.3560 H   0  0  0  0  0  0  0  0  0  0  0  0
   -0.0526   -0.4003    0.4704 C   0  0  1  0  0  0  0  0  0  0  0  0
    0.6677   -0.8908    1.1331 H   0  0  0  0  0  0  0  0  0  0  0  0
    0.5000   -0.4375   -0.9871 C   0  0  1  0  0  0  0  0  0  0  0  0
   -0.1978    0.0986   -1.6401 H   0  0  0  0  0  0  0  0  0  0  0  0
    1.8613    0.2815   -1.0629 C   0  0  0  0  0  0  0  0  0  0  0  0
    2.5838   -0.1908   -0.3897 H   0  0  0  0  0  0  0  0  0  0  0  0
    2.2592    0.2421   -2.0819 H   0  0  0  0  0  0  0  0  0  0  0  0
    1.7678    1.3375   -0.7937 H   0  0  0  0  0  0  0  0  0  0  0  0
    0.6954   -1.8743   -1.5374 C   0  0  0  0  0  0  0  0  0  0  0  0
    1.5165   -1.8889   -2.2613 H   0  0  0  0  0  0  0  0  0  0  0  0
    0.9767   -2.5473   -0.7207 H   0  0  0  0  0  0  0  0  0  0  0  0
   -0.5433   -2.4244   -2.2544 C   0  0  0  0  0  0  0  0  0  0  0  0
   -0.8120   -1.7775   -3.0951 H   0  0  0  0  0  0  0  0  0  0  0  0
   -0.3301   -3.4247   -2.6436 H   0  0  0  0  0  0  0  0  0  0  0  0
   -1.4030   -2.4980   -1.5881 H   0  0  0  0  0  0  0  0  0  0  0  0
   -0.2165    1.0591    0.9494 C   0  0  0  0  0  0  0  0  0  0  0  0
   -1.1972    1.7120    0.6083 O   0  0  0  0  0  0  0  0  0  0  0  0
    0.7107    1.6290    1.8032 N   0  0  0  0  0  0  0  0  0  0  0  0
    1.4913    1.0523    2.1036 H   0  0  0  0  0  0  0  0  0  0  0  0
    0.5994    2.9905    2.3127 C   0  0  0  0  0  0  0  0  0  0  0  0
   -0.3358    3.1174    2.8684 H   0  0  0  0  0  0  0  0  0  0  0  0
    1.4334    3.2122    2.9855 H   0  0  0  0  0  0  0  0  0  0  0  0
    0.6196    3.7104    1.4876 H   0  0  0  0  0  0  0  0  0  0  0  0
  1  2  1  0  0  0  0
  2  3  1  0  0  0  0
  2  4  1  0  0  0  0
  2  5  1  0  0  0  0
  5  6  2  0  0  0  0
  5  7  1  0  0  0  0
  7  8  1  0  0  0  0
  7  9  1  0  0  0  0
  9 10  1  0  0  0  0
  9 11  1  0  0  0  0
  9 24  1  0  0  0  0
 11 12  1  0  0  0  0
 11 13  1  0  0  0  0
 11 17  1  0  0  0  0
 13 14  1  0  0  0  0
 13 15  1  0  0  0  0
 13 16  1  0  0  0  0
 17 18  1  0  0  0  0
 17 19  1  0  0  0  0
 17 20  1  0  0  0  0
 20 21  1  0  0  0  0
 20 22  1  0  0  0  0
 20 23  1  0  0  0  0
 24 25  2  0  0  0  0
 24 26  1  0  0  0  0
 26 27  1  0  0  0  0
 26 28  1  0  0  0  0
 28 29  1  0  0  0  0
 28 30  1  0  0  0  0
 28 31  1  0  0  0  0
M  END
$$$$

  -OEChem-03222214053D

 31 30  0     1  0  0  0  0  0999 V2000
   -2.9629   -3.8837    1.5598 H   0  0  0  0  0  0  0  0  0  0  0  0
   -2.9651   -2.8799    1.1260 C   0  0  0  0  0  0  0  0  0  0  0  0
   -3.6084   -2.2360    1.7305 H   0  0  0  0  0  0  0  0  0  0  0  0
   -3.3668   -2.9359    0.1114 H   0  0  0  0  0  0  0  0  0  0  0  0
   -1.5552   -2.3207    1.0941 C   0  0  0  0  0  0  0  0  0  0  0  0
   -0.6310   -2.9723    1.5547 O   0  0  0  0  0  0  0  0  0  0  0  0
   -1.3320   -1.0638    0.5717 N   0  0  0  0  0  0  0  0  0  0  0  0
   -2.1465   -0.5191    0.2932 H   0  0  0  0  0  0  0  0  0  0  0  0
   -0.0247   -0.3935    0.4796 C   0  0  1  0  0  0  0  0  0  0  0  0
    0.6999   -0.8833    1.1381 H   0  0  0  0  0  0  0  0  0  0  0  0
    0.5000   -0.4391   -0.9838 C   0  0  1  0  0  0  0  0  0  0  0  0
   -0.2128    0.0885   -1.6276 H   0  0  0  0  0  0  0  0  0  0  0  0
    1.8548    0.2854   -1.0961 C   0  0  0  0  0  0  0  0  0  0  0  0
    2.5902   -0.1670   -0.4233 H   0  0  0  0  0  0  0  0  0  0  0  0
    2.2361    0.2241   -2.1203 H   0  0  0  0  0  0  0  0  0  0  0  0
    1.7572    1.3462   -0.8476 H   0  0  0  0  0  0  0  0  0  0  0  0
    0.6777   -1.8916   -1.4976 C   0  0  0  0  0  0  0  0  0  0  0  0
    1.6300   -1.9948   -2.0277 H   0  0  0  0  0  0  0  0  0  0  0  0
    0.7103   -2.5969   -0.6625 H   0  0  0  0  0  0  0  0  0  0  0  0
   -0.4360   -2.2851   -2.4711 C   0  0  0  0  0  0  0  0  0  0  0  0
   -0.4305   -1.6268   -3.3454 H   0  0  0  0  0  0  0  0  0  0  0  0
   -0.2890   -3.3145   -2.8115 H   0  0  0  0  0  0  0  0  0  0  0  0
   -1.4151   -2.2173   -1.9883 H   0  0  0  0  0  0  0  0  0  0  0  0
   -0.1926    1.0664    0.9532 C   0  0  0  0  0  0  0  0  0  0  0  0
   -1.1656    1.7205    0.5935 O   0  0  0  0  0  0  0  0  0  0  0  0
    0.7249    1.6376    1.8161 N   0  0  0  0  0  0  0  0  0  0  0  0
    1.4968    1.0584    2.1336 H   0  0  0  0  0  0  0  0  0  0  0  0
    0.6052    2.9986    2.3242 C   0  0  0  0  0  0  0  0  0  0  0  0
   -0.3300    3.1193    2.8811 H   0  0  0  0  0  0  0  0  0  0  0  0
    1.4390    3.2268    2.9950 H   0  0  0  0  0  0  0  0  0  0  0  0
    0.6190    3.7179    1.4985 H   0  0  0  0  0  0  0  0  0  0  0  0
  1  2  1  0  0  0  0
  2  3  1  0  0  0  0
  2  4  1  0  0  0  0
  2  5  1  0  0  0  0
  5  6  2  0  0  0  0
  5  7  1  0  0  0  0
  7  8  1  0  0  0  0
  7  9  1  0  0  0  0
  9 10  1  0  0  0  0
  9 11  1  0  0  0  0
  9 24  1  0  0  0  0
 11 12  1  0  0  0  0
 11 13  1  0  0  0  0
 11 17  1  0  0  0  0
 13 14  1  0  0  0  0
 13 15  1  0  0  0  0
 13 16  1  0  0  0  0
 17 18  1  0  0  0  0
 17 19  1  0  0  0  0
 17 20  1  0  0  0  0
 20 21  1  0  0  0  0
 20 22  1  0  0  0  0
 20 23  1  0  0  0  0
 24 25  2  0  0  0  0
 24 26  1  0  0  0  0
 26 27  1  0  0  0  0
 26 28  1  0  0  0  0
 28 29  1  0  0  0  0
 28 30  1  0  0  0  0
 28 31  1  0  0  0  0
M  END
$$$$

  -OEChem-03222214053D

 31 30  0     1  0  0  0  0  0999 V2000
   -2.9739   -3.8935    1.5340 H   0  0  0  0  0  0  0  0  0  0  0  0
   -2.9723   -2.8838    1.1140 C   0  0  0  0  0  0  0  0  0  0  0  0
   -3.6291   -2.2499    1.7145 H   0  0  0  0  0  0  0  0  0  0  0  0
   -3.3545   -2.9276    0.0913 H   0  0  0  0  0  0  0  0  0  0  0  0
   -1.5648   -2.3184    1.1157 C   0  0  0  0  0  0  0  0  0  0  0  0
   -0.6506   -2.9599    1.6096 O   0  0  0  0  0  0  0  0  0  0  0  0
   -1.3323   -1.0667    0.5847 N   0  0  0  0  0  0  0  0  0  0  0  0
   -2.1414   -0.5299    0.2770 H   0  0  0  0  0  0  0  0  0  0  0  0
   -0.0217   -0.4003    0.4940 C   0  0  1  0  0  0  0  0  0  0  0  0
    0.7013   -0.8898    1.1544 H   0  0  0  0  0  0  0  0  0  0  0  0
    0.5028   -0.4510   -0.9693 C   0  0  1  0  0  0  0  0  0  0  0  0
   -0.2252    0.0712   -1.6010 H   0  0  0  0  0  0  0  0  0  0  0  0
    1.8482    0.2852   -1.1070 C   0  0  0  0  0  0  0  0  0  0  0  0
    2.5942   -0.1451   -0.4314 H   0  0  0  0  0  0  0  0  0  0  0  0
    2.2202    0.2039   -2.1333 H   0  0  0  0  0  0  0  0  0  0  0  0
    1.7413    1.3498   -0.8794 H   0  0  0  0  0  0  0  0  0  0  0  0
    0.6806   -1.9014   -1.4926 C   0  0  0  0  0  0  0  0  0  0  0  0
    1.7248   -2.0851   -1.7660 H   0  0  0  0  0  0  0  0  0  0  0  0
    0.4359   -2.6338   -0.7212 H   0  0  0  0  0  0  0  0  0  0  0  0
   -0.1924   -2.1572   -2.7214 C   0  0  0  0  0  0  0  0  0  0  0  0
    0.0679   -1.4643   -3.5277 H   0  0  0  0  0  0  0  0  0  0  0  0
   -0.0450   -3.1800   -3.0808 H   0  0  0  0  0  0  0  0  0  0  0  0
   -1.2499   -2.0263   -2.4713 H   0  0  0  0  0  0  0  0  0  0  0  0
   -0.1858    1.0640    0.9552 C   0  0  0  0  0  0  0  0  0  0  0  0
   -1.1500    1.7221    0.5795 O   0  0  0  0  0  0  0  0  0  0  0  0
    0.7305    1.6374    1.8179 N   0  0  0  0  0  0  0  0  0  0  0  0
    1.4893    1.0522    2.1553 H   0  0  0  0  0  0  0  0  0  0  0  0
    0.6169    3.0033    2.3139 C   0  0  0  0  0  0  0  0  0  0  0  0
   -0.3338    3.1433    2.8393 H   0  0  0  0  0  0  0  0  0  0  0  0
    1.4316    3.2217    3.0109 H   0  0  0  0  0  0  0  0  0  0  0  0
    0.6702    3.7168    1.4850 H   0  0  0  0  0  0  0  0  0  0  0  0
  1  2  1  0  0  0  0
  2  3  1  0  0  0  0
  2  4  1  0  0  0  0
  2  5  1  0  0  0  0
  5  6  2  0  0  0  0
  5  7  1  0  0  0  0
  7  8  1  0  0  0  0
  7  9  1  0  0  0  0
  9 10  1  0  0  0  0
  9 11  1  0  0  0  0
  9 24  1  0  0  0  0
 11 12  1  0  0  0  0
 11 13  1  0  0  0  0
 11 17  1  0  0  0  0
 13 14  1  0  0  0  0
 13 15  1  0  0  0  0
 13 16  1  0  0  0  0
 17 18  1  0  0  0  0
 17 19  1  0  0  0  0
 17 20  1  0  0  0  0
 20 21  1  0  0  0  0
 20 22  1  0  0  0  0
 20 23  1  0  0  0  0
 24 25  2  0  0  0  0
 24 26  1  0  0  0  0
 26 27  1  0  0  0  0
 26 28  1  0  0  0  0
 28 29  1  0  0  0  0
 28 30  1  0  0  0  0
 28 31  1  0  0  0  0
M  END
$$$$

  -OEChem-03222214053D

 31 30  0     1  0  0  0  0  0999 V2000
   -3.0120   -3.8610    1.6056 H   0  0  0  0  0  0  0  0  0  0  0  0
   -3.0030   -2.8616    1.1615 C   0  0  0  0  0  0  0  0  0  0  0  0
   -3.6335   -2.2028    1.7634 H   0  0  0  0  0  0  0  0  0  0  0  0
   -3.4119   -2.9224    0.1500 H   0  0  0  0  0  0  0  0  0  0  0  0
   -1.5858   -2.3222    1.1153 C   0  0  0  0  0  0  0  0  0  0  0  0
   -0.6672   -2.9810    1.5774 O   0  0  0  0  0  0  0  0  0  0  0  0
   -1.3477   -1.0726    0.5815 N   0  0  0  0  0  0  0  0  0  0  0  0
   -2.1566   -0.5203    0.3010 H   0  0  0  0  0  0  0  0  0  0  0  0
   -0.0331   -0.4145    0.4888 C   0  0  1  0  0  0  0  0  0  0  0  0
    0.6834   -0.9060    1.1547 H   0  0  0  0  0  0  0  0  0  0  0  0
    0.5116   -0.4628   -0.9677 C   0  0  1  0  0  0  0  0  0  0  0  0
   -0.2229    0.0521   -1.5976 H   0  0  0  0  0  0  0  0  0  0  0  0
    1.8506    0.2852   -1.1021 C   0  0  0  0  0  0  0  0  0  0  0  0
    2.5893   -0.1185   -0.4024 H   0  0  0  0  0  0  0  0  0  0  0  0
    2.2429    0.1824   -2.1188 H   0  0  0  0  0  0  0  0  0  0  0  0
    1.7260    1.3537   -0.9028 H   0  0  0  0  0  0  0  0  0  0  0  0
    0.6985   -1.9046   -1.5080 C   0  0  0  0  0  0  0  0  0  0  0  0
    1.7574   -2.1832   -1.4933 H   0  0  0  0  0  0  0  0  0  0  0  0
    0.1799   -2.6327   -0.8830 H   0  0  0  0  0  0  0  0  0  0  0  0
    0.1552   -2.0374   -2.9317 C   0  0  0  0  0  0  0  0  0  0  0  0
    0.6683   -1.3429   -3.6040 H   0  0  0  0  0  0  0  0  0  0  0  0
    0.3109   -3.0561   -3.2995 H   0  0  0  0  0  0  0  0  0  0  0  0
   -0.9176   -1.8215   -2.9544 H   0  0  0  0  0  0  0  0  0  0  0  0
   -0.1916    1.0510    0.9480 C   0  0  0  0  0  0  0  0  0  0  0  0
   -1.1586    1.7091    0.5793 O   0  0  0  0  0  0  0  0  0  0  0  0
    0.7267    1.6225    1.8100 N   0  0  0  0  0  0  0  0  0  0  0  0
    1.4935    1.0408    2.1350 H   0  0  0  0  0  0  0  0  0  0  0  0
    0.6158    2.9887    2.3059 C   0  0  0  0  0  0  0  0  0  0  0  0
   -0.3184    3.1199    2.8621 H   0  0  0  0  0  0  0  0  0  0  0  0
    1.4512    3.2180    2.9746 H   0  0  0  0  0  0  0  0  0  0  0  0
    0.6341    3.7001    1.4736 H   0  0  0  0  0  0  0  0  0  0  0  0
  1  2  1  0  0  0  0
  2  3  1  0  0  0  0
  2  4  1  0  0  0  0
  2  5  1  0  0  0  0
  5  6  2  0  0  0  0
  5  7  1  0  0  0  0
  7  8  1  0  0  0  0
  7  9  1  0  0  0  0
  9 10  1  0  0  0  0
  9 11  1  0  0  0  0
  9 24  1  0  0  0  0
 11 12  1  0  0  0  0
 11 13  1  0  0  0  0
 11 17  1  0  0  0  0
 13 14  1  0  0  0  0
 13 15  1  0  0  0  0
 13 16  1  0  0  0  0
 17 18  1  0  0  0  0
 17 19  1  0  0  0  0
 17 20  1  0  0  0  0
 20 21  1  0  0  0  0
 20 22  1  0  0  0  0
 20 23  1  0  0  0  0
 24 25  2  0  0  0  0
 24 26  1  0  0  0  0
 26 27  1  0  0  0  0
 26 28  1  0  0  0  0
 28 29  1  0  0  0  0
 28 30  1  0  0  0  0
 28 31  1  0  0  0  0
M  END
$$$$

  -OEChem-03222214053D

 31 30  0     1  0  0  0  0  0999 V2000
   -3.0119   -3.8563    1.6078 H   0  0  0  0  0  0  0  0  0  0  0  0
   -3.0069   -2.8541    1.1705 C   0  0  0  0  0  0  0  0  0  0  0  0
   -3.6243   -2.1972    1.7879 H   0  0  0  0  0  0  0  0  0  0  0  0
   -3.4336   -2.9059    0.1661 H   0  0  0  0  0  0  0  0  0  0  0  0
   -1.5890   -2.3195    1.1022 C   0  0  0  0  0  0  0  0  0  0  0  0
   -0.6624   -2.9885    1.5325 O   0  0  0  0  0  0  0  0  0  0  0  0
   -1.3558   -1.0670    0.5733 N   0  0  0  0  0  0  0  0  0  0  0  0
   -2.1670   -0.5074    0.3147 H   0  0  0  0  0  0  0  0  0  0  0  0
   -0.0409   -0.4108    0.4780 C   0  0  1  0  0  0  0  0  0  0  0  0
    0.6745   -0.9046    1.1436 H   0  0  0  0  0  0  0  0  0  0  0  0
    0.5101   -0.4570   -0.9766 C   0  0  1  0  0  0  0  0  0  0  0  0
   -0.2225    0.0530   -1.6125 H   0  0  0  0  0  0  0  0  0  0  0  0
    1.8525    0.2897   -1.0955 C   0  0  0  0  0  0  0  0  0  0  0  0
    2.5859   -0.1242   -0.3965 H   0  0  0  0  0  0  0  0  0  0  0  0
    2.2547    0.2025   -2.1089 H   0  0  0  0  0  0  0  0  0  0  0  0
    1.7289    1.3557   -0.8831 H   0  0  0  0  0  0  0  0  0  0  0  0
    0.6958   -1.8997   -1.5098 C   0  0  0  0  0  0  0  0  0  0  0  0
    1.6842   -2.2805   -1.2321 H   0  0  0  0  0  0  0  0  0  0  0  0
   -0.0397   -2.5752   -1.0702 H   0  0  0  0  0  0  0  0  0  0  0  0
    0.5129   -1.9697   -3.0286 C   0  0  0  0  0  0  0  0  0  0  0  0
    1.2497   -1.3438   -3.5402 H   0  0  0  0  0  0  0  0  0  0  0  0
    0.6393   -3.0008   -3.3725 H   0  0  0  0  0  0  0  0  0  0  0  0
   -0.4895   -1.6323   -3.3099 H   0  0  0  0  0  0  0  0  0  0  0  0
   -0.1978    1.0520    0.9463 C   0  0  0  0  0  0  0  0  0  0  0  0
   -1.1685    1.7110    0.5890 O   0  0  0  0  0  0  0  0  0  0  0  0
    0.7245    1.6176    1.8076 N   0  0  0  0  0  0  0  0  0  0  0  0
    1.4945    1.0344    2.1225 H   0  0  0  0  0  0  0  0  0  0  0  0
    0.6201    2.9823    2.3085 C   0  0  0  0  0  0  0  0  0  0  0  0
   -0.3182    3.1187    2.8564 H   0  0  0  0  0  0  0  0  0  0  0  0
    1.4509    3.2014    2.9861 H   0  0  0  0  0  0  0  0  0  0  0  0
    0.6520    3.6971    1.4795 H   0  0  0  0  0  0  0  0  0  0  0  0
  1  2  1  0  0  0  0
  2  3  1  0  0  0  0
  2  4  1  0  0  0  0
  2  5  1  0  0  0  0
  5  6  2  0  0  0  0
  5  7  1  0  0  0  0
  7  8  1  0  0  0  0
  7  9  1  0  0  0  0
  9 10  1  0  0  0  0
  9 11  1  0  0  0  0
  9 24  1  0  0  0  0
 11 12  1  0  0  0  0
 11 13  1  0  0  0  0
 11 17  1  0  0  0  0
 13 14  1  0  0  0  0
 13 15  1  0  0  0  0
 13 16  1  0  0  0  0
 17 18  1  0  0  0  0
 17 19  1  0  0  0  0
 17 20  1  0  0  0  0
 20 21  1  0  0  0  0
 20 22  1  0  0  0  0
 20 23  1  0  0  0  0
 24 25  2  0  0  0  0
 24 26  1  0  0  0  0
 26 27  1  0  0  0  0
 26 28  1  0  0  0  0
 28 29  1  0  0  0  0
 28 30  1  0  0  0  0
 28 31  1  0  0  0  0
M  END
$$$$

  -OEChem-03222214053D

 31 30  0     1  0  0  0  0  0999 V2000
   -2.9915   -3.8500    1.5987 H   0  0  0  0  0  0  0  0  0  0  0  0
   -2.9943   -2.8464    1.1640 C   0  0  0  0  0  0  0  0  0  0  0  0
   -3.5959   -2.1896    1.7970 H   0  0  0  0  0  0  0  0  0  0  0  0
   -3.4439   -2.8946    0.1693 H   0  0  0  0  0  0  0  0  0  0  0  0
   -1.5769   -2.3150    1.0657 C   0  0  0  0  0  0  0  0  0  0  0  0
   -0.6411   -2.9968    1.4539 O   0  0  0  0  0  0  0  0  0  0  0  0
   -1.3529   -1.0551    0.5503 N   0  0  0  0  0  0  0  0  0  0  0  0
   -2.1682   -0.4855    0.3283 H   0  0  0  0  0  0  0  0  0  0  0  0
   -0.0394   -0.3953    0.4598 C   0  0  1  0  0  0  0  0  0  0  0  0
    0.6767   -0.8925    1.1220 H   0  0  0  0  0  0  0  0  0  0  0  0
    0.5108   -0.4363   -0.9958 C   0  0  1  0  0  0  0  0  0  0  0  0
   -0.2147    0.0718   -1.6412 H   0  0  0  0  0  0  0  0  0  0  0  0
    1.8576    0.3095   -1.0955 C   0  0  0  0  0  0  0  0  0  0  0  0
    2.6001   -0.1502   -0.4358 H   0  0  0  0  0  0  0  0  0  0  0  0
    2.2427    0.2878   -2.1180 H   0  0  0  0  0  0  0  0  0  0  0  0
    1.7479    1.3620   -0.8188 H   0  0  0  0  0  0  0  0  0  0  0  0
    0.6870   -1.8889   -1.5050 C   0  0  0  0  0  0  0  0  0  0  0  0
    1.5361   -2.3613   -1.0004 H   0  0  0  0  0  0  0  0  0  0  0  0
   -0.2009   -2.4787   -1.2678 H   0  0  0  0  0  0  0  0  0  0  0  0
    0.8719   -1.9702   -3.0237 C   0  0  0  0  0  0  0  0  0  0  0  0
    1.8205   -1.5230   -3.3326 H   0  0  0  0  0  0  0  0  0  0  0  0
    0.8731   -3.0174   -3.3408 H   0  0  0  0  0  0  0  0  0  0  0  0
    0.0548   -1.4549   -3.5380 H   0  0  0  0  0  0  0  0  0  0  0  0
   -0.2021    1.0611    0.9461 C   0  0  0  0  0  0  0  0  0  0  0  0
   -1.1779    1.7187    0.6006 O   0  0  0  0  0  0  0  0  0  0  0  0
    0.7186    1.6209    1.8131 N   0  0  0  0  0  0  0  0  0  0  0  0
    1.4963    1.0402    2.1133 H   0  0  0  0  0  0  0  0  0  0  0  0
    0.6069    2.9782    2.3327 C   0  0  0  0  0  0  0  0  0  0  0  0
   -0.3275    3.1001    2.8906 H   0  0  0  0  0  0  0  0  0  0  0  0
    1.4418    3.1952    3.0058 H   0  0  0  0  0  0  0  0  0  0  0  0
    0.6255    3.7044    1.5132 H   0  0  0  0  0  0  0  0  0  0  0  0
  1  2  1  0  0  0  0
  2  3  1  0  0  0  0
  2  4  1  0  0  0  0
  2  5  1  0  0  0  0
  5  6  2  0  0  0  0
  5  7  1  0  0  0  0
  7  8  1  0  0  0  0
  7  9  1  0  0  0  0
  9 10  1  0  0  0  0
  9 11  1  0  0  0  0
  9 24  1  0  0  0  0
 11 12  1  0  0  0  0
 11 13  1  0  0  0  0
 11 17  1  0  0  0  0
 13 14  1  0  0  0  0
 13 15  1  0  0  0  0
 13 16  1  0  0  0  0
 17 18  1  0  0  0  0
 17 19  1  0  0  0  0
 17 20  1  0  0  0  0
 20 21  1  0  0  0  0
 20 22  1  0  0  0  0
 20 23  1  0  0  0  0
 24 25  2  0  0  0  0
 24 26  1  0  0  0  0
 26 27  1  0  0  0  0
 26 28  1  0  0  0  0
 28 29  1  0  0  0  0
 28 30  1  0  0  0  0
 28 31  1  0  0  0  0
M  END
$$$$

  -OEChem-03222214053D

 31 30  0     1  0  0  0  0  0999 V2000
   -2.9941   -3.8559    1.6050 H   0  0  0  0  0  0  0  0  0  0  0  0
   -3.0032   -2.8517    1.1720 C   0  0  0  0  0  0  0  0  0  0  0  0
   -3.5992   -2.1968    1.8122 H   0  0  0  0  0  0  0  0  0  0  0  0
   -3.4626   -2.8988    0.1816 H   0  0  0  0  0  0  0  0  0  0  0  0
   -1.5879   -2.3176    1.0606 C   0  0  0  0  0  0  0  0  0  0  0  0
   -0.6469   -3.0012    1.4324 O   0  0  0  0  0  0  0  0  0  0  0  0
   -1.3724   -1.0551    0.5482 N   0  0  0  0  0  0  0  0  0  0  0  0
   -2.1909   -0.4871    0.3348 H   0  0  0  0  0  0  0  0  0  0  0  0
   -0.0609   -0.3928    0.4500 C   0  0  1  0  0  0  0  0  0  0  0  0
    0.6486   -0.8979    1.1133 H   0  0  0  0  0  0  0  0  0  0  0  0
    0.5025   -0.4357   -1.0005 C   0  0  1  0  0  0  0  0  0  0  0  0
   -0.0697    0.2736   -1.6090 H   0  0  0  0  0  0  0  0  0  0  0  0
    1.9787    0.0082   -1.0006 C   0  0  0  0  0  0  0  0  0  0  0  0
    2.5986   -0.7229   -0.4720 H   0  0  0  0  0  0  0  0  0  0  0  0
    2.3546    0.1119   -2.0220 H   0  0  0  0  0  0  0  0  0  0  0  0
    2.0979    0.9810   -0.5162 H   0  0  0  0  0  0  0  0  0  0  0  0
    0.3489   -1.8373   -1.6447 C   0  0  0  0  0  0  0  0  0  0  0  0
    0.8539   -2.5848   -1.0234 H   0  0  0  0  0  0  0  0  0  0  0  0
   -0.7113   -2.1027   -1.6880 H   0  0  0  0  0  0  0  0  0  0  0  0
    0.8922   -1.9216   -3.0744 C   0  0  0  0  0  0  0  0  0  0  0  0
    1.9830   -1.8456   -3.0865 H   0  0  0  0  0  0  0  0  0  0  0  0
    0.6166   -2.8825   -3.5193 H   0  0  0  0  0  0  0  0  0  0  0  0
    0.4726   -1.1213   -3.6916 H   0  0  0  0  0  0  0  0  0  0  0  0
   -0.2018    1.0645    0.9387 C   0  0  0  0  0  0  0  0  0  0  0  0
   -1.1795    1.7284    0.6117 O   0  0  0  0  0  0  0  0  0  0  0  0
    0.7338    1.6156    1.7952 N   0  0  0  0  0  0  0  0  0  0  0  0
    1.5103    1.0283    2.0855 H   0  0  0  0  0  0  0  0  0  0  0  0
    0.6377    2.9719    2.3204 C   0  0  0  0  0  0  0  0  0  0  0  0
   -0.2911    3.0994    2.8865 H   0  0  0  0  0  0  0  0  0  0  0  0
    1.4799    3.1801    2.9874 H   0  0  0  0  0  0  0  0  0  0  0  0
    0.6555    3.7005    1.5030 H   0  0  0  0  0  0  0  0  0  0  0  0
  1  2  1  0  0  0  0
  2  3  1  0  0  0  0
  2  4  1  0  0  0  0
  2  5  1  0  0  0  0
  5  6  2  0  0  0  0
  5  7  1  0  0  0  0
  7  8  1  0  0  0  0
  7  9  1  0  0  0  0
  9 10  1  0  0  0  0
  9 11  1  0  0  0  0
  9 24  1  0  0  0  0
 11 12  1  0  0  0  0
 11 13  1  0  0  0  0
 11 17  1  0  0  0  0
 13 14  1  0  0  0  0
 13 15  1  0  0  0  0
 13 16  1  0  0  0  0
 17 18  1  0  0  0  0
 17 19  1  0  0  0  0
 17 20  1  0  0  0  0
 20 21  1  0  0  0  0
 20 22  1  0  0  0  0
 20 23  1  0  0  0  0
 24 25  2  0  0  0  0
 24 26  1  0  0  0  0
 26 27  1  0  0  0  0
 26 28  1  0  0  0  0
 28 29  1  0  0  0  0
 28 30  1  0  0  0  0
 28 31  1  0  0  0  0
M  END
$$$$

  -OEChem-03222214053D

 31 30  0     1  0  0  0  0  0999 V2000
   -2.9938   -3.8560    1.5677 H   0  0  0  0  0  0  0  0  0  0  0  0
   -2.9960   -2.8507    1.1371 C   0  0  0  0  0  0  0  0  0  0  0  0
   -3.6057   -2.1987    1.7672 H   0  0  0  0  0  0  0  0  0  0  0  0
   -3.4361   -2.8964    0.1380 H   0  0  0  0  0  0  0  0  0  0  0  0
   -1.5794   -2.3140    1.0550 C   0  0  0  0  0  0  0  0  0  0  0  0
   -0.6469   -2.9915    1.4580 O   0  0  0  0  0  0  0  0  0  0  0  0
   -1.3557   -1.0517    0.5452 N   0  0  0  0  0  0  0  0  0  0  0  0
   -2.1714   -0.4875    0.3121 H   0  0  0  0  0  0  0  0  0  0  0  0
   -0.0436   -0.3879    0.4559 C   0  0  1  0  0  0  0  0  0  0  0  0
    0.6669   -0.8945    1.1172 H   0  0  0  0  0  0  0  0  0  0  0  0
    0.5106   -0.4245   -0.9987 C   0  0  1  0  0  0  0  0  0  0  0  0
   -0.0596    0.2853   -1.6085 H   0  0  0  0  0  0  0  0  0  0  0  0
    1.9847    0.0299   -0.9944 C   0  0  0  0  0  0  0  0  0  0  0  0
    2.6091   -0.7001   -0.4694 H   0  0  0  0  0  0  0  0  0  0  0  0
    2.3605    0.1436   -2.0153 H   0  0  0  0  0  0  0  0  0  0  0  0
    2.0973    1.0005   -0.5042 H   0  0  0  0  0  0  0  0  0  0  0  0
    0.3445   -1.8293   -1.6376 C   0  0  0  0  0  0  0  0  0  0  0  0
    0.6387   -2.5926   -0.9099 H   0  0  0  0  0  0  0  0  0  0  0  0
   -0.7119   -1.9867   -1.8773 H   0  0  0  0  0  0  0  0  0  0  0  0
    1.1663   -2.0626   -2.9099 C   0  0  0  0  0  0  0  0  0  0  0  0
    2.2374   -2.0873   -2.6887 H   0  0  0  0  0  0  0  0  0  0  0  0
    0.8927   -3.0234   -3.3563 H   0  0  0  0  0  0  0  0  0  0  0  0
    0.9707   -1.2730   -3.6419 H   0  0  0  0  0  0  0  0  0  0  0  0
   -0.1905    1.0690    0.9448 C   0  0  0  0  0  0  0  0  0  0  0  0
   -1.1649    1.7328    0.6075 O   0  0  0  0  0  0  0  0  0  0  0  0
    0.7378    1.6219    1.8082 N   0  0  0  0  0  0  0  0  0  0  0  0
    1.5090    1.0336    2.1105 H   0  0  0  0  0  0  0  0  0  0  0  0
    0.6332    2.9772    2.3349 C   0  0  0  0  0  0  0  0  0  0  0  0
   -0.2971    3.0983    2.8997 H   0  0  0  0  0  0  0  0  0  0  0  0
    1.4733    3.1899    3.0032 H   0  0  0  0  0  0  0  0  0  0  0  0
    0.6476    3.7070    1.5185 H   0  0  0  0  0  0  0  0  0  0  0  0
  1  2  1  0  0  0  0
  2  3  1  0  0  0  0
  2  4  1  0  0  0  0
  2  5  1  0  0  0  0
  5  6  2  0  0  0  0
  5  7  1  0  0  0  0
  7  8  1  0  0  0  0
  7  9  1  0  0  0  0
  9 10  1  0  0  0  0
  9 11  1  0  0  0  0
  9 24  1  0  0  0  0
 11 12  1  0  0  0  0
 11 13  1  0  0  0  0
 11 17  1  0  0  0  0
 13 14  1  0  0  0  0
 13 15  1  0  0  0  0
 13 16  1  0  0  0  0
 17 18  1  0  0  0  0
 17 19  1  0  0  0  0
 17 20  1  0  0  0  0
 20 21  1  0  0  0  0
 20 22  1  0  0  0  0
 20 23  1  0  0  0  0
 24 25  2  0  0  0  0
 24 26  1  0  0  0  0
 26 27  1  0  0  0  0
 26 28  1  0  0  0  0
 28 29  1  0  0  0  0
 28 30  1  0  0  0  0
 28 31  1  0  0  0  0
M  END
$$$$

  -OEChem-03222214053D

 31 30  0     1  0  0  0  0  0999 V2000
   -3.0093   -3.8484    1.5600 H   0  0  0  0  0  0  0  0  0  0  0  0
   -3.0005   -2.8450    1.1254 C   0  0  0  0  0  0  0  0  0  0  0  0
   -3.6205   -2.1889    1.7411 H   0  0  0  0  0  0  0  0  0  0  0  0
   -3.4215   -2.8939    0.1183 H   0  0  0  0  0  0  0  0  0  0  0  0
   -1.5815   -2.3119    1.0680 C   0  0  0  0  0  0  0  0  0  0  0  0
   -0.6600   -2.9833    1.5052 O   0  0  0  0  0  0  0  0  0  0  0  0
   -1.3457   -1.0535    0.5540 N   0  0  0  0  0  0  0  0  0  0  0  0
   -2.1565   -0.4922    0.2977 H   0  0  0  0  0  0  0  0  0  0  0  0
   -0.0306   -0.3936    0.4671 C   0  0  1  0  0  0  0  0  0  0  0  0
    0.6794   -0.9005    1.1288 H   0  0  0  0  0  0  0  0  0  0  0  0
    0.5210   -0.4243   -0.9904 C   0  0  1  0  0  0  0  0  0  0  0  0
   -0.0517    0.2868   -1.5964 H   0  0  0  0  0  0  0  0  0  0  0  0
    1.9892    0.0527   -0.9791 C   0  0  0  0  0  0  0  0  0  0  0  0
    2.6180   -0.6532   -0.4271 H   0  0  0  0  0  0  0  0  0  0  0  0
    2.3763    0.1485   -1.9976 H   0  0  0  0  0  0  0  0  0  0  0  0
    2.0813    1.0370   -0.5125 H   0  0  0  0  0  0  0  0  0  0  0  0
    0.3526   -1.8252   -1.6474 C   0  0  0  0  0  0  0  0  0  0  0  0
    0.4097   -2.5937   -0.8718 H   0  0  0  0  0  0  0  0  0  0  0  0
   -0.6430   -1.8836   -2.0986 H   0  0  0  0  0  0  0  0  0  0  0  0
    1.4016   -2.2095   -2.6978 C   0  0  0  0  0  0  0  0  0  0  0  0
    2.3959   -2.2982   -2.2498 H   0  0  0  0  0  0  0  0  0  0  0  0
    1.1442   -3.1765   -3.1404 H   0  0  0  0  0  0  0  0  0  0  0  0
    1.4342   -1.4641   -3.4983 H   0  0  0  0  0  0  0  0  0  0  0  0
   -0.1826    1.0653    0.9501 C   0  0  0  0  0  0  0  0  0  0  0  0
   -1.1534    1.7284    0.6009 O   0  0  0  0  0  0  0  0  0  0  0  0
    0.7398    1.6230    1.8168 N   0  0  0  0  0  0  0  0  0  0  0  0
    1.5045    1.0340    2.1339 H   0  0  0  0  0  0  0  0  0  0  0  0
    0.6280    2.9794    2.3387 C   0  0  0  0  0  0  0  0  0  0  0  0
   -0.3019    3.0966    2.9052 H   0  0  0  0  0  0  0  0  0  0  0  0
    1.4682    3.1999    3.0039 H   0  0  0  0  0  0  0  0  0  0  0  0
    0.6362    3.7060    1.5193 H   0  0  0  0  0  0  0  0  0  0  0  0
  1  2  1  0  0  0  0
  2  3  1  0  0  0  0
  2  4  1  0  0  0  0
  2  5  1  0  0  0  0
  5  6  2  0  0  0  0
  5  7  1  0  0  0  0
  7  8  1  0  0  0  0
  7  9  1  0  0  0  0
  9 10  1  0  0  0  0
  9 11  1  0  0  0  0
  9 24  1  0  0  0  0
 11 12  1  0  0  0  0
 11 13  1  0  0  0  0
 11 17  1  0  0  0  0
 13 14  1  0  0  0  0
 13 15  1  0  0  0  0
 13 16  1  0  0  0  0
 17 18  1  0  0  0  0
 17 19  1  0  0  0  0
 17 20  1  0  0  0  0
 20 21  1  0  0  0  0
 20 22  1  0  0  0  0
 20 23  1  0  0  0  0
 24 25  2  0  0  0  0
 24 26  1  0  0  0  0
 26 27  1  0  0  0  0
 26 28  1  0  0  0  0
 28 29  1  0  0  0  0
 28 30  1  0  0  0  0
 28 31  1  0  0  0  0
M  END
$$$$

  -OEChem-03222214053D

 31 30  0     1  0  0  0  0  0999 V2000
   -3.0333   -3.8412    1.5703 H   0  0  0  0  0  0  0  0  0  0  0  0
   -3.0182   -2.8380    1.1351 C   0  0  0  0  0  0  0  0  0  0  0  0
   -3.6404   -2.1793    1.7456 H   0  0  0  0  0  0  0  0  0  0  0  0
   -3.4320   -2.8863    0.1250 H   0  0  0  0  0  0  0  0  0  0  0  0
   -1.5970   -2.3096    1.0877 C   0  0  0  0  0  0  0  0  0  0  0  0
   -0.6815   -2.9821    1.5358 O   0  0  0  0  0  0  0  0  0  0  0  0
   -1.3519   -1.0555    0.5672 N   0  0  0  0  0  0  0  0  0  0  0  0
   -2.1590   -0.4924    0.3028 H   0  0  0  0  0  0  0  0  0  0  0  0
   -0.0332   -0.4023    0.4772 C   0  0  1  0  0  0  0  0  0  0  0  0
    0.6732   -0.9091    1.1427 H   0  0  0  0  0  0  0  0  0  0  0  0
    0.5301   -0.4341   -0.9783 C   0  0  1  0  0  0  0  0  0  0  0  0
   -0.0551    0.2707   -1.5797 H   0  0  0  0  0  0  0  0  0  0  0  0
    1.9851    0.0840   -0.9690 C   0  0  0  0  0  0  0  0  0  0  0  0
    2.6269   -0.5739   -0.3747 H   0  0  0  0  0  0  0  0  0  0  0  0
    2.3837    0.1445   -1.9855 H   0  0  0  0  0  0  0  0  0  0  0  0
    2.0411    1.0916   -0.5485 H   0  0  0  0  0  0  0  0  0  0  0  0
    0.3754   -1.8286   -1.6638 C   0  0  0  0  0  0  0  0  0  0  0  0
    0.1587   -2.5867   -0.9095 H   0  0  0  0  0  0  0  0  0  0  0  0
   -0.4835   -1.7894   -2.3414 H   0  0  0  0  0  0  0  0  0  0  0  0
    1.5913   -2.3633   -2.4310 C   0  0  0  0  0  0  0  0  0  0  0  0
    2.4524   -2.4878   -1.7677 H   0  0  0  0  0  0  0  0  0  0  0  0
    1.3536   -3.3407   -2.8616 H   0  0  0  0  0  0  0  0  0  0  0  0
    1.8604   -1.6892   -3.2496 H   0  0  0  0  0  0  0  0  0  0  0  0
   -0.1837    1.0593    0.9536 C   0  0  0  0  0  0  0  0  0  0  0  0
   -1.1518    1.7236    0.5995 O   0  0  0  0  0  0  0  0  0  0  0  0
    0.7393    1.6177    1.8192 N   0  0  0  0  0  0  0  0  0  0  0  0
    1.5023    1.0274    2.1375 H   0  0  0  0  0  0  0  0  0  0  0  0
    0.6327    2.9757    2.3379 C   0  0  0  0  0  0  0  0  0  0  0  0
   -0.3023    3.1021    2.8939 H   0  0  0  0  0  0  0  0  0  0  0  0
    1.4673    3.1892    3.0129 H   0  0  0  0  0  0  0  0  0  0  0  0
    0.6567    3.7016    1.5183 H   0  0  0  0  0  0  0  0  0  0  0  0
  1  2  1  0  0  0  0
  2  3  1  0  0  0  0
  2  4  1  0  0  0  0
  2  5  1  0  0  0  0
  5  6  2  0  0  0  0
  5  7  1  0  0  0  0
  7  8  1  0  0  0  0
  7  9  1  0  0  0  0
  9 10  1  0  0  0  0
  9 11  1  0  0  0  0
  9 24  1  0  0  0  0
 11 12  1  0  0  0  0
 11 13  1  0  0  0  0
 11 17  1  0  0  0  0
 13 14  1  0  0  0  0
 13 15  1  0  0  0  0
 13 16  1  0  0  0  0
 17 18  1  0  0  0  0
 17 19  1  0  0  0  0
 17 20  1  0  0  0  0
 20 21  1  0  0  0  0
 20 22  1  0  0  0  0
 20 23  1  0  0  0  0
 24 25  2  0  0  0  0
 24 26  1  0  0  0  0
 26 27  1  0  0  0  0
 26 28  1  0  0  0  0
 28 29  1  0  0  0  0
 28 30  1  0  0  0  0
 28 31  1  0  0  0  0
M  END
$$$$

  -OEChem-03222214053D

 31 30  0     1  0  0  0  0  0999 V2000
   -3.0633   -3.8178    1.6186 H   0  0  0  0  0  0  0  0  0  0  0  0
   -3.0438   -2.8184    1.1747 C   0  0  0  0  0  0  0  0  0  0  0  0
   -3.6454   -2.1464    1.7915 H   0  0  0  0  0  0  0  0  0  0  0  0
   -3.4783   -2.8690    0.1733 H   0  0  0  0  0  0  0  0  0  0  0  0
   -1.6171   -2.3093    1.0953 C   0  0  0  0  0  0  0  0  0  0  0  0
   -0.7002   -2.9951    1.5197 O   0  0  0  0  0  0  0  0  0  0  0  0
   -1.3665   -1.0582    0.5699 N   0  0  0  0  0  0  0  0  0  0  0  0
   -2.1712   -0.4830    0.3254 H   0  0  0  0  0  0  0  0  0  0  0  0
   -0.0434   -0.4150    0.4782 C   0  0  1  0  0  0  0  0  0  0  0  0
    0.6561   -0.9221    1.1506 H   0  0  0  0  0  0  0  0  0  0  0  0
    0.5436   -0.4487   -0.9688 C   0  0  1  0  0  0  0  0  0  0  0  0
   -0.0564    0.2486   -1.5646 H   0  0  0  0  0  0  0  0  0  0  0  0
    1.9848    0.1051   -0.9682 C   0  0  0  0  0  0  0  0  0  0  0  0
    2.6422   -0.5161   -0.3522 H   0  0  0  0  0  0  0  0  0  0  0  0
    2.3834    0.1449   -1.9859 H   0  0  0  0  0  0  0  0  0  0  0  0
    2.0122    1.1260   -0.5779 H   0  0  0  0  0  0  0  0  0  0  0  0
    0.4082   -1.8329   -1.6831 C   0  0  0  0  0  0  0  0  0  0  0  0
   -0.1100   -2.5487   -1.0461 H   0  0  0  0  0  0  0  0  0  0  0  0
   -0.2140   -1.6959   -2.5733 H   0  0  0  0  0  0  0  0  0  0  0  0
    1.7120   -2.5146   -2.1179 C   0  0  0  0  0  0  0  0  0  0  0  0
    2.3681   -2.6803   -1.2580 H   0  0  0  0  0  0  0  0  0  0  0  0
    1.4863   -3.4877   -2.5646 H   0  0  0  0  0  0  0  0  0  0  0  0
    2.2407   -1.9172   -2.8660 H   0  0  0  0  0  0  0  0  0  0  0  0
   -0.1910    1.0480    0.9512 C   0  0  0  0  0  0  0  0  0  0  0  0
   -1.1585    1.7136    0.5974 O   0  0  0  0  0  0  0  0  0  0  0  0
    0.7322    1.6055    1.8170 N   0  0  0  0  0  0  0  0  0  0  0  0
    1.4959    1.0153    2.1340 H   0  0  0  0  0  0  0  0  0  0  0  0
    0.6270    2.9646    2.3333 C   0  0  0  0  0  0  0  0  0  0  0  0
   -0.3035    3.0900    2.8971 H   0  0  0  0  0  0  0  0  0  0  0  0
    1.4670    3.1818    3.0000 H   0  0  0  0  0  0  0  0  0  0  0  0
    0.6419    3.6885    1.5117 H   0  0  0  0  0  0  0  0  0  0  0  0
  1  2  1  0  0  0  0
  2  3  1  0  0  0  0
  2  4  1  0  0  0  0
  2  5  1  0  0  0  0
  5  6  2  0  0  0  0
  5  7  1  0  0  0  0
  7  8  1  0  0  0  0
  7  9  1  0  0  0  0
  9 10  1  0  0  0  0
  9 11  1  0  0  0  0
  9 24  1  0  0  0  0
 11 12  1  0  0  0  0
 11 13  1  0  0  0  0
 11 17  1  0  0  0  0
 13 14  1  0  0  0  0
 13 15  1  0  0  0  0
 13 16  1  0  0  0  0
 17 18  1  0  0  0  0
 17 19  1  0  0  0  0
 17 20  1  0  0  0  0
 20 21  1  0  0  0  0
 20 22  1  0  0  0  0
 20 23  1  0  0  0  0
 24 25  2  0  0  0  0
 24 26  1  0  0  0  0
 26 27  1  0  0  0  0
 26 28  1  0  0  0  0
 28 29  1  0  0  0  0
 28 30  1  0  0  0  0
 28 31  1  0  0  0  0
M  END
$$$$

  -OEChem-03222214053D

 31 30  0     1  0  0  0  0  0999 V2000
   -3.0660   -3.8145    1.6308 H   0  0  0  0  0  0  0  0  0  0  0  0
   -3.0516   -2.8140    1.1897 C   0  0  0  0  0  0  0  0  0  0  0  0
   -3.6407   -2.1425    1.8191 H   0  0  0  0  0  0  0  0  0  0  0  0
   -3.5032   -2.8608    0.1958 H   0  0  0  0  0  0  0  0  0  0  0  0
   -1.6253   -2.3078    1.0867 C   0  0  0  0  0  0  0  0  0  0  0  0
   -0.7011   -3.0018    1.4810 O   0  0  0  0  0  0  0  0  0  0  0  0
   -1.3814   -1.0542    0.5643 N   0  0  0  0  0  0  0  0  0  0  0  0
   -2.1883   -0.4737    0.3403 H   0  0  0  0  0  0  0  0  0  0  0  0
   -0.0587   -0.4119    0.4727 C   0  0  1  0  0  0  0  0  0  0  0  0
    0.6361   -0.9201    1.1488 H   0  0  0  0  0  0  0  0  0  0  0  0
    0.5431   -0.4538   -0.9661 C   0  0  1  0  0  0  0  0  0  0  0  0
   -0.0689    0.2307   -1.5644 H   0  0  0  0  0  0  0  0  0  0  0  0
    1.9764    0.1151   -0.9815 C   0  0  0  0  0  0  0  0  0  0  0  0
    2.6358   -0.4646   -0.3282 H   0  0  0  0  0  0  0  0  0  0  0  0
    2.3810    0.1002   -1.9979 H   0  0  0  0  0  0  0  0  0  0  0  0
    1.9869    1.1558   -0.6455 H   0  0  0  0  0  0  0  0  0  0  0  0
    0.4226   -1.8362   -1.6807 C   0  0  0  0  0  0  0  0  0  0  0  0
   -0.3431   -2.4614   -1.2223 H   0  0  0  0  0  0  0  0  0  0  0  0
    0.0917   -1.6506   -2.7075 H   0  0  0  0  0  0  0  0  0  0  0  0
    1.7155   -2.6572   -1.7643 C   0  0  0  0  0  0  0  0  0  0  0  0
    2.1195   -2.8338   -0.7625 H   0  0  0  0  0  0  0  0  0  0  0  0
    1.5066   -3.6276   -2.2249 H   0  0  0  0  0  0  0  0  0  0  0  0
    2.4722   -2.1534   -2.3722 H   0  0  0  0  0  0  0  0  0  0  0  0
   -0.1964    1.0504    0.9491 C   0  0  0  0  0  0  0  0  0  0  0  0
   -1.1650    1.7196    0.6053 O   0  0  0  0  0  0  0  0  0  0  0  0
    0.7330    1.6001    1.8131 N   0  0  0  0  0  0  0  0  0  0  0  0
    1.4975    1.0063    2.1216 H   0  0  0  0  0  0  0  0  0  0  0  0
    0.6341    2.9563    2.3382 C   0  0  0  0  0  0  0  0  0  0  0  0
   -0.2951    3.0817    2.9041 H   0  0  0  0  0  0  0  0  0  0  0  0
    1.4758    3.1660    3.0052 H   0  0  0  0  0  0  0  0  0  0  0  0
    0.6503    3.6851    1.5210 H   0  0  0  0  0  0  0  0  0  0  0  0
  1  2  1  0  0  0  0
  2  3  1  0  0  0  0
  2  4  1  0  0  0  0
  2  5  1  0  0  0  0
  5  6  2  0  0  0  0
  5  7  1  0  0  0  0
  7  8  1  0  0  0  0
  7  9  1  0  0  0  0
  9 10  1  0  0  0  0
  9 11  1  0  0  0  0
  9 24  1  0  0  0  0
 11 12  1  0  0  0  0
 11 13  1  0  0  0  0
 11 17  1  0  0  0  0
 13 14  1  0  0  0  0
 13 15  1  0  0  0  0
 13 16  1  0  0  0  0
 17 18  1  0  0  0  0
 17 19  1  0  0  0  0
 17 20  1  0  0  0  0
 20 21  1  0  0  0  0
 20 22  1  0  0  0  0
 20 23  1  0  0  0  0
 24 25  2  0  0  0  0
 24 26  1  0  0  0  0
 26 27  1  0  0  0  0
 26 28  1  0  0  0  0
 28 29  1  0  0  0  0
 28 30  1  0  0  0  0
 28 31  1  0  0  0  0
M  END
$$$$

  -OEChem-03222214053D

 31 30  0     1  0  0  0  0  0999 V2000
   -3.0468   -3.8290    1.6173 H   0  0  0  0  0  0  0  0  0  0  0  0
   -3.0418   -2.8264    1.1807 C   0  0  0  0  0  0  0  0  0  0  0  0
   -3.6347   -2.1628    1.8149 H   0  0  0  0  0  0  0  0  0  0  0  0
   -3.4955   -2.8722    0.1878 H   0  0  0  0  0  0  0  0  0  0  0  0
   -1.6197   -2.3092    1.0756 C   0  0  0  0  0  0  0  0  0  0  0  0
   -0.6894   -3.0028    1.4558 O   0  0  0  0  0  0  0  0  0  0  0  0
   -1.3860   -1.0511    0.5594 N   0  0  0  0  0  0  0  0  0  0  0  0
   -2.1967   -0.4727    0.3439 H   0  0  0  0  0  0  0  0  0  0  0  0
   -0.0668   -0.4024    0.4715 C   0  0  1  0  0  0  0  0  0  0  0  0
    0.6284   -0.9112    1.1469 H   0  0  0  0  0  0  0  0  0  0  0  0
    0.5335   -0.4453   -0.9652 C   0  0  1  0  0  0  0  0  0  0  0  0
   -0.0744    0.2383   -1.5687 H   0  0  0  0  0  0  0  0  0  0  0  0
    1.9736    0.1009   -0.9861 C   0  0  0  0  0  0  0  0  0  0  0  0
    2.6138   -0.4522   -0.2917 H   0  0  0  0  0  0  0  0  0  0  0  0
    2.3949    0.0203   -1.9931 H   0  0  0  0  0  0  0  0  0  0  0  0
    1.9918    1.1577   -0.7044 H   0  0  0  0  0  0  0  0  0  0  0  0
    0.4152   -1.8275   -1.6686 C   0  0  0  0  0  0  0  0  0  0  0  0
   -0.5108   -2.3375   -1.3976 H   0  0  0  0  0  0  0  0  0  0  0  0
    0.3595   -1.6489   -2.7474 H   0  0  0  0  0  0  0  0  0  0  0  0
    1.5976   -2.7729   -1.4267 C   0  0  0  0  0  0  0  0  0  0  0  0
    1.7481   -2.9259   -0.3534 H   0  0  0  0  0  0  0  0  0  0  0  0
    1.3940   -3.7443   -1.8872 H   0  0  0  0  0  0  0  0  0  0  0  0
    2.5199   -2.3795   -1.8632 H   0  0  0  0  0  0  0  0  0  0  0  0
   -0.1996    1.0580    0.9528 C   0  0  0  0  0  0  0  0  0  0  0  0
   -1.1671    1.7303    0.6125 O   0  0  0  0  0  0  0  0  0  0  0  0
    0.7327    1.6031    1.8167 N   0  0  0  0  0  0  0  0  0  0  0  0
    1.4970    1.0072    2.1215 H   0  0  0  0  0  0  0  0  0  0  0  0
    0.6419    2.9607    2.3402 C   0  0  0  0  0  0  0  0  0  0  0  0
   -0.2866    3.0929    2.9057 H   0  0  0  0  0  0  0  0  0  0  0  0
    1.4848    3.1660    3.0070 H   0  0  0  0  0  0  0  0  0  0  0  0
    0.6632    3.6885    1.5222 H   0  0  0  0  0  0  0  0  0  0  0  0
  1  2  1  0  0  0  0
  2  3  1  0  0  0  0
  2  4  1  0  0  0  0
  2  5  1  0  0  0  0
  5  6  2  0  0  0  0
  5  7  1  0  0  0  0
  7  8  1  0  0  0  0
  7  9  1  0  0  0  0
  9 10  1  0  0  0  0
  9 11  1  0  0  0  0
  9 24  1  0  0  0  0
 11 12  1  0  0  0  0
 11 13  1  0  0  0  0
 11 17  1  0  0  0  0
 13 14  1  0  0  0  0
 13 15  1  0  0  0  0
 13 16  1  0  0  0  0
 17 18  1  0  0  0  0
 17 19  1  0  0  0  0
 17 20  1  0  0  0  0
 20 21  1  0  0  0  0
 20 22  1  0  0  0  0
 20 23  1  0  0  0  0
 24 25  2  0  0  0  0
 24 26  1  0  0  0  0
 26 27  1  0  0  0  0
 26 28  1  0  0  0  0
 28 29  1  0  0  0  0
 28 30  1  0  0  0  0
 28 31  1  0  0  0  0
M  END
$$$$

  -OEChem-03222214053D

 31 30  0     1  0  0  0  0  0999 V2000
   -3.0454   -3.8529    1.5741 H   0  0  0  0  0  0  0  0  0  0  0  0
   -3.0312   -2.8483    1.1421 C   0  0  0  0  0  0  0  0  0  0  0  0
   -3.6656   -2.1955    1.7464 H   0  0  0  0  0  0  0  0  0  0  0  0
   -3.4315   -2.8962    0.1265 H   0  0  0  0  0  0  0  0  0  0  0  0
   -1.6131   -2.3104    1.1142 C   0  0  0  0  0  0  0  0  0  0  0  0
   -0.7017   -2.9747    1.5806 O   0  0  0  0  0  0  0  0  0  0  0  0
   -1.3714   -1.0572    0.5911 N   0  0  0  0  0  0  0  0  0  0  0  0
   -2.1794   -0.5033    0.3119 H   0  0  0  0  0  0  0  0  0  0  0  0
   -0.0562   -0.4005    0.5003 C   0  0  1  0  0  0  0  0  0  0  0  0
    0.6473   -0.9042    1.1708 H   0  0  0  0  0  0  0  0  0  0  0  0
    0.5170   -0.4386   -0.9476 C   0  0  1  0  0  0  0  0  0  0  0  0
   -0.0853    0.2551   -1.5450 H   0  0  0  0  0  0  0  0  0  0  0  0
    1.9688    0.0727   -0.9796 C   0  0  0  0  0  0  0  0  0  0  0  0
    2.5977   -0.4849   -0.2786 H   0  0  0  0  0  0  0  0  0  0  0  0
    2.3875   -0.0351   -1.9851 H   0  0  0  0  0  0  0  0  0  0  0  0
    2.0106    1.1328   -0.7122 H   0  0  0  0  0  0  0  0  0  0  0  0
    0.3944   -1.8119   -1.6567 C   0  0  0  0  0  0  0  0  0  0  0  0
   -0.6214   -2.2028   -1.5562 H   0  0  0  0  0  0  0  0  0  0  0  0
    0.5656   -1.6646   -2.7279 H   0  0  0  0  0  0  0  0  0  0  0  0
    1.3914   -2.8667   -1.1615 C   0  0  0  0  0  0  0  0  0  0  0  0
    1.3402   -2.9754   -0.0751 H   0  0  0  0  0  0  0  0  0  0  0  0
    1.1616   -3.8353   -1.6157 H   0  0  0  0  0  0  0  0  0  0  0  0
    2.4150   -2.5974   -1.4376 H   0  0  0  0  0  0  0  0  0  0  0  0
   -0.1923    1.0637    0.9686 C   0  0  0  0  0  0  0  0  0  0  0  0
   -1.1543    1.7349    0.6110 O   0  0  0  0  0  0  0  0  0  0  0  0
    0.7381    1.6190    1.8279 N   0  0  0  0  0  0  0  0  0  0  0  0
    1.4969    1.0244    2.1488 H   0  0  0  0  0  0  0  0  0  0  0  0
    0.6477    2.9844    2.3303 C   0  0  0  0  0  0  0  0  0  0  0  0
   -0.2876    3.1295    2.8814 H   0  0  0  0  0  0  0  0  0  0  0  0
    1.4826    3.1958    3.0053 H   0  0  0  0  0  0  0  0  0  0  0  0
    0.6831    3.6998    1.5017 H   0  0  0  0  0  0  0  0  0  0  0  0
  1  2  1  0  0  0  0
  2  3  1  0  0  0  0
  2  4  1  0  0  0  0
  2  5  1  0  0  0  0
  5  6  2  0  0  0  0
  5  7  1  0  0  0  0
  7  8  1  0  0  0  0
  7  9  1  0  0  0  0
  9 10  1  0  0  0  0
  9 11  1  0  0  0  0
  9 24  1  0  0  0  0
 11 12  1  0  0  0  0
 11 13  1  0  0  0  0
 11 17  1  0  0  0  0
 13 14  1  0  0  0  0
 13 15  1  0  0  0  0
 13 16  1  0  0  0  0
 17 18  1  0  0  0  0
 17 19  1  0  0  0  0
 17 20  1  0  0  0  0
 20 21  1  0  0  0  0
 20 22  1  0  0  0  0
 20 23  1  0  0  0  0
 24 25  2  0  0  0  0
 24 26  1  0  0  0  0
 26 27  1  0  0  0  0
 26 28  1  0  0  0  0
 28 29  1  0  0  0  0
 28 30  1  0  0  0  0
 28 31  1  0  0  0  0
M  END
$$$$

  -OEChem-03222214053D

 31 30  0     1  0  0  0  0  0999 V2000
   -3.0564   -3.8549    1.5800 H   0  0  0  0  0  0  0  0  0  0  0  0
   -3.0195   -2.8681    1.1100 C   0  0  0  0  0  0  0  0  0  0  0  0
   -3.7279   -2.2088    1.6176 H   0  0  0  0  0  0  0  0  0  0  0  0
   -3.3106   -2.9667    0.0615 H   0  0  0  0  0  0  0  0  0  0  0  0
   -1.6180   -2.2951    1.2065 C   0  0  0  0  0  0  0  0  0  0  0  0
   -0.7632   -2.8887    1.8434 O   0  0  0  0  0  0  0  0  0  0  0  0
   -1.3510   -1.0603    0.6536 N   0  0  0  0  0  0  0  0  0  0  0  0
   -2.1396   -0.5533    0.2561 H   0  0  0  0  0  0  0  0  0  0  0  0
   -0.0347   -0.4046    0.5523 C   0  0  1  0  0  0  0  0  0  0  0  0
    0.6787   -0.8974    1.2205 H   0  0  0  0  0  0  0  0  0  0  0  0
    0.5036   -0.4377   -0.9132 C   0  0  1  0  0  0  0  0  0  0  0  0
   -0.0843    0.2807   -1.4957 H   0  0  0  0  0  0  0  0  0  0  0  0
    1.9717    0.0256   -0.9471 C   0  0  0  0  0  0  0  0  0  0  0  0
    2.5915   -0.5898   -0.2878 H   0  0  0  0  0  0  0  0  0  0  0  0
    2.3710   -0.0455   -1.9638 H   0  0  0  0  0  0  0  0  0  0  0  0
    2.0581    1.0687   -0.6284 H   0  0  0  0  0  0  0  0  0  0  0  0
    0.3795   -1.7870   -1.6628 C   0  0  0  0  0  0  0  0  0  0  0  0
   -0.6801   -2.0510   -1.7326 H   0  0  0  0  0  0  0  0  0  0  0  0
    0.7431   -1.6665   -2.6885 H   0  0  0  0  0  0  0  0  0  0  0  0
    1.1245   -2.9581   -1.0110 C   0  0  0  0  0  0  0  0  0  0  0  0
    0.9078   -3.0401    0.0521 H   0  0  0  0  0  0  0  0  0  0  0  0
    0.8378   -3.8965   -1.4953 H   0  0  0  0  0  0  0  0  0  0  0  0
    2.2048   -2.8310   -1.1266 H   0  0  0  0  0  0  0  0  0  0  0  0
   -0.1830    1.0715    0.9815 C   0  0  0  0  0  0  0  0  0  0  0  0
   -1.1364    1.7349    0.5873 O   0  0  0  0  0  0  0  0  0  0  0  0
    0.7393    1.6519    1.8329 N   0  0  0  0  0  0  0  0  0  0  0  0
    1.4791    1.0591    2.1980 H   0  0  0  0  0  0  0  0  0  0  0  0
    0.6349    3.0256    2.3091 C   0  0  0  0  0  0  0  0  0  0  0  0
   -0.2853    3.1623    2.8868 H   0  0  0  0  0  0  0  0  0  0  0  0
    1.4866    3.2688    2.9517 H   0  0  0  0  0  0  0  0  0  0  0  0
    0.6289    3.7240    1.4655 H   0  0  0  0  0  0  0  0  0  0  0  0
  1  2  1  0  0  0  0
  2  3  1  0  0  0  0
  2  4  1  0  0  0  0
  2  5  1  0  0  0  0
  5  6  2  0  0  0  0
  5  7  1  0  0  0  0
  7  8  1  0  0  0  0
  7  9  1  0  0  0  0
  9 10  1  0  0  0  0
  9 11  1  0  0  0  0
  9 24  1  0  0  0  0
 11 12  1  0  0  0  0
 11 13  1  0  0  0  0
 11 17  1  0  0  0  0
 13 14  1  0  0  0  0
 13 15  1  0  0  0  0
 13 16  1  0  0  0  0
 17 18  1  0  0  0  0
 17 19  1  0  0  0  0
 17 20  1  0  0  0  0
 20 21  1  0  0  0  0
 20 22  1  0  0  0  0
 20 23  1  0  0  0  0
 24 25  2  0  0  0  0
 24 26  1  0  0  0  0
 26 27  1  0  0  0  0
 26 28  1  0  0  0  0
 28 29  1  0  0  0  0
 28 30  1  0  0  0  0
 28 31  1  0  0  0  0
M  END
$$$$

  -OEChem-03222214053D

 31 30  0     1  0  0  0  0  0999 V2000
   -3.0036   -3.8786    1.6554 H   0  0  0  0  0  0  0  0  0  0  0  0
   -2.9954   -2.8873    1.1937 C   0  0  0  0  0  0  0  0  0  0  0  0
   -3.6941   -2.2419    1.7313 H   0  0  0  0  0  0  0  0  0  0  0  0
   -3.3205   -2.9803    0.1549 H   0  0  0  0  0  0  0  0  0  0  0  0
   -1.5991   -2.2974    1.2482 C   0  0  0  0  0  0  0  0  0  0  0  0
   -0.7160   -2.8793    1.8591 O   0  0  0  0  0  0  0  0  0  0  0  0
   -1.3555   -1.0644    0.6819 N   0  0  0  0  0  0  0  0  0  0  0  0
   -2.1528   -0.5610    0.2973 H   0  0  0  0  0  0  0  0  0  0  0  0
   -0.0421   -0.4093    0.5651 C   0  0  1  0  0  0  0  0  0  0  0  0
    0.6799   -0.8954    1.2290 H   0  0  0  0  0  0  0  0  0  0  0  0
    0.4955   -0.4231   -0.9023 C   0  0  1  0  0  0  0  0  0  0  0  0
   -0.0769    0.3172   -1.4730 H   0  0  0  0  0  0  0  0  0  0  0  0
    1.9712    0.0244   -0.9078 C   0  0  0  0  0  0  0  0  0  0  0  0
    2.5861   -0.6539   -0.3085 H   0  0  0  0  0  0  0  0  0  0  0  0
    2.3662    0.0374   -1.9283 H   0  0  0  0  0  0  0  0  0  0  0  0
    2.0762    1.0354   -0.5046 H   0  0  0  0  0  0  0  0  0  0  0  0
    0.3915   -1.7459   -1.7065 C   0  0  0  0  0  0  0  0  0  0  0  0
   -0.6449   -1.8750   -2.0343 H   0  0  0  0  0  0  0  0  0  0  0  0
    0.9957   -1.6526   -2.6147 H   0  0  0  0  0  0  0  0  0  0  0  0
    0.8145   -3.0237   -0.9744 C   0  0  0  0  0  0  0  0  0  0  0  0
    1.2440   -3.7314   -1.6898 H   0  0  0  0  0  0  0  0  0  0  0  0
   -0.0445   -3.5125   -0.5142 H   0  0  0  0  0  0  0  0  0  0  0  0
    1.5648   -2.8155   -0.2062 H   0  0  0  0  0  0  0  0  0  0  0  0
   -0.2050    1.0672    0.9916 C   0  0  0  0  0  0  0  0  0  0  0  0
   -1.1682    1.7205    0.6037 O   0  0  0  0  0  0  0  0  0  0  0  0
    0.7167    1.6593    1.8359 N   0  0  0  0  0  0  0  0  0  0  0  0
    1.4674    1.0761    2.1941 H   0  0  0  0  0  0  0  0  0  0  0  0
    0.6011    3.0327    2.3100 C   0  0  0  0  0  0  0  0  0  0  0  0
   -0.3291    3.1670    2.8722 H   0  0  0  0  0  0  0  0  0  0  0  0
    1.4410    3.2778    2.9671 H   0  0  0  0  0  0  0  0  0  0  0  0
    0.6077    3.7308    1.4664 H   0  0  0  0  0  0  0  0  0  0  0  0
  1  2  1  0  0  0  0
  2  3  1  0  0  0  0
  2  4  1  0  0  0  0
  2  5  1  0  0  0  0
  5  6  2  0  0  0  0
  5  7  1  0  0  0  0
  7  8  1  0  0  0  0
  7  9  1  0  0  0  0
  9 10  1  0  0  0  0
  9 11  1  0  0  0  0
  9 24  1  0  0  0  0
 11 12  1  0  0  0  0
 11 13  1  0  0  0  0
 11 17  1  0  0  0  0
 13 14  1  0  0  0  0
 13 15  1  0  0  0  0
 13 16  1  0  0  0  0
 17 18  1  0  0  0  0
 17 19  1  0  0  0  0
 17 20  1  0  0  0  0
 20 21  1  0  0  0  0
 20 22  1  0  0  0  0
 20 23  1  0  0  0  0
 24 25  2  0  0  0  0
 24 26  1  0  0  0  0
 26 27  1  0  0  0  0
 26 28  1  0  0  0  0
 28 29  1  0  0  0  0
 28 30  1  0  0  0  0
 28 31  1  0  0  0  0
M  END
$$$$

  -OEChem-03222214053D

 31 30  0     1  0  0  0  0  0999 V2000
   -2.9832   -3.8592    1.8352 H   0  0  0  0  0  0  0  0  0  0  0  0
   -2.9800   -2.8780    1.3520 C   0  0  0  0  0  0  0  0  0  0  0  0
   -3.6359   -2.2067    1.9117 H   0  0  0  0  0  0  0  0  0  0  0  0
   -3.3627   -2.9860    0.3342 H   0  0  0  0  0  0  0  0  0  0  0  0
   -1.5716   -2.3155    1.3192 C   0  0  0  0  0  0  0  0  0  0  0  0
   -0.6598   -2.9238    1.8580 O   0  0  0  0  0  0  0  0  0  0  0  0
   -1.3439   -1.0808    0.7492 N   0  0  0  0  0  0  0  0  0  0  0  0
   -2.1577   -0.5581    0.4299 H   0  0  0  0  0  0  0  0  0  0  0  0
   -0.0350   -0.4272    0.5782 C   0  0  1  0  0  0  0  0  0  0  0  0
    0.7121   -0.9159    1.2118 H   0  0  0  0  0  0  0  0  0  0  0  0
    0.4620   -0.4050   -0.9090 C   0  0  1  0  0  0  0  0  0  0  0  0
   -0.1125    0.3639   -1.4383 H   0  0  0  0  0  0  0  0  0  0  0  0
    1.9426    0.0305   -0.9191 C   0  0  0  0  0  0  0  0  0  0  0  0
    2.5627   -0.7069   -0.3992 H   0  0  0  0  0  0  0  0  0  0  0  0
    2.3100    0.1300   -1.9453 H   0  0  0  0  0  0  0  0  0  0  0  0
    2.0757    1.0016   -0.4351 H   0  0  0  0  0  0  0  0  0  0  0  0
    0.3591   -1.6853   -1.7895 C   0  0  0  0  0  0  0  0  0  0  0  0
   -0.6074   -1.6616   -2.3033 H   0  0  0  0  0  0  0  0  0  0  0  0
    1.1231   -1.6489   -2.5729 H   0  0  0  0  0  0  0  0  0  0  0  0
    0.4617   -3.0411   -1.0922 C   0  0  0  0  0  0  0  0  0  0  0  0
    0.8419   -3.7873   -1.7963 H   0  0  0  0  0  0  0  0  0  0  0  0
   -0.5183   -3.3846   -0.7600 H   0  0  0  0  0  0  0  0  0  0  0  0
    1.1474   -2.9947   -0.2409 H   0  0  0  0  0  0  0  0  0  0  0  0
   -0.2024    1.0441    1.0252 C   0  0  0  0  0  0  0  0  0  0  0  0
   -1.1928    1.6846    0.6865 O   0  0  0  0  0  0  0  0  0  0  0  0
    0.7416    1.6444    1.8386 N   0  0  0  0  0  0  0  0  0  0  0  0
    1.5152    1.0710    2.1620 H   0  0  0  0  0  0  0  0  0  0  0  0
    0.6148    3.0073    2.3393 C   0  0  0  0  0  0  0  0  0  0  0  0
   -0.2959    3.1127    2.9381 H   0  0  0  0  0  0  0  0  0  0  0  0
    1.4733    3.2610    2.9684 H   0  0  0  0  0  0  0  0  0  0  0  0
    0.5742    3.7178    1.5071 H   0  0  0  0  0  0  0  0  0  0  0  0
  1  2  1  0  0  0  0
  2  3  1  0  0  0  0
  2  4  1  0  0  0  0
  2  5  1  0  0  0  0
  5  6  2  0  0  0  0
  5  7  1  0  0  0  0
  7  8  1  0  0  0  0
  7  9  1  0  0  0  0
  9 10  1  0  0  0  0
  9 11  1  0  0  0  0
  9 24  1  0  0  0  0
 11 12  1  0  0  0  0
 11 13  1  0  0  0  0
 11 17  1  0  0  0  0
 13 14  1  0  0  0  0
 13 15  1  0  0  0  0
 13 16  1  0  0  0  0
 17 18  1  0  0  0  0
 17 19  1  0  0  0  0
 17 20  1  0  0  0  0
 20 21  1  0  0  0  0
 20 22  1  0  0  0  0
 20 23  1  0  0  0  0
 24 25  2  0  0  0  0
 24 26  1  0  0  0  0
 26 27  1  0  0  0  0
 26 28  1  0  0  0  0
 28 29  1  0  0  0  0
 28 30  1  0  0  0  0
 28 31  1  0  0  0  0
M  END
$$$$

  -OEChem-03222214053D

 31 30  0     1  0  0  0  0  0999 V2000
   -3.0850   -3.7744    1.8974 H   0  0  0  0  0  0  0  0  0  0  0  0
   -3.0590   -2.7967    1.4083 C   0  0  0  0  0  0  0  0  0  0  0  0
   -3.6928   -2.1048    1.9681 H   0  0  0  0  0  0  0  0  0  0  0  0
   -3.4511   -2.9002    0.3937 H   0  0  0  0  0  0  0  0  0  0  0  0
   -1.6361   -2.2725    1.3629 C   0  0  0  0  0  0  0  0  0  0  0  0
   -0.7434   -2.8863    1.9262 O   0  0  0  0  0  0  0  0  0  0  0  0
   -1.3745   -1.0624    0.7540 N   0  0  0  0  0  0  0  0  0  0  0  0
   -2.1740   -0.5301    0.4145 H   0  0  0  0  0  0  0  0  0  0  0  0
   -0.0509   -0.4374    0.5852 C   0  0  1  0  0  0  0  0  0  0  0  0
    0.6717   -0.9139    1.2556 H   0  0  0  0  0  0  0  0  0  0  0  0
    0.5072   -0.4555   -0.8855 C   0  0  1  0  0  0  0  0  0  0  0  0
   -0.0478    0.3075   -1.4436 H   0  0  0  0  0  0  0  0  0  0  0  0
    1.9860   -0.0119   -0.8502 C   0  0  0  0  0  0  0  0  0  0  0  0
    2.5905   -0.7420   -0.3026 H   0  0  0  0  0  0  0  0  0  0  0  0
    2.3862    0.0794   -1.8652 H   0  0  0  0  0  0  0  0  0  0  0  0
    2.1021    0.9645   -0.3735 H   0  0  0  0  0  0  0  0  0  0  0  0
    0.4405   -1.7378   -1.7773 C   0  0  0  0  0  0  0  0  0  0  0  0
   -0.3390   -1.5772   -2.5291 H   0  0  0  0  0  0  0  0  0  0  0  0
    1.3786   -1.8477   -2.3309 H   0  0  0  0  0  0  0  0  0  0  0  0
    0.1517   -3.0840   -1.1236 C   0  0  0  0  0  0  0  0  0  0  0  0
    0.4296   -3.8912   -1.8082 H   0  0  0  0  0  0  0  0  0  0  0  0
   -0.9126   -3.1933   -0.9119 H   0  0  0  0  0  0  0  0  0  0  0  0
    0.7358   -3.2023   -0.2068 H   0  0  0  0  0  0  0  0  0  0  0  0
   -0.2203    1.0493    0.9820 C   0  0  0  0  0  0  0  0  0  0  0  0
   -1.1987    1.6847    0.6007 O   0  0  0  0  0  0  0  0  0  0  0  0
    0.7087    1.6712    1.7968 N   0  0  0  0  0  0  0  0  0  0  0  0
    1.4690    1.1032    2.1595 H   0  0  0  0  0  0  0  0  0  0  0  0
    0.5817    3.0517    2.2476 C   0  0  0  0  0  0  0  0  0  0  0  0
   -0.3386    3.1832    2.8265 H   0  0  0  0  0  0  0  0  0  0  0  0
    1.4311    3.3217    2.8824 H   0  0  0  0  0  0  0  0  0  0  0  0
    0.5603    3.7337    1.3911 H   0  0  0  0  0  0  0  0  0  0  0  0
  1  2  1  0  0  0  0
  2  3  1  0  0  0  0
  2  4  1  0  0  0  0
  2  5  1  0  0  0  0
  5  6  2  0  0  0  0
  5  7  1  0  0  0  0
  7  8  1  0  0  0  0
  7  9  1  0  0  0  0
  9 10  1  0  0  0  0
  9 11  1  0  0  0  0
  9 24  1  0  0  0  0
 11 12  1  0  0  0  0
 11 13  1  0  0  0  0
 11 17  1  0  0  0  0
 13 14  1  0  0  0  0
 13 15  1  0  0  0  0
 13 16  1  0  0  0  0
 17 18  1  0  0  0  0
 17 19  1  0  0  0  0
 17 20  1  0  0  0  0
 20 21  1  0  0  0  0
 20 22  1  0  0  0  0
 20 23  1  0  0  0  0
 24 25  2  0  0  0  0
 24 26  1  0  0  0  0
 26 27  1  0  0  0  0
 26 28  1  0  0  0  0
 28 29  1  0  0  0  0
 28 30  1  0  0  0  0
 28 31  1  0  0  0  0
M  END
$$$$

  -OEChem-03222214053D

 31 30  0     1  0  0  0  0  0999 V2000
   -3.1384   -3.7446    1.9085 H   0  0  0  0  0  0  0  0  0  0  0  0
   -3.1029   -2.7608    1.4322 C   0  0  0  0  0  0  0  0  0  0  0  0
   -3.7183   -2.0665    2.0097 H   0  0  0  0  0  0  0  0  0  0  0  0
   -3.5094   -2.8437    0.4214 H   0  0  0  0  0  0  0  0  0  0  0  0
   -1.6726   -2.2590    1.3754 C   0  0  0  0  0  0  0  0  0  0  0  0
   -0.7872   -2.8804    1.9420 O   0  0  0  0  0  0  0  0  0  0  0  0
   -1.3964   -1.0548    0.7603 N   0  0  0  0  0  0  0  0  0  0  0  0
   -2.1887   -0.5119    0.4203 H   0  0  0  0  0  0  0  0  0  0  0  0
   -0.0640   -0.4493    0.5918 C   0  0  1  0  0  0  0  0  0  0  0  0
    0.6468   -0.9288    1.2723 H   0  0  0  0  0  0  0  0  0  0  0  0
    0.5217   -0.4770   -0.8699 C   0  0  1  0  0  0  0  0  0  0  0  0
   -0.0445    0.2774   -1.4285 H   0  0  0  0  0  0  0  0  0  0  0  0
    1.9914   -0.0066   -0.8350 C   0  0  0  0  0  0  0  0  0  0  0  0
    2.6028   -0.7045   -0.2539 H   0  0  0  0  0  0  0  0  0  0  0  0
    2.3993    0.0516   -1.8495 H   0  0  0  0  0  0  0  0  0  0  0  0
    2.0847    0.9892   -0.3947 H   0  0  0  0  0  0  0  0  0  0  0  0
    0.4694   -1.7498   -1.7801 C   0  0  0  0  0  0  0  0  0  0  0  0
   -0.0570   -1.4751   -2.7003 H   0  0  0  0  0  0  0  0  0  0  0  0
    1.4880   -2.0217   -2.0766 H   0  0  0  0  0  0  0  0  0  0  0  0
   -0.1662   -3.0335   -1.2639 C   0  0  0  0  0  0  0  0  0  0  0  0
   -1.2434   -2.9101   -1.1361 H   0  0  0  0  0  0  0  0  0  0  0  0
   -0.0121   -3.8365   -1.9911 H   0  0  0  0  0  0  0  0  0  0  0  0
    0.2987   -3.3402   -0.3239 H   0  0  0  0  0  0  0  0  0  0  0  0
   -0.2228    1.0405    0.9823 C   0  0  0  0  0  0  0  0  0  0  0  0
   -1.1949    1.6823    0.5957 O   0  0  0  0  0  0  0  0  0  0  0  0
    0.7074    1.6589    1.7983 N   0  0  0  0  0  0  0  0  0  0  0  0
    1.4625    1.0874    2.1661 H   0  0  0  0  0  0  0  0  0  0  0  0
    0.5878    3.0422    2.2423 C   0  0  0  0  0  0  0  0  0  0  0  0
   -0.3306    3.1800    2.8227 H   0  0  0  0  0  0  0  0  0  0  0  0
    1.4400    3.3125    2.8732 H   0  0  0  0  0  0  0  0  0  0  0  0
    0.5667    3.7196    1.3821 H   0  0  0  0  0  0  0  0  0  0  0  0
  1  2  1  0  0  0  0
  2  3  1  0  0  0  0
  2  4  1  0  0  0  0
  2  5  1  0  0  0  0
  5  6  2  0  0  0  0
  5  7  1  0  0  0  0
  7  8  1  0  0  0  0
  7  9  1  0  0  0  0
  9 10  1  0  0  0  0
  9 11  1  0  0  0  0
  9 24  1  0  0  0  0
 11 12  1  0  0  0  0
 11 13  1  0  0  0  0
 11 17  1  0  0  0  0
 13 14  1  0  0  0  0
 13 15  1  0  0  0  0
 13 16  1  0  0  0  0
 17 18  1  0  0  0  0
 17 19  1  0  0  0  0
 17 20  1  0  0  0  0
 20 21  1  0  0  0  0
 20 22  1  0  0  0  0
 20 23  1  0  0  0  0
 24 25  2  0  0  0  0
 24 26  1  0  0  0  0
 26 27  1  0  0  0  0
 26 28  1  0  0  0  0
 28 29  1  0  0  0  0
 28 30  1  0  0  0  0
 28 31  1  0  0  0  0
M  END
$$$$

  -OEChem-03222214053D

 31 30  0     1  0  0  0  0  0999 V2000
   -3.0995   -3.8142    1.8630 H   0  0  0  0  0  0  0  0  0  0  0  0
   -3.0790   -2.8267    1.3935 C   0  0  0  0  0  0  0  0  0  0  0  0
   -3.6956   -2.1433    1.9823 H   0  0  0  0  0  0  0  0  0  0  0  0
   -3.4955   -2.9074    0.3866 H   0  0  0  0  0  0  0  0  0  0  0  0
   -1.6545   -2.3094    1.3253 C   0  0  0  0  0  0  0  0  0  0  0  0
   -0.7478   -2.9537    1.8301 O   0  0  0  0  0  0  0  0  0  0  0  0
   -1.4020   -1.0763    0.7595 N   0  0  0  0  0  0  0  0  0  0  0  0
   -2.2050   -0.5209    0.4684 H   0  0  0  0  0  0  0  0  0  0  0  0
   -0.0764   -0.4582    0.5889 C   0  0  1  0  0  0  0  0  0  0  0  0
    0.6466   -0.9627    1.2377 H   0  0  0  0  0  0  0  0  0  0  0  0
    0.4931   -0.4294   -0.8783 C   0  0  1  0  0  0  0  0  0  0  0  0
   -0.1044    0.3295   -1.3969 H   0  0  0  0  0  0  0  0  0  0  0  0
    1.9527    0.0686   -0.8648 C   0  0  0  0  0  0  0  0  0  0  0  0
    2.5841   -0.6111   -0.2838 H   0  0  0  0  0  0  0  0  0  0  0  0
    2.3470    0.1218   -1.8848 H   0  0  0  0  0  0  0  0  0  0  0  0
    2.0296    1.0708   -0.4352 H   0  0  0  0  0  0  0  0  0  0  0  0
    0.4423   -1.6629   -1.8382 C   0  0  0  0  0  0  0  0  0  0  0  0
    0.1724   -1.2936   -2.8332 H   0  0  0  0  0  0  0  0  0  0  0  0
    1.4507   -2.0823   -1.9217 H   0  0  0  0  0  0  0  0  0  0  0  0
   -0.4621   -2.8484   -1.5267 C   0  0  0  0  0  0  0  0  0  0  0  0
   -1.5035   -2.5316   -1.4308 H   0  0  0  0  0  0  0  0  0  0  0  0
   -0.1307   -3.3533   -0.6175 H   0  0  0  0  0  0  0  0  0  0  0  0
   -0.4082   -3.5735   -2.3443 H   0  0  0  0  0  0  0  0  0  0  0  0
   -0.2250    1.0123    1.0491 C   0  0  0  0  0  0  0  0  0  0  0  0
   -1.2105    1.6670    0.7229 O   0  0  0  0  0  0  0  0  0  0  0  0
    0.7254    1.5930    1.8695 N   0  0  0  0  0  0  0  0  0  0  0  0
    1.4940    1.0076    2.1836 H   0  0  0  0  0  0  0  0  0  0  0  0
    0.6077    2.9465    2.3982 C   0  0  0  0  0  0  0  0  0  0  0  0
   -0.2905    3.0390    3.0179 H   0  0  0  0  0  0  0  0  0  0  0  0
    1.4794    3.1887    3.0138 H   0  0  0  0  0  0  0  0  0  0  0  0
    0.5492    3.6738    1.5814 H   0  0  0  0  0  0  0  0  0  0  0  0
  1  2  1  0  0  0  0
  2  3  1  0  0  0  0
  2  4  1  0  0  0  0
  2  5  1  0  0  0  0
  5  6  2  0  0  0  0
  5  7  1  0  0  0  0
  7  8  1  0  0  0  0
  7  9  1  0  0  0  0
  9 10  1  0  0  0  0
  9 11  1  0  0  0  0
  9 24  1  0  0  0  0
 11 12  1  0  0  0  0
 11 13  1  0  0  0  0
 11 17  1  0  0  0  0
 13 14  1  0  0  0  0
 13 15  1  0  0  0  0
 13 16  1  0  0  0  0
 17 18  1  0  0  0  0
 17 19  1  0  0  0  0
 17 20  1  0  0  0  0
 20 21  1  0  0  0  0
 20 22  1  0  0  0  0
 20 23  1  0  0  0  0
 24 25  2  0  0  0  0
 24 26  1  0  0  0  0
 26 27  1  0  0  0  0
 26 28  1  0  0  0  0
 28 29  1  0  0  0  0
 28 30  1  0  0  0  0
 28 31  1  0  0  0  0
M  END
$$$$

  -OEChem-03222214053D

 31 30  0     1  0  0  0  0  0999 V2000
   -3.1752   -3.7340    1.8827 H   0  0  0  0  0  0  0  0  0  0  0  0
   -3.1389   -2.7520    1.4028 C   0  0  0  0  0  0  0  0  0  0  0  0
   -3.7401   -2.0512    1.9869 H   0  0  0  0  0  0  0  0  0  0  0  0
   -3.5614   -2.8354    0.3986 H   0  0  0  0  0  0  0  0  0  0  0  0
   -1.7056   -2.2615    1.3223 C   0  0  0  0  0  0  0  0  0  0  0  0
   -0.8064   -2.9188    1.8240 O   0  0  0  0  0  0  0  0  0  0  0  0
   -1.4323   -1.0481    0.7250 N   0  0  0  0  0  0  0  0  0  0  0  0
   -2.2249   -0.4834    0.4232 H   0  0  0  0  0  0  0  0  0  0  0  0
   -0.0974   -0.4482    0.5713 C   0  0  1  0  0  0  0  0  0  0  0  0
    0.5992   -0.9370    1.2598 H   0  0  0  0  0  0  0  0  0  0  0  0
    0.5204   -0.4854   -0.8733 C   0  0  1  0  0  0  0  0  0  0  0  0
   -0.0504    0.2553   -1.4453 H   0  0  0  0  0  0  0  0  0  0  0  0
    1.9869   -0.0132   -0.8338 C   0  0  0  0  0  0  0  0  0  0  0  0
    2.5831   -0.6654   -0.1875 H   0  0  0  0  0  0  0  0  0  0  0  0
    2.4211   -0.0317   -1.8387 H   0  0  0  0  0  0  0  0  0  0  0  0
    2.0646    1.0126   -0.4635 H   0  0  0  0  0  0  0  0  0  0  0  0
    0.4848   -1.7609   -1.7704 C   0  0  0  0  0  0  0  0  0  0  0  0
    0.5131   -1.4251   -2.8126 H   0  0  0  0  0  0  0  0  0  0  0  0
    1.4010   -2.3350   -1.5951 H   0  0  0  0  0  0  0  0  0  0  0  0
   -0.6647   -2.7554   -1.6389 C   0  0  0  0  0  0  0  0  0  0  0  0
   -1.6297   -2.2408   -1.6376 H   0  0  0  0  0  0  0  0  0  0  0  0
   -0.5543   -3.3551   -0.7345 H   0  0  0  0  0  0  0  0  0  0  0  0
   -0.6504   -3.4442   -2.4889 H   0  0  0  0  0  0  0  0  0  0  0  0
   -0.2355    1.0377    0.9789 C   0  0  0  0  0  0  0  0  0  0  0  0
   -1.2031    1.6938    0.6060 O   0  0  0  0  0  0  0  0  0  0  0  0
    0.7019    1.6323    1.8041 N   0  0  0  0  0  0  0  0  0  0  0  0
    1.4581    1.0499    2.1520 H   0  0  0  0  0  0  0  0  0  0  0  0
    0.5999    3.0104    2.2679 C   0  0  0  0  0  0  0  0  0  0  0  0
   -0.3201    3.1534    2.8444 H   0  0  0  0  0  0  0  0  0  0  0  0
    1.4516    3.2579    2.9085 H   0  0  0  0  0  0  0  0  0  0  0  0
    0.5948    3.7011    1.4181 H   0  0  0  0  0  0  0  0  0  0  0  0
  1  2  1  0  0  0  0
  2  3  1  0  0  0  0
  2  4  1  0  0  0  0
  2  5  1  0  0  0  0
  5  6  2  0  0  0  0
  5  7  1  0  0  0  0
  7  8  1  0  0  0  0
  7  9  1  0  0  0  0
  9 10  1  0  0  0  0
  9 11  1  0  0  0  0
  9 24  1  0  0  0  0
 11 12  1  0  0  0  0
 11 13  1  0  0  0  0
 11 17  1  0  0  0  0
 13 14  1  0  0  0  0
 13 15  1  0  0  0  0
 13 16  1  0  0  0  0
 17 18  1  0  0  0  0
 17 19  1  0  0  0  0
 17 20  1  0  0  0  0
 20 21  1  0  0  0  0
 20 22  1  0  0  0  0
 20 23  1  0  0  0  0
 24 25  2  0  0  0  0
 24 26  1  0  0  0  0
 26 27  1  0  0  0  0
 26 28  1  0  0  0  0
 28 29  1  0  0  0  0
 28 30  1  0  0  0  0
 28 31  1  0  0  0  0
M  END
$$$$

  -OEChem-03222214053D

 31 30  0     1  0  0  0  0  0999 V2000
   -3.0970   -3.7752    1.8968 H   0  0  0  0  0  0  0  0  0  0  0  0
   -3.0877   -2.7854    1.4322 C   0  0  0  0  0  0  0  0  0  0  0  0
   -3.6581   -2.0961    2.0595 H   0  0  0  0  0  0  0  0  0  0  0  0
   -3.5628   -2.8524    0.4506 H   0  0  0  0  0  0  0  0  0  0  0  0
   -1.6613   -2.2913    1.2832 C   0  0  0  0  0  0  0  0  0  0  0  0
   -0.7334   -2.9726    1.6912 O   0  0  0  0  0  0  0  0  0  0  0  0
   -1.4217   -1.0599    0.7089 N   0  0  0  0  0  0  0  0  0  0  0  0
   -2.2287   -0.4821    0.4782 H   0  0  0  0  0  0  0  0  0  0  0  0
   -0.0970   -0.4445    0.5376 C   0  0  1  0  0  0  0  0  0  0  0  0
    0.6172   -0.9423    1.2013 H   0  0  0  0  0  0  0  0  0  0  0  0
    0.4863   -0.4614   -0.9182 C   0  0  1  0  0  0  0  0  0  0  0  0
   -0.0852    0.2882   -1.4777 H   0  0  0  0  0  0  0  0  0  0  0  0
    1.9602   -0.0130   -0.8991 C   0  0  0  0  0  0  0  0  0  0  0  0
    2.5598   -0.6898   -0.2820 H   0  0  0  0  0  0  0  0  0  0  0  0
    2.3741   -0.0128   -1.9127 H   0  0  0  0  0  0  0  0  0  0  0  0
    2.0608    1.0019   -0.5048 H   0  0  0  0  0  0  0  0  0  0  0  0
    0.4234   -1.7440   -1.7967 C   0  0  0  0  0  0  0  0  0  0  0  0
    0.6693   -1.4486   -2.8221 H   0  0  0  0  0  0  0  0  0  0  0  0
    1.2034   -2.4369   -1.4635 H   0  0  0  0  0  0  0  0  0  0  0  0
   -0.8836   -2.5347   -1.8536 C   0  0  0  0  0  0  0  0  0  0  0  0
   -1.7468   -1.8630   -1.8773 H   0  0  0  0  0  0  0  0  0  0  0  0
   -0.9645   -3.2162   -1.0064 H   0  0  0  0  0  0  0  0  0  0  0  0
   -0.9021   -3.1455   -2.7614 H   0  0  0  0  0  0  0  0  0  0  0  0
   -0.2272    1.0307    0.9822 C   0  0  0  0  0  0  0  0  0  0  0  0
   -1.2100    1.6892    0.6564 O   0  0  0  0  0  0  0  0  0  0  0  0
    0.7305    1.6087    1.7956 N   0  0  0  0  0  0  0  0  0  0  0  0
    1.5031    1.0237    2.1005 H   0  0  0  0  0  0  0  0  0  0  0  0
    0.6373    2.9742    2.2966 C   0  0  0  0  0  0  0  0  0  0  0  0
   -0.2699    3.1014    2.8966 H   0  0  0  0  0  0  0  0  0  0  0  0
    1.5025    3.2065    2.9250 H   0  0  0  0  0  0  0  0  0  0  0  0
    0.6131    3.6861    1.4648 H   0  0  0  0  0  0  0  0  0  0  0  0
  1  2  1  0  0  0  0
  2  3  1  0  0  0  0
  2  4  1  0  0  0  0
  2  5  1  0  0  0  0
  5  6  2  0  0  0  0
  5  7  1  0  0  0  0
  7  8  1  0  0  0  0
  7  9  1  0  0  0  0
  9 10  1  0  0  0  0
  9 11  1  0  0  0  0
  9 24  1  0  0  0  0
 11 12  1  0  0  0  0
 11 13  1  0  0  0  0
 11 17  1  0  0  0  0
 13 14  1  0  0  0  0
 13 15  1  0  0  0  0
 13 16  1  0  0  0  0
 17 18  1  0  0  0  0
 17 19  1  0  0  0  0
 17 20  1  0  0  0  0
 20 21  1  0  0  0  0
 20 22  1  0  0  0  0
 20 23  1  0  0  0  0
 24 25  2  0  0  0  0
 24 26  1  0  0  0  0
 26 27  1  0  0  0  0
 26 28  1  0  0  0  0
 28 29  1  0  0  0  0
 28 30  1  0  0  0  0
 28 31  1  0  0  0  0
M  END
$$$$

  -OEChem-03222214053D

 31 30  0     1  0  0  0  0  0999 V2000
   -3.0680   -3.7890    1.8395 H   0  0  0  0  0  0  0  0  0  0  0  0
   -3.0677   -2.7806    1.4165 C   0  0  0  0  0  0  0  0  0  0  0  0
   -3.6074   -2.1137    2.0932 H   0  0  0  0  0  0  0  0  0  0  0  0
   -3.5809   -2.8031    0.4521 H   0  0  0  0  0  0  0  0  0  0  0  0
   -1.6440   -2.2900    1.2333 C   0  0  0  0  0  0  0  0  0  0  0  0
   -0.7076   -2.9812    1.6032 O   0  0  0  0  0  0  0  0  0  0  0  0
   -1.4169   -1.0554    0.6606 N   0  0  0  0  0  0  0  0  0  0  0  0
   -2.2277   -0.4744    0.4525 H   0  0  0  0  0  0  0  0  0  0  0  0
   -0.0961   -0.4309    0.5013 C   0  0  1  0  0  0  0  0  0  0  0  0
    0.6138   -0.9228    1.1741 H   0  0  0  0  0  0  0  0  0  0  0  0
    0.4912   -0.4706   -0.9484 C   0  0  1  0  0  0  0  0  0  0  0  0
   -0.0580    0.2742   -1.5356 H   0  0  0  0  0  0  0  0  0  0  0  0
    1.9733   -0.0528   -0.9182 C   0  0  0  0  0  0  0  0  0  0  0  0
    2.5555   -0.7466   -0.3034 H   0  0  0  0  0  0  0  0  0  0  0  0
    2.3934   -0.0522   -1.9290 H   0  0  0  0  0  0  0  0  0  0  0  0
    2.0912    0.9565   -0.5144 H   0  0  0  0  0  0  0  0  0  0  0  0
    0.4118   -1.7931   -1.7581 C   0  0  0  0  0  0  0  0  0  0  0  0
    0.8821   -1.6179   -2.7314 H   0  0  0  0  0  0  0  0  0  0  0  0
    0.9969   -2.5645   -1.2464 H   0  0  0  0  0  0  0  0  0  0  0  0
   -0.9867   -2.3541   -2.0325 C   0  0  0  0  0  0  0  0  0  0  0  0
   -1.7060   -1.5445   -2.1897 H   0  0  0  0  0  0  0  0  0  0  0  0
   -0.9618   -2.9720   -2.9352 H   0  0  0  0  0  0  0  0  0  0  0  0
   -1.3276   -2.9914   -1.2169 H   0  0  0  0  0  0  0  0  0  0  0  0
   -0.2280    1.0448    0.9416 C   0  0  0  0  0  0  0  0  0  0  0  0
   -1.2126    1.6992    0.6139 O   0  0  0  0  0  0  0  0  0  0  0  0
    0.7238    1.6254    1.7601 N   0  0  0  0  0  0  0  0  0  0  0  0
    1.4984    1.0439    2.0664 H   0  0  0  0  0  0  0  0  0  0  0  0
    0.6269    2.9923    2.2572 C   0  0  0  0  0  0  0  0  0  0  0  0
   -0.2869    3.1226    2.8466 H   0  0  0  0  0  0  0  0  0  0  0  0
    1.4852    3.2248    2.8949 H   0  0  0  0  0  0  0  0  0  0  0  0
    0.6131    3.7025    1.4237 H   0  0  0  0  0  0  0  0  0  0  0  0
  1  2  1  0  0  0  0
  2  3  1  0  0  0  0
  2  4  1  0  0  0  0
  2  5  1  0  0  0  0
  5  6  2  0  0  0  0
  5  7  1  0  0  0  0
  7  8  1  0  0  0  0
  7  9  1  0  0  0  0
  9 10  1  0  0  0  0
  9 11  1  0  0  0  0
  9 24  1  0  0  0  0
 11 12  1  0  0  0  0
 11 13  1  0  0  0  0
 11 17  1  0  0  0  0
 13 14  1  0  0  0  0
 13 15  1  0  0  0  0
 13 16  1  0  0  0  0
 17 18  1  0  0  0  0
 17 19  1  0  0  0  0
 17 20  1  0  0  0  0
 20 21  1  0  0  0  0
 20 22  1  0  0  0  0
 20 23  1  0  0  0  0
 24 25  2  0  0  0  0
 24 26  1  0  0  0  0
 26 27  1  0  0  0  0
 26 28  1  0  0  0  0
 28 29  1  0  0  0  0
 28 30  1  0  0  0  0
 28 31  1  0  0  0  0
M  END
$$$$

  -OEChem-03222214053D

 31 30  0     1  0  0  0  0  0999 V2000
   -3.0182   -3.8152    1.8052 H   0  0  0  0  0  0  0  0  0  0  0  0
   -3.0328   -2.8159    1.3613 C   0  0  0  0  0  0  0  0  0  0  0  0
   -3.5787   -2.1427    2.0266 H   0  0  0  0  0  0  0  0  0  0  0  0
   -3.5495   -2.8652    0.3999 H   0  0  0  0  0  0  0  0  0  0  0  0
   -1.6162   -2.3106    1.1628 C   0  0  0  0  0  0  0  0  0  0  0  0
   -0.6691   -3.0032    1.5017 O   0  0  0  0  0  0  0  0  0  0  0  0
   -1.4071   -1.0608    0.6157 N   0  0  0  0  0  0  0  0  0  0  0  0
   -2.2250   -0.4812    0.4327 H   0  0  0  0  0  0  0  0  0  0  0  0
   -0.0941   -0.4177    0.4726 C   0  0  1  0  0  0  0  0  0  0  0  0
    0.6182   -0.9142    1.1396 H   0  0  0  0  0  0  0  0  0  0  0  0
    0.4869   -0.4527   -0.9760 C   0  0  1  0  0  0  0  0  0  0  0  0
   -0.0523    0.2915   -1.5730 H   0  0  0  0  0  0  0  0  0  0  0  0
    1.9722   -0.0461   -0.9414 C   0  0  0  0  0  0  0  0  0  0  0  0
    2.5516   -0.7575   -0.3442 H   0  0  0  0  0  0  0  0  0  0  0  0
    2.3885   -0.0247   -1.9534 H   0  0  0  0  0  0  0  0  0  0  0  0
    2.0980    0.9529   -0.5152 H   0  0  0  0  0  0  0  0  0  0  0  0
    0.3898   -1.8028   -1.7347 C   0  0  0  0  0  0  0  0  0  0  0  0
    1.0562   -1.7655   -2.6025 H   0  0  0  0  0  0  0  0  0  0  0  0
    0.7443   -2.6102   -1.0853 H   0  0  0  0  0  0  0  0  0  0  0  0
   -1.0061   -2.1598   -2.2635 C   0  0  0  0  0  0  0  0  0  0  0  0
   -1.4557   -1.2985   -2.7670 H   0  0  0  0  0  0  0  0  0  0  0  0
   -0.9230   -2.9755   -2.9879 H   0  0  0  0  0  0  0  0  0  0  0  0
   -1.6765   -2.4944   -1.4736 H   0  0  0  0  0  0  0  0  0  0  0  0
   -0.2292    1.0489    0.9381 C   0  0  0  0  0  0  0  0  0  0  0  0
   -1.2170    1.7046    0.6238 O   0  0  0  0  0  0  0  0  0  0  0  0
    0.7216    1.6171    1.7663 N   0  0  0  0  0  0  0  0  0  0  0  0
    1.5033    1.0353    2.0535 H   0  0  0  0  0  0  0  0  0  0  0  0
    0.6265    2.9775    2.2812 C   0  0  0  0  0  0  0  0  0  0  0  0
   -0.2882    3.1016    2.8704 H   0  0  0  0  0  0  0  0  0  0  0  0
    1.4839    3.1991    2.9238 H   0  0  0  0  0  0  0  0  0  0  0  0
    0.6162    3.6989    1.4574 H   0  0  0  0  0  0  0  0  0  0  0  0
  1  2  1  0  0  0  0
  2  3  1  0  0  0  0
  2  4  1  0  0  0  0
  2  5  1  0  0  0  0
  5  6  2  0  0  0  0
  5  7  1  0  0  0  0
  7  8  1  0  0  0  0
  7  9  1  0  0  0  0
  9 10  1  0  0  0  0
  9 11  1  0  0  0  0
  9 24  1  0  0  0  0
 11 12  1  0  0  0  0
 11 13  1  0  0  0  0
 11 17  1  0  0  0  0
 13 14  1  0  0  0  0
 13 15  1  0  0  0  0
 13 16  1  0  0  0  0
 17 18  1  0  0  0  0
 17 19  1  0  0  0  0
 17 20  1  0  0  0  0
 20 21  1  0  0  0  0
 20 22  1  0  0  0  0
 20 23  1  0  0  0  0
 24 25  2  0  0  0  0
 24 26  1  0  0  0  0
 26 27  1  0  0  0  0
 26 28  1  0  0  0  0
 28 29  1  0  0  0  0
 28 30  1  0  0  0  0
 28 31  1  0  0  0  0
M  END
$$$$

  -OEChem-03222214053D

 31 30  0     1  0  0  0  0  0999 V2000
   -2.9831   -3.8714    1.6730 H   0  0  0  0  0  0  0  0  0  0  0  0
   -2.9979   -2.8726    1.2278 C   0  0  0  0  0  0  0  0  0  0  0  0
   -3.6070   -2.2163    1.8541 H   0  0  0  0  0  0  0  0  0  0  0  0
   -3.4475   -2.9366    0.2340 H   0  0  0  0  0  0  0  0  0  0  0  0
   -1.5869   -2.3255    1.1228 C   0  0  0  0  0  0  0  0  0  0  0  0
   -0.6435   -2.9942    1.5153 O   0  0  0  0  0  0  0  0  0  0  0  0
   -1.3805   -1.0675    0.5957 N   0  0  0  0  0  0  0  0  0  0  0  0
   -2.2029   -0.5126    0.3647 H   0  0  0  0  0  0  0  0  0  0  0  0
   -0.0752   -0.4016    0.4709 C   0  0  1  0  0  0  0  0  0  0  0  0
    0.6429   -0.8990    1.1308 H   0  0  0  0  0  0  0  0  0  0  0  0
    0.4814   -0.4397   -0.9844 C   0  0  1  0  0  0  0  0  0  0  0  0
   -0.0678    0.2936   -1.5856 H   0  0  0  0  0  0  0  0  0  0  0  0
    1.9644   -0.0280   -0.9802 C   0  0  0  0  0  0  0  0  0  0  0  0
    2.5592   -0.7365   -0.3947 H   0  0  0  0  0  0  0  0  0  0  0  0
    2.3575   -0.0063   -2.0015 H   0  0  0  0  0  0  0  0  0  0  0  0
    2.0940    0.9719   -0.5568 H   0  0  0  0  0  0  0  0  0  0  0  0
    0.3595   -1.8202   -1.6798 C   0  0  0  0  0  0  0  0  0  0  0  0
    1.1706   -1.9406   -2.4054 H   0  0  0  0  0  0  0  0  0  0  0  0
    0.4724   -2.6212   -0.9426 H   0  0  0  0  0  0  0  0  0  0  0  0
   -0.9579   -1.9947   -2.4460 C   0  0  0  0  0  0  0  0  0  0  0  0
   -1.0544   -1.2221   -3.2148 H   0  0  0  0  0  0  0  0  0  0  0  0
   -0.9734   -2.9728   -2.9363 H   0  0  0  0  0  0  0  0  0  0  0  0
   -1.8238   -1.9332   -1.7841 H   0  0  0  0  0  0  0  0  0  0  0  0
   -0.2142    1.0597    0.9480 C   0  0  0  0  0  0  0  0  0  0  0  0
   -1.1959    1.7198    0.6249 O   0  0  0  0  0  0  0  0  0  0  0  0
    0.7331    1.6216    1.7843 N   0  0  0  0  0  0  0  0  0  0  0  0
    1.5105    1.0359    2.0754 H   0  0  0  0  0  0  0  0  0  0  0  0
    0.6422    2.9831    2.2972 C   0  0  0  0  0  0  0  0  0  0  0  0
   -0.2808    3.1165    2.8713 H   0  0  0  0  0  0  0  0  0  0  0  0
    1.4910    3.1974    2.9537 H   0  0  0  0  0  0  0  0  0  0  0  0
    0.6519    3.7037    1.4727 H   0  0  0  0  0  0  0  0  0  0  0  0
  1  2  1  0  0  0  0
  2  3  1  0  0  0  0
  2  4  1  0  0  0  0
  2  5  1  0  0  0  0
  5  6  2  0  0  0  0
  5  7  1  0  0  0  0
  7  8  1  0  0  0  0
  7  9  1  0  0  0  0
  9 10  1  0  0  0  0
  9 11  1  0  0  0  0
  9 24  1  0  0  0  0
 11 12  1  0  0  0  0
 11 13  1  0  0  0  0
 11 17  1  0  0  0  0
 13 14  1  0  0  0  0
 13 15  1  0  0  0  0
 13 16  1  0  0  0  0
 17 18  1  0  0  0  0
 17 19  1  0  0  0  0
 17 20  1  0  0  0  0
 20 21  1  0  0  0  0
 20 22  1  0  0  0  0
 20 23  1  0  0  0  0
 24 25  2  0  0  0  0
 24 26  1  0  0  0  0
 26 27  1  0  0  0  0
 26 28  1  0  0  0  0
 28 29  1  0  0  0  0
 28 30  1  0  0  0  0
 28 31  1  0  0  0  0
M  END
$$$$

  -OEChem-03222214053D

 31 30  0     1  0  0  0  0  0999 V2000
   -2.9857   -3.8882    1.6205 H   0  0  0  0  0  0  0  0  0  0  0  0
   -2.9920   -2.8875    1.1795 C   0  0  0  0  0  0  0  0  0  0  0  0
   -3.6262   -2.2378    1.7874 H   0  0  0  0  0  0  0  0  0  0  0  0
   -3.4066   -2.9502    0.1705 H   0  0  0  0  0  0  0  0  0  0  0  0
   -1.5823   -2.3307    1.1251 C   0  0  0  0  0  0  0  0  0  0  0  0
   -0.6508   -2.9836    1.5694 O   0  0  0  0  0  0  0  0  0  0  0  0
   -1.3643   -1.0776    0.5911 N   0  0  0  0  0  0  0  0  0  0  0  0
   -2.1820   -0.5340    0.3202 H   0  0  0  0  0  0  0  0  0  0  0  0
   -0.0571   -0.4083    0.4775 C   0  0  1  0  0  0  0  0  0  0  0  0
    0.6619   -0.9030    1.1383 H   0  0  0  0  0  0  0  0  0  0  0  0
    0.4870   -0.4493   -0.9804 C   0  0  1  0  0  0  0  0  0  0  0  0
   -0.0690    0.2839   -1.5759 H   0  0  0  0  0  0  0  0  0  0  0  0
    1.9681   -0.0315   -0.9934 C   0  0  0  0  0  0  0  0  0  0  0  0
    2.5699   -0.7258   -0.3980 H   0  0  0  0  0  0  0  0  0  0  0  0
    2.3536   -0.0282   -2.0180 H   0  0  0  0  0  0  0  0  0  0  0  0
    2.0952    0.9770   -0.5893 H   0  0  0  0  0  0  0  0  0  0  0  0
    0.3510   -1.8380   -1.6586 C   0  0  0  0  0  0  0  0  0  0  0  0
    1.2735   -2.0861   -2.1938 H   0  0  0  0  0  0  0  0  0  0  0  0
    0.2074   -2.6277   -0.9174 H   0  0  0  0  0  0  0  0  0  0  0  0
   -0.7875   -1.8555   -2.6809 C   0  0  0  0  0  0  0  0  0  0  0  0
   -0.6067   -1.1183   -3.4695 H   0  0  0  0  0  0  0  0  0  0  0  0
   -0.8620   -2.8450   -3.1418 H   0  0  0  0  0  0  0  0  0  0  0  0
   -1.7416   -1.6254   -2.1976 H   0  0  0  0  0  0  0  0  0  0  0  0
   -0.2011    1.0570    0.9398 C   0  0  0  0  0  0  0  0  0  0  0  0
   -1.1781    1.7150    0.5989 O   0  0  0  0  0  0  0  0  0  0  0  0
    0.7371    1.6243    1.7824 N   0  0  0  0  0  0  0  0  0  0  0  0
    1.5099    1.0397    2.0876 H   0  0  0  0  0  0  0  0  0  0  0  0
    0.6380    2.9875    2.2887 C   0  0  0  0  0  0  0  0  0  0  0  0
   -0.2883    3.1192    2.8577 H   0  0  0  0  0  0  0  0  0  0  0  0
    1.4828    3.2079    2.9482 H   0  0  0  0  0  0  0  0  0  0  0  0
    0.6487    3.7047    1.4613 H   0  0  0  0  0  0  0  0  0  0  0  0
  1  2  1  0  0  0  0
  2  3  1  0  0  0  0
  2  4  1  0  0  0  0
  2  5  1  0  0  0  0
  5  6  2  0  0  0  0
  5  7  1  0  0  0  0
  7  8  1  0  0  0  0
  7  9  1  0  0  0  0
  9 10  1  0  0  0  0
  9 11  1  0  0  0  0
  9 24  1  0  0  0  0
 11 12  1  0  0  0  0
 11 13  1  0  0  0  0
 11 17  1  0  0  0  0
 13 14  1  0  0  0  0
 13 15  1  0  0  0  0
 13 16  1  0  0  0  0
 17 18  1  0  0  0  0
 17 19  1  0  0  0  0
 17 20  1  0  0  0  0
 20 21  1  0  0  0  0
 20 22  1  0  0  0  0
 20 23  1  0  0  0  0
 24 25  2  0  0  0  0
 24 26  1  0  0  0  0
 26 27  1  0  0  0  0
 26 28  1  0  0  0  0
 28 29  1  0  0  0  0
 28 30  1  0  0  0  0
 28 31  1  0  0  0  0
M  END
$$$$

  -OEChem-03222214053D

 31 30  0     1  0  0  0  0  0999 V2000
   -3.0158   -3.8688    1.6699 H   0  0  0  0  0  0  0  0  0  0  0  0
   -3.0168   -2.8726    1.2185 C   0  0  0  0  0  0  0  0  0  0  0  0
   -3.6331   -2.2091    1.8300 H   0  0  0  0  0  0  0  0  0  0  0  0
   -3.4487   -2.9399    0.2171 H   0  0  0  0  0  0  0  0  0  0  0  0
   -1.6012   -2.3342    1.1356 C   0  0  0  0  0  0  0  0  0  0  0  0
   -0.6697   -2.9980    1.5632 O   0  0  0  0  0  0  0  0  0  0  0  0
   -1.3761   -1.0848    0.5952 N   0  0  0  0  0  0  0  0  0  0  0  0
   -2.1914   -0.5322    0.3355 H   0  0  0  0  0  0  0  0  0  0  0  0
   -0.0645   -0.4234    0.4797 C   0  0  1  0  0  0  0  0  0  0  0  0
    0.6502   -0.9184    1.1451 H   0  0  0  0  0  0  0  0  0  0  0  0
    0.4913   -0.4679   -0.9744 C   0  0  1  0  0  0  0  0  0  0  0  0
   -0.0789    0.2618   -1.5609 H   0  0  0  0  0  0  0  0  0  0  0  0
    1.9654   -0.0280   -0.9968 C   0  0  0  0  0  0  0  0  0  0  0  0
    2.5768   -0.6961   -0.3818 H   0  0  0  0  0  0  0  0  0  0  0  0
    2.3509   -0.0484   -2.0211 H   0  0  0  0  0  0  0  0  0  0  0  0
    2.0762    0.9930   -0.6204 H   0  0  0  0  0  0  0  0  0  0  0  0
    0.3666   -1.8497   -1.6746 C   0  0  0  0  0  0  0  0  0  0  0  0
    1.3579   -2.2228   -1.9523 H   0  0  0  0  0  0  0  0  0  0  0  0
   -0.0611   -2.6030   -1.0122 H   0  0  0  0  0  0  0  0  0  0  0  0
   -0.4828   -1.7569   -2.9431 C   0  0  0  0  0  0  0  0  0  0  0  0
   -0.0386   -1.0501   -3.6509 H   0  0  0  0  0  0  0  0  0  0  0  0
   -0.5465   -2.7370   -3.4251 H   0  0  0  0  0  0  0  0  0  0  0  0
   -1.4963   -1.4230   -2.7001 H   0  0  0  0  0  0  0  0  0  0  0  0
   -0.2040    1.0448    0.9355 C   0  0  0  0  0  0  0  0  0  0  0  0
   -1.1794    1.7044    0.5928 O   0  0  0  0  0  0  0  0  0  0  0  0
    0.7348    1.6131    1.7771 N   0  0  0  0  0  0  0  0  0  0  0  0
    1.5066    1.0285    2.0847 H   0  0  0  0  0  0  0  0  0  0  0  0
    0.6393    2.9790    2.2770 C   0  0  0  0  0  0  0  0  0  0  0  0
   -0.2817    3.1127    2.8543 H   0  0  0  0  0  0  0  0  0  0  0  0
    1.4903    3.2042    2.9268 H   0  0  0  0  0  0  0  0  0  0  0  0
    0.6412    3.6916    1.4454 H   0  0  0  0  0  0  0  0  0  0  0  0
  1  2  1  0  0  0  0
  2  3  1  0  0  0  0
  2  4  1  0  0  0  0
  2  5  1  0  0  0  0
  5  6  2  0  0  0  0
  5  7  1  0  0  0  0
  7  8  1  0  0  0  0
  7  9  1  0  0  0  0
  9 10  1  0  0  0  0
  9 11  1  0  0  0  0
  9 24  1  0  0  0  0
 11 12  1  0  0  0  0
 11 13  1  0  0  0  0
 11 17  1  0  0  0  0
 13 14  1  0  0  0  0
 13 15  1  0  0  0  0
 13 16  1  0  0  0  0
 17 18  1  0  0  0  0
 17 19  1  0  0  0  0
 17 20  1  0  0  0  0
 20 21  1  0  0  0  0
 20 22  1  0  0  0  0
 20 23  1  0  0  0  0
 24 25  2  0  0  0  0
 24 26  1  0  0  0  0
 26 27  1  0  0  0  0
 26 28  1  0  0  0  0
 28 29  1  0  0  0  0
 28 30  1  0  0  0  0
 28 31  1  0  0  0  0
M  END
$$$$

  -OEChem-03222214053D

 31 30  0     1  0  0  0  0  0999 V2000
   -3.0332   -3.8612    1.6898 H   0  0  0  0  0  0  0  0  0  0  0  0
   -3.0341   -2.8640    1.2408 C   0  0  0  0  0  0  0  0  0  0  0  0
   -3.6375   -2.1981    1.8625 H   0  0  0  0  0  0  0  0  0  0  0  0
   -3.4803   -2.9261    0.2454 H   0  0  0  0  0  0  0  0  0  0  0  0
   -1.6162   -2.3345    1.1385 C   0  0  0  0  0  0  0  0  0  0  0  0
   -0.6816   -3.0092    1.5416 O   0  0  0  0  0  0  0  0  0  0  0  0
   -1.3909   -1.0850    0.5982 N   0  0  0  0  0  0  0  0  0  0  0  0
   -2.2058   -0.5228    0.3576 H   0  0  0  0  0  0  0  0  0  0  0  0
   -0.0768   -0.4304    0.4786 C   0  0  1  0  0  0  0  0  0  0  0  0
    0.6339   -0.9274    1.1466 H   0  0  0  0  0  0  0  0  0  0  0  0
    0.4911   -0.4804   -0.9712 C   0  0  1  0  0  0  0  0  0  0  0  0
   -0.0936    0.2402   -1.5545 H   0  0  0  0  0  0  0  0  0  0  0  0
    1.9598   -0.0249   -1.0036 C   0  0  0  0  0  0  0  0  0  0  0  0
    2.5794   -0.6755   -0.3783 H   0  0  0  0  0  0  0  0  0  0  0  0
    2.3448   -0.0592   -2.0277 H   0  0  0  0  0  0  0  0  0  0  0  0
    2.0589    1.0033   -0.6440 H   0  0  0  0  0  0  0  0  0  0  0  0
    0.3750   -1.8573   -1.6810 C   0  0  0  0  0  0  0  0  0  0  0  0
    1.3460   -2.3633   -1.6843 H   0  0  0  0  0  0  0  0  0  0  0  0
   -0.3156   -2.5238   -1.1642 H   0  0  0  0  0  0  0  0  0  0  0  0
   -0.1252   -1.7010   -3.1186 C   0  0  0  0  0  0  0  0  0  0  0  0
    0.5520   -1.0615   -3.6932 H   0  0  0  0  0  0  0  0  0  0  0  0
   -0.1768   -2.6790   -3.6066 H   0  0  0  0  0  0  0  0  0  0  0  0
   -1.1250   -1.2556   -3.1305 H   0  0  0  0  0  0  0  0  0  0  0  0
   -0.2090    1.0377    0.9370 C   0  0  0  0  0  0  0  0  0  0  0  0
   -1.1831    1.7007    0.5971 O   0  0  0  0  0  0  0  0  0  0  0  0
    0.7341    1.6023    1.7764 N   0  0  0  0  0  0  0  0  0  0  0  0
    1.5034    1.0142    2.0838 H   0  0  0  0  0  0  0  0  0  0  0  0
    0.6512    2.9725    2.2668 C   0  0  0  0  0  0  0  0  0  0  0  0
   -0.2750    3.1226    2.8313 H   0  0  0  0  0  0  0  0  0  0  0  0
    1.4969    3.1901    2.9260 H   0  0  0  0  0  0  0  0  0  0  0  0
    0.6734    3.6800    1.4312 H   0  0  0  0  0  0  0  0  0  0  0  0
  1  2  1  0  0  0  0
  2  3  1  0  0  0  0
  2  4  1  0  0  0  0
  2  5  1  0  0  0  0
  5  6  2  0  0  0  0
  5  7  1  0  0  0  0
  7  8  1  0  0  0  0
  7  9  1  0  0  0  0
  9 10  1  0  0  0  0
  9 11  1  0  0  0  0
  9 24  1  0  0  0  0
 11 12  1  0  0  0  0
 11 13  1  0  0  0  0
 11 17  1  0  0  0  0
 13 14  1  0  0  0  0
 13 15  1  0  0  0  0
 13 16  1  0  0  0  0
 17 18  1  0  0  0  0
 17 19  1  0  0  0  0
 17 20  1  0  0  0  0
 20 21  1  0  0  0  0
 20 22  1  0  0  0  0
 20 23  1  0  0  0  0
 24 25  2  0  0  0  0
 24 26  1  0  0  0  0
 26 27  1  0  0  0  0
 26 28  1  0  0  0  0
 28 29  1  0  0  0  0
 28 30  1  0  0  0  0
 28 31  1  0  0  0  0
M  END
$$$$

  -OEChem-03222214053D

 31 30  0     1  0  0  0  0  0999 V2000
   -3.0299   -3.8548    1.6862 H   0  0  0  0  0  0  0  0  0  0  0  0
   -3.0348   -2.8568    1.2390 C   0  0  0  0  0  0  0  0  0  0  0  0
   -3.6264   -2.1904    1.8715 H   0  0  0  0  0  0  0  0  0  0  0  0
   -3.4972   -2.9161    0.2508 H   0  0  0  0  0  0  0  0  0  0  0  0
   -1.6172   -2.3309    1.1157 C   0  0  0  0  0  0  0  0  0  0  0  0
   -0.6775   -3.0144    1.4912 O   0  0  0  0  0  0  0  0  0  0  0  0
   -1.3968   -1.0772    0.5833 N   0  0  0  0  0  0  0  0  0  0  0  0
   -2.2132   -0.5086    0.3640 H   0  0  0  0  0  0  0  0  0  0  0  0
   -0.0827   -0.4229    0.4664 C   0  0  1  0  0  0  0  0  0  0  0  0
    0.6256   -0.9234    1.1343 H   0  0  0  0  0  0  0  0  0  0  0  0
    0.4902   -0.4743   -0.9813 C   0  0  1  0  0  0  0  0  0  0  0  0
   -0.0939    0.2403   -1.5724 H   0  0  0  0  0  0  0  0  0  0  0  0
    1.9615   -0.0228   -0.9997 C   0  0  0  0  0  0  0  0  0  0  0  0
    2.5732   -0.6763   -0.3698 H   0  0  0  0  0  0  0  0  0  0  0  0
    2.3611   -0.0529   -2.0174 H   0  0  0  0  0  0  0  0  0  0  0  0
    2.0593    1.0041   -0.6360 H   0  0  0  0  0  0  0  0  0  0  0  0
    0.3707   -1.8555   -1.6783 C   0  0  0  0  0  0  0  0  0  0  0  0
    1.2386   -2.4762   -1.4324 H   0  0  0  0  0  0  0  0  0  0  0  0
   -0.5131   -2.3970   -1.3389 H   0  0  0  0  0  0  0  0  0  0  0  0
    0.2372   -1.7130   -3.1971 C   0  0  0  0  0  0  0  0  0  0  0  0
    1.1121   -1.2115   -3.6208 H   0  0  0  0  0  0  0  0  0  0  0  0
    0.1502   -2.7014   -3.6584 H   0  0  0  0  0  0  0  0  0  0  0  0
   -0.6562   -1.1338   -3.4505 H   0  0  0  0  0  0  0  0  0  0  0  0
   -0.2109    1.0427    0.9346 C   0  0  0  0  0  0  0  0  0  0  0  0
   -1.1856    1.7089    0.6032 O   0  0  0  0  0  0  0  0  0  0  0  0
    0.7347    1.6004    1.7760 N   0  0  0  0  0  0  0  0  0  0  0  0
    1.5079    1.0114    2.0715 H   0  0  0  0  0  0  0  0  0  0  0  0
    0.6554    2.9670    2.2771 C   0  0  0  0  0  0  0  0  0  0  0  0
   -0.2691    3.1150    2.8451 H   0  0  0  0  0  0  0  0  0  0  0  0
    1.5028    3.1779    2.9364 H   0  0  0  0  0  0  0  0  0  0  0  0
    0.6773    3.6806    1.4468 H   0  0  0  0  0  0  0  0  0  0  0  0
  1  2  1  0  0  0  0
  2  3  1  0  0  0  0
  2  4  1  0  0  0  0
  2  5  1  0  0  0  0
  5  6  2  0  0  0  0
  5  7  1  0  0  0  0
  7  8  1  0  0  0  0
  7  9  1  0  0  0  0
  9 10  1  0  0  0  0
  9 11  1  0  0  0  0
  9 24  1  0  0  0  0
 11 12  1  0  0  0  0
 11 13  1  0  0  0  0
 11 17  1  0  0  0  0
 13 14  1  0  0  0  0
 13 15  1  0  0  0  0
 13 16  1  0  0  0  0
 17 18  1  0  0  0  0
 17 19  1  0  0  0  0
 17 20  1  0  0  0  0
 20 21  1  0  0  0  0
 20 22  1  0  0  0  0
 20 23  1  0  0  0  0
 24 25  2  0  0  0  0
 24 26  1  0  0  0  0
 26 27  1  0  0  0  0
 26 28  1  0  0  0  0
 28 29  1  0  0  0  0
 28 30  1  0  0  0  0
 28 31  1  0  0  0  0
M  END
$$$$

  -OEChem-03222214053D

 31 30  0     1  0  0  0  0  0999 V2000
   -3.0102   -3.8489    1.6585 H   0  0  0  0  0  0  0  0  0  0  0  0
   -3.0205   -2.8479    1.2179 C   0  0  0  0  0  0  0  0  0  0  0  0
   -3.6032   -2.1851    1.8621 H   0  0  0  0  0  0  0  0  0  0  0  0
   -3.4956   -2.9002    0.2352 H   0  0  0  0  0  0  0  0  0  0  0  0
   -1.6040   -2.3227    1.0803 C   0  0  0  0  0  0  0  0  0  0  0  0
   -0.6604   -3.0129    1.4330 O   0  0  0  0  0  0  0  0  0  0  0  0
   -1.3886   -1.0634    0.5595 N   0  0  0  0  0  0  0  0  0  0  0  0
   -2.2067   -0.4896    0.3601 H   0  0  0  0  0  0  0  0  0  0  0  0
   -0.0757   -0.4059    0.4497 C   0  0  1  0  0  0  0  0  0  0  0  0
    0.6322   -0.9096    1.1155 H   0  0  0  0  0  0  0  0  0  0  0  0
    0.4969   -0.4539   -0.9980 C   0  0  1  0  0  0  0  0  0  0  0  0
   -0.0791    0.2575   -1.6008 H   0  0  0  0  0  0  0  0  0  0  0  0
    1.9722   -0.0101   -0.9975 C   0  0  0  0  0  0  0  0  0  0  0  0
    2.5826   -0.7078   -0.4154 H   0  0  0  0  0  0  0  0  0  0  0  0
    2.3686    0.0310   -2.0152 H   0  0  0  0  0  0  0  0  0  0  0  0
    2.0801    0.9895   -0.5675 H   0  0  0  0  0  0  0  0  0  0  0  0
    0.3617   -1.8465   -1.6664 C   0  0  0  0  0  0  0  0  0  0  0  0
    1.0634   -2.5499   -1.2061 H   0  0  0  0  0  0  0  0  0  0  0  0
   -0.6447   -2.2434   -1.5160 H   0  0  0  0  0  0  0  0  0  0  0  0
    0.5829   -1.8014   -3.1817 C   0  0  0  0  0  0  0  0  0  0  0  0
    1.6156   -1.5363   -3.4230 H   0  0  0  0  0  0  0  0  0  0  0  0
    0.3757   -2.7844   -3.6154 H   0  0  0  0  0  0  0  0  0  0  0  0
   -0.0869   -1.0710   -3.6460 H   0  0  0  0  0  0  0  0  0  0  0  0
   -0.2089    1.0548    0.9314 C   0  0  0  0  0  0  0  0  0  0  0  0
   -1.1885    1.7187    0.6101 O   0  0  0  0  0  0  0  0  0  0  0  0
    0.7337    1.6077    1.7793 N   0  0  0  0  0  0  0  0  0  0  0  0
    1.5102    1.0196    2.0679 H   0  0  0  0  0  0  0  0  0  0  0  0
    0.6417    2.9649    2.3033 C   0  0  0  0  0  0  0  0  0  0  0  0
   -0.2782    3.0906    2.8842 H   0  0  0  0  0  0  0  0  0  0  0  0
    1.4939    3.1767    2.9561 H   0  0  0  0  0  0  0  0  0  0  0  0
    0.6443    3.6921    1.4845 H   0  0  0  0  0  0  0  0  0  0  0  0
  1  2  1  0  0  0  0
  2  3  1  0  0  0  0
  2  4  1  0  0  0  0
  2  5  1  0  0  0  0
  5  6  2  0  0  0  0
  5  7  1  0  0  0  0
  7  8  1  0  0  0  0
  7  9  1  0  0  0  0
  9 10  1  0  0  0  0
  9 11  1  0  0  0  0
  9 24  1  0  0  0  0
 11 12  1  0  0  0  0
 11 13  1  0  0  0  0
 11 17  1  0  0  0  0
 13 14  1  0  0  0  0
 13 15  1  0  0  0  0
 13 16  1  0  0  0  0
 17 18  1  0  0  0  0
 17 19  1  0  0  0  0
 17 20  1  0  0  0  0
 20 21  1  0  0  0  0
 20 22  1  0  0  0  0
 20 23  1  0  0  0  0
 24 25  2  0  0  0  0
 24 26  1  0  0  0  0
 26 27  1  0  0  0  0
 26 28  1  0  0  0  0
 28 29  1  0  0  0  0
 28 30  1  0  0  0  0
 28 31  1  0  0  0  0
M  END
$$$$

  -OEChem-03222214053D

 31 30  0     1  0  0  0  0  0999 V2000
   -3.0133   -3.8600    1.6572 H   0  0  0  0  0  0  0  0  0  0  0  0
   -3.0271   -2.8591    1.2167 C   0  0  0  0  0  0  0  0  0  0  0  0
   -3.6092   -2.1978    1.8630 H   0  0  0  0  0  0  0  0  0  0  0  0
   -3.5055   -2.9122    0.2358 H   0  0  0  0  0  0  0  0  0  0  0  0
   -1.6124   -2.3306    1.0747 C   0  0  0  0  0  0  0  0  0  0  0  0
   -0.6660   -3.0187    1.4237 O   0  0  0  0  0  0  0  0  0  0  0  0
   -1.4045   -1.0677    0.5604 N   0  0  0  0  0  0  0  0  0  0  0  0
   -2.2264   -0.4991    0.3629 H   0  0  0  0  0  0  0  0  0  0  0  0
   -0.0953   -0.4032    0.4431 C   0  0  1  0  0  0  0  0  0  0  0  0
    0.6085   -0.9122    1.1099 H   0  0  0  0  0  0  0  0  0  0  0  0
    0.4831   -0.4473   -1.0032 C   0  0  1  0  0  0  0  0  0  0  0  0
    0.0983    0.4232   -1.5465 H   0  0  0  0  0  0  0  0  0  0  0  0
    2.0170   -0.3295   -0.9399 C   0  0  0  0  0  0  0  0  0  0  0  0
    2.4542   -1.2383   -0.5139 H   0  0  0  0  0  0  0  0  0  0  0  0
    2.4373   -0.1734   -1.9373 H   0  0  0  0  0  0  0  0  0  0  0  0
    2.3159    0.5227   -0.3230 H   0  0  0  0  0  0  0  0  0  0  0  0
    0.0422   -1.7011   -1.7999 C   0  0  0  0  0  0  0  0  0  0  0  0
    0.3488   -2.6043   -1.2618 H   0  0  0  0  0  0  0  0  0  0  0  0
   -1.0488   -1.7129   -1.8825 H   0  0  0  0  0  0  0  0  0  0  0  0
    0.6067   -1.7519   -3.2228 C   0  0  0  0  0  0  0  0  0  0  0  0
    1.6891   -1.9079   -3.2111 H   0  0  0  0  0  0  0  0  0  0  0  0
    0.1521   -2.5816   -3.7726 H   0  0  0  0  0  0  0  0  0  0  0  0
    0.3868   -0.8215   -3.7556 H   0  0  0  0  0  0  0  0  0  0  0  0
   -0.2086    1.0564    0.9296 C   0  0  0  0  0  0  0  0  0  0  0  0
   -1.1884    1.7276    0.6249 O   0  0  0  0  0  0  0  0  0  0  0  0
    0.7501    1.5985    1.7659 N   0  0  0  0  0  0  0  0  0  0  0  0
    1.5232    1.0018    2.0457 H   0  0  0  0  0  0  0  0  0  0  0  0
    0.6767    2.9553    2.2936 C   0  0  0  0  0  0  0  0  0  0  0  0
   -0.2351    3.0879    2.8854 H   0  0  0  0  0  0  0  0  0  0  0  0
    1.5384    3.1587    2.9367 H   0  0  0  0  0  0  0  0  0  0  0  0
    0.6758    3.6838    1.4760 H   0  0  0  0  0  0  0  0  0  0  0  0
  1  2  1  0  0  0  0
  2  3  1  0  0  0  0
  2  4  1  0  0  0  0
  2  5  1  0  0  0  0
  5  6  2  0  0  0  0
  5  7  1  0  0  0  0
  7  8  1  0  0  0  0
  7  9  1  0  0  0  0
  9 10  1  0  0  0  0
  9 11  1  0  0  0  0
  9 24  1  0  0  0  0
 11 12  1  0  0  0  0
 11 13  1  0  0  0  0
 11 17  1  0  0  0  0
 13 14  1  0  0  0  0
 13 15  1  0  0  0  0
 13 16  1  0  0  0  0
 17 18  1  0  0  0  0
 17 19  1  0  0  0  0
 17 20  1  0  0  0  0
 20 21  1  0  0  0  0
 20 22  1  0  0  0  0
 20 23  1  0  0  0  0
 24 25  2  0  0  0  0
 24 26  1  0  0  0  0
 26 27  1  0  0  0  0
 26 28  1  0  0  0  0
 28 29  1  0  0  0  0
 28 30  1  0  0  0  0
 28 31  1  0  0  0  0
M  END
$$$$

  -OEChem-03222214053D

 31 30  0     1  0  0  0  0  0999 V2000
   -3.0190   -3.8587    1.6280 H   0  0  0  0  0  0  0  0  0  0  0  0
   -3.0250   -2.8571    1.1893 C   0  0  0  0  0  0  0  0  0  0  0  0
   -3.6204   -2.1974    1.8250 H   0  0  0  0  0  0  0  0  0  0  0  0
   -3.4838   -2.9091    0.1990 H   0  0  0  0  0  0  0  0  0  0  0  0
   -1.6082   -2.3268    1.0762 C   0  0  0  0  0  0  0  0  0  0  0  0
   -0.6690   -3.0103    1.4530 O   0  0  0  0  0  0  0  0  0  0  0  0
   -1.3909   -1.0661    0.5598 N   0  0  0  0  0  0  0  0  0  0  0  0
   -2.2095   -0.5002    0.3415 H   0  0  0  0  0  0  0  0  0  0  0  0
   -0.0793   -0.4033    0.4501 C   0  0  1  0  0  0  0  0  0  0  0  0
    0.6236   -0.9125    1.1175 H   0  0  0  0  0  0  0  0  0  0  0  0
    0.4942   -0.4402   -0.9990 C   0  0  1  0  0  0  0  0  0  0  0  0
    0.1162    0.4322   -1.5440 H   0  0  0  0  0  0  0  0  0  0  0  0
    2.0283   -0.3179   -0.9243 C   0  0  0  0  0  0  0  0  0  0  0  0
    2.4652   -1.2270   -0.4988 H   0  0  0  0  0  0  0  0  0  0  0  0
    2.4552   -0.1550   -1.9182 H   0  0  0  0  0  0  0  0  0  0  0  0
    2.3207    0.5324   -0.3019 H   0  0  0  0  0  0  0  0  0  0  0  0
    0.0413   -1.6924   -1.7959 C   0  0  0  0  0  0  0  0  0  0  0  0
    0.1358   -2.5788   -1.1607 H   0  0  0  0  0  0  0  0  0  0  0  0
   -1.0144   -1.5808   -2.0632 H   0  0  0  0  0  0  0  0  0  0  0  0
    0.8433   -1.9627   -3.0729 C   0  0  0  0  0  0  0  0  0  0  0  0
    1.8730   -2.2483   -2.8381 H   0  0  0  0  0  0  0  0  0  0  0  0
    0.3845   -2.7840   -3.6318 H   0  0  0  0  0  0  0  0  0  0  0  0
    0.8557   -1.0741   -3.7117 H   0  0  0  0  0  0  0  0  0  0  0  0
   -0.1986    1.0574    0.9324 C   0  0  0  0  0  0  0  0  0  0  0  0
   -1.1745    1.7283    0.6148 O   0  0  0  0  0  0  0  0  0  0  0  0
    0.7524    1.6026    1.7754 N   0  0  0  0  0  0  0  0  0  0  0  0
    1.5205    1.0054    2.0681 H   0  0  0  0  0  0  0  0  0  0  0  0
    0.6733    2.9608    2.2985 C   0  0  0  0  0  0  0  0  0  0  0  0
   -0.2449    3.0952    2.8799 H   0  0  0  0  0  0  0  0  0  0  0  0
    1.5279    3.1662    2.9502 H   0  0  0  0  0  0  0  0  0  0  0  0
    0.6808    3.6870    1.4789 H   0  0  0  0  0  0  0  0  0  0  0  0
  1  2  1  0  0  0  0
  2  3  1  0  0  0  0
  2  4  1  0  0  0  0
  2  5  1  0  0  0  0
  5  6  2  0  0  0  0
  5  7  1  0  0  0  0
  7  8  1  0  0  0  0
  7  9  1  0  0  0  0
  9 10  1  0  0  0  0
  9 11  1  0  0  0  0
  9 24  1  0  0  0  0
 11 12  1  0  0  0  0
 11 13  1  0  0  0  0
 11 17  1  0  0  0  0
 13 14  1  0  0  0  0
 13 15  1  0  0  0  0
 13 16  1  0  0  0  0
 17 18  1  0  0  0  0
 17 19  1  0  0  0  0
 17 20  1  0  0  0  0
 20 21  1  0  0  0  0
 20 22  1  0  0  0  0
 20 23  1  0  0  0  0
 24 25  2  0  0  0  0
 24 26  1  0  0  0  0
 26 27  1  0  0  0  0
 26 28  1  0  0  0  0
 28 29  1  0  0  0  0
 28 30  1  0  0  0  0
 28 31  1  0  0  0  0
M  END
$$$$

  -OEChem-03222214053D

 31 30  0     1  0  0  0  0  0999 V2000
   -3.0382   -3.8486    1.6350 H   0  0  0  0  0  0  0  0  0  0  0  0
   -3.0369   -2.8481    1.1934 C   0  0  0  0  0  0  0  0  0  0  0  0
   -3.6345   -2.1843    1.8228 H   0  0  0  0  0  0  0  0  0  0  0  0
   -3.4881   -2.9008    0.1997 H   0  0  0  0  0  0  0  0  0  0  0  0
   -1.6172   -2.3238    1.0895 C   0  0  0  0  0  0  0  0  0  0  0  0
   -0.6840   -3.0076    1.4802 O   0  0  0  0  0  0  0  0  0  0  0  0
   -1.3895   -1.0671    0.5673 N   0  0  0  0  0  0  0  0  0  0  0  0
   -2.2039   -0.4998    0.3377 H   0  0  0  0  0  0  0  0  0  0  0  0
   -0.0739   -0.4114    0.4579 C   0  0  1  0  0  0  0  0  0  0  0  0
    0.6263   -0.9216    1.1275 H   0  0  0  0  0  0  0  0  0  0  0  0
    0.5039   -0.4441   -0.9920 C   0  0  1  0  0  0  0  0  0  0  0  0
    0.1283    0.4307   -1.5346 H   0  0  0  0  0  0  0  0  0  0  0  0
    2.0367   -0.3011   -0.9000 C   0  0  0  0  0  0  0  0  0  0  0  0
    2.4790   -1.1922   -0.4430 H   0  0  0  0  0  0  0  0  0  0  0  0
    2.4759   -0.1580   -1.8915 H   0  0  0  0  0  0  0  0  0  0  0  0
    2.3110    0.5691   -0.2971 H   0  0  0  0  0  0  0  0  0  0  0  0
    0.0556   -1.6887   -1.8136 C   0  0  0  0  0  0  0  0  0  0  0  0
   -0.0888   -2.5367   -1.1398 H   0  0  0  0  0  0  0  0  0  0  0  0
   -0.9079   -1.4709   -2.2857 H   0  0  0  0  0  0  0  0  0  0  0  0
    1.0441   -2.1773   -2.8790 C   0  0  0  0  0  0  0  0  0  0  0  0
    1.9723   -2.5344   -2.4228 H   0  0  0  0  0  0  0  0  0  0  0  0
    0.6031   -3.0073   -3.4393 H   0  0  0  0  0  0  0  0  0  0  0  0
    1.2771   -1.3731   -3.5836 H   0  0  0  0  0  0  0  0  0  0  0  0
   -0.1949    1.0518    0.9345 C   0  0  0  0  0  0  0  0  0  0  0  0
   -1.1682    1.7229    0.6090 O   0  0  0  0  0  0  0  0  0  0  0  0
    0.7524    1.6002    1.7796 N   0  0  0  0  0  0  0  0  0  0  0  0
    1.5200    1.0045    2.0767 H   0  0  0  0  0  0  0  0  0  0  0  0
    0.6704    2.9601    2.2979 C   0  0  0  0  0  0  0  0  0  0  0  0
   -0.2503    3.0960    2.8750 H   0  0  0  0  0  0  0  0  0  0  0  0
    1.5223    3.1678    2.9525 H   0  0  0  0  0  0  0  0  0  0  0  0
    0.6812    3.6839    1.4761 H   0  0  0  0  0  0  0  0  0  0  0  0
  1  2  1  0  0  0  0
  2  3  1  0  0  0  0
  2  4  1  0  0  0  0
  2  5  1  0  0  0  0
  5  6  2  0  0  0  0
  5  7  1  0  0  0  0
  7  8  1  0  0  0  0
  7  9  1  0  0  0  0
  9 10  1  0  0  0  0
  9 11  1  0  0  0  0
  9 24  1  0  0  0  0
 11 12  1  0  0  0  0
 11 13  1  0  0  0  0
 11 17  1  0  0  0  0
 13 14  1  0  0  0  0
 13 15  1  0  0  0  0
 13 16  1  0  0  0  0
 17 18  1  0  0  0  0
 17 19  1  0  0  0  0
 17 20  1  0  0  0  0
 20 21  1  0  0  0  0
 20 22  1  0  0  0  0
 20 23  1  0  0  0  0
 24 25  2  0  0  0  0
 24 26  1  0  0  0  0
 26 27  1  0  0  0  0
 26 28  1  0  0  0  0
 28 29  1  0  0  0  0
 28 30  1  0  0  0  0
 28 31  1  0  0  0  0
M  END
$$$$

  -OEChem-03222214053D

 31 30  0     1  0  0  0  0  0999 V2000
   -3.0665   -3.8263    1.6707 H   0  0  0  0  0  0  0  0  0  0  0  0
   -3.0599   -2.8282    1.2240 C   0  0  0  0  0  0  0  0  0  0  0  0
   -3.6437   -2.1552    1.8567 H   0  0  0  0  0  0  0  0  0  0  0  0
   -3.5229   -2.8817    0.2357 H   0  0  0  0  0  0  0  0  0  0  0  0
   -1.6359   -2.3195    1.1017 C   0  0  0  0  0  0  0  0  0  0  0  0
   -0.7055   -3.0132    1.4815 O   0  0  0  0  0  0  0  0  0  0  0  0
   -1.4004   -1.0664    0.5738 N   0  0  0  0  0  0  0  0  0  0  0  0
   -2.2112   -0.4882    0.3585 H   0  0  0  0  0  0  0  0  0  0  0  0
   -0.0799   -0.4214    0.4596 C   0  0  1  0  0  0  0  0  0  0  0  0
    0.6149   -0.9319    1.1343 H   0  0  0  0  0  0  0  0  0  0  0  0
    0.5140   -0.4586   -0.9865 C   0  0  1  0  0  0  0  0  0  0  0  0
    0.1282    0.4141   -1.5257 H   0  0  0  0  0  0  0  0  0  0  0  0
    2.0427   -0.2743   -0.8843 C   0  0  0  0  0  0  0  0  0  0  0  0
    2.5041   -1.1311   -0.3832 H   0  0  0  0  0  0  0  0  0  0  0  0
    2.4897   -0.1609   -1.8761 H   0  0  0  0  0  0  0  0  0  0  0  0
    2.2872    0.6277   -0.3166 H   0  0  0  0  0  0  0  0  0  0  0  0
    0.0854   -1.6953   -1.8412 C   0  0  0  0  0  0  0  0  0  0  0  0
   -0.3344   -2.4713   -1.2004 H   0  0  0  0  0  0  0  0  0  0  0  0
   -0.7042   -1.3835   -2.5326 H   0  0  0  0  0  0  0  0  0  0  0  0
    1.1954   -2.3966   -2.6343 C   0  0  0  0  0  0  0  0  0  0  0  0
    1.9667   -2.7911   -1.9660 H   0  0  0  0  0  0  0  0  0  0  0  0
    0.7735   -3.2367   -3.1944 H   0  0  0  0  0  0  0  0  0  0  0  0
    1.6550   -1.7087   -3.3501 H   0  0  0  0  0  0  0  0  0  0  0  0
   -0.1992    1.0435    0.9330 C   0  0  0  0  0  0  0  0  0  0  0  0
   -1.1732    1.7147    0.6094 O   0  0  0  0  0  0  0  0  0  0  0  0
    0.7489    1.5920    1.7772 N   0  0  0  0  0  0  0  0  0  0  0  0
    1.5152    0.9952    2.0749 H   0  0  0  0  0  0  0  0  0  0  0  0
    0.6669    2.9504    2.2997 C   0  0  0  0  0  0  0  0  0  0  0  0
   -0.2490    3.0818    2.8853 H   0  0  0  0  0  0  0  0  0  0  0  0
    1.5241    3.1587    2.9471 H   0  0  0  0  0  0  0  0  0  0  0  0
    0.6684    3.6767    1.4801 H   0  0  0  0  0  0  0  0  0  0  0  0
  1  2  1  0  0  0  0
  2  3  1  0  0  0  0
  2  4  1  0  0  0  0
  2  5  1  0  0  0  0
  5  6  2  0  0  0  0
  5  7  1  0  0  0  0
  7  8  1  0  0  0  0
  7  9  1  0  0  0  0
  9 10  1  0  0  0  0
  9 11  1  0  0  0  0
  9 24  1  0  0  0  0
 11 12  1  0  0  0  0
 11 13  1  0  0  0  0
 11 17  1  0  0  0  0
 13 14  1  0  0  0  0
 13 15  1  0  0  0  0
 13 16  1  0  0  0  0
 17 18  1  0  0  0  0
 17 19  1  0  0  0  0
 17 20  1  0  0  0  0
 20 21  1  0  0  0  0
 20 22  1  0  0  0  0
 20 23  1  0  0  0  0
 24 25  2  0  0  0  0
 24 26  1  0  0  0  0
 26 27  1  0  0  0  0
 26 28  1  0  0  0  0
 28 29  1  0  0  0  0
 28 30  1  0  0  0  0
 28 31  1  0  0  0  0
M  END
$$$$

  -OEChem-03222214053D

 31 30  0     1  0  0  0  0  0999 V2000
   -3.0863   -3.8120    1.6950 H   0  0  0  0  0  0  0  0  0  0  0  0
   -3.0777   -2.8140    1.2479 C   0  0  0  0  0  0  0  0  0  0  0  0
   -3.6475   -2.1361    1.8880 H   0  0  0  0  0  0  0  0  0  0  0  0
   -3.5543   -2.8642    0.2659 H   0  0  0  0  0  0  0  0  0  0  0  0
   -1.6518   -2.3160    1.1062 C   0  0  0  0  0  0  0  0  0  0  0  0
   -0.7208   -3.0189    1.4672 O   0  0  0  0  0  0  0  0  0  0  0  0
   -1.4153   -1.0634    0.5773 N   0  0  0  0  0  0  0  0  0  0  0  0
   -2.2245   -0.4770    0.3784 H   0  0  0  0  0  0  0  0  0  0  0  0
   -0.0922   -0.4260    0.4605 C   0  0  1  0  0  0  0  0  0  0  0  0
    0.5974   -0.9375    1.1395 H   0  0  0  0  0  0  0  0  0  0  0  0
    0.5198   -0.4726   -0.9781 C   0  0  1  0  0  0  0  0  0  0  0  0
    0.1114    0.3919   -1.5141 H   0  0  0  0  0  0  0  0  0  0  0  0
    2.0427   -0.2451   -0.8870 C   0  0  0  0  0  0  0  0  0  0  0  0
    2.5300   -1.0679   -0.3547 H   0  0  0  0  0  0  0  0  0  0  0  0
    2.4807   -0.1589   -1.8857 H   0  0  0  0  0  0  0  0  0  0  0  0
    2.2645    0.6846   -0.3558 H   0  0  0  0  0  0  0  0  0  0  0  0
    0.1129   -1.7058   -1.8528 C   0  0  0  0  0  0  0  0  0  0  0  0
   -0.5888   -2.3543   -1.3299 H   0  0  0  0  0  0  0  0  0  0  0  0
   -0.4115   -1.3321   -2.7383 H   0  0  0  0  0  0  0  0  0  0  0  0
    1.2579   -2.6074   -2.3306 C   0  0  0  0  0  0  0  0  0  0  0  0
    1.8120   -3.0110   -1.4778 H   0  0  0  0  0  0  0  0  0  0  0  0
    0.8510   -3.4488   -2.8994 H   0  0  0  0  0  0  0  0  0  0  0  0
    1.9456   -2.0618   -2.9828 H   0  0  0  0  0  0  0  0  0  0  0  0
   -0.2052    1.0390    0.9347 C   0  0  0  0  0  0  0  0  0  0  0  0
   -1.1781    1.7133    0.6143 O   0  0  0  0  0  0  0  0  0  0  0  0
    0.7465    1.5831    1.7776 N   0  0  0  0  0  0  0  0  0  0  0  0
    1.5127    0.9840    2.0708 H   0  0  0  0  0  0  0  0  0  0  0  0
    0.6690    2.9403    2.3033 C   0  0  0  0  0  0  0  0  0  0  0  0
   -0.2448    3.0719    2.8924 H   0  0  0  0  0  0  0  0  0  0  0  0
    1.5287    3.1454    2.9484 H   0  0  0  0  0  0  0  0  0  0  0  0
    0.6691    3.6683    1.4853 H   0  0  0  0  0  0  0  0  0  0  0  0
  1  2  1  0  0  0  0
  2  3  1  0  0  0  0
  2  4  1  0  0  0  0
  2  5  1  0  0  0  0
  5  6  2  0  0  0  0
  5  7  1  0  0  0  0
  7  8  1  0  0  0  0
  7  9  1  0  0  0  0
  9 10  1  0  0  0  0
  9 11  1  0  0  0  0
  9 24  1  0  0  0  0
 11 12  1  0  0  0  0
 11 13  1  0  0  0  0
 11 17  1  0  0  0  0
 13 14  1  0  0  0  0
 13 15  1  0  0  0  0
 13 16  1  0  0  0  0
 17 18  1  0  0  0  0
 17 19  1  0  0  0  0
 17 20  1  0  0  0  0
 20 21  1  0  0  0  0
 20 22  1  0  0  0  0
 20 23  1  0  0  0  0
 24 25  2  0  0  0  0
 24 26  1  0  0  0  0
 26 27  1  0  0  0  0
 26 28  1  0  0  0  0
 28 29  1  0  0  0  0
 28 30  1  0  0  0  0
 28 31  1  0  0  0  0
M  END
$$$$

  -OEChem-03222214053D

 31 30  0     1  0  0  0  0  0999 V2000
   -3.0827   -3.8129    1.6903 H   0  0  0  0  0  0  0  0  0  0  0  0
   -3.0794   -2.8135    1.2461 C   0  0  0  0  0  0  0  0  0  0  0  0
   -3.6448   -2.1384    1.8931 H   0  0  0  0  0  0  0  0  0  0  0  0
   -3.5640   -2.8608    0.2678 H   0  0  0  0  0  0  0  0  0  0  0  0
   -1.6553   -2.3135    1.0943 C   0  0  0  0  0  0  0  0  0  0  0  0
   -0.7211   -3.0197    1.4400 O   0  0  0  0  0  0  0  0  0  0  0  0
   -1.4242   -1.0574    0.5718 N   0  0  0  0  0  0  0  0  0  0  0  0
   -2.2348   -0.4696    0.3834 H   0  0  0  0  0  0  0  0  0  0  0  0
   -0.1023   -0.4187    0.4586 C   0  0  1  0  0  0  0  0  0  0  0  0
    0.5841   -0.9320    1.1397 H   0  0  0  0  0  0  0  0  0  0  0  0
    0.5187   -0.4745   -0.9734 C   0  0  1  0  0  0  0  0  0  0  0  0
    0.0941    0.3802   -1.5126 H   0  0  0  0  0  0  0  0  0  0  0  0
    2.0383   -0.2311   -0.9025 C   0  0  0  0  0  0  0  0  0  0  0  0
    2.5360   -1.0194   -0.3292 H   0  0  0  0  0  0  0  0  0  0  0  0
    2.4669   -0.2011   -1.9089 H   0  0  0  0  0  0  0  0  0  0  0  0
    2.2538    0.7289   -0.4246 H   0  0  0  0  0  0  0  0  0  0  0  0
    0.1227   -1.7107   -1.8425 C   0  0  0  0  0  0  0  0  0  0  0  0
   -0.7880   -2.1918   -1.4852 H   0  0  0  0  0  0  0  0  0  0  0  0
   -0.1050   -1.3454   -2.8491 H   0  0  0  0  0  0  0  0  0  0  0  0
    1.2060   -2.7855   -1.9914 C   0  0  0  0  0  0  0  0  0  0  0  0
    1.5122   -3.1556   -1.0079 H   0  0  0  0  0  0  0  0  0  0  0  0
    0.8126   -3.6287   -2.5670 H   0  0  0  0  0  0  0  0  0  0  0  0
    2.0833   -2.3992   -2.5181 H   0  0  0  0  0  0  0  0  0  0  0  0
   -0.2080    1.0446    0.9384 C   0  0  0  0  0  0  0  0  0  0  0  0
   -1.1799    1.7231    0.6240 O   0  0  0  0  0  0  0  0  0  0  0  0
    0.7472    1.5817    1.7820 N   0  0  0  0  0  0  0  0  0  0  0  0
    1.5128    0.9793    2.0701 H   0  0  0  0  0  0  0  0  0  0  0  0
    0.6747    2.9367    2.3145 C   0  0  0  0  0  0  0  0  0  0  0  0
   -0.2360    3.0675    2.9084 H   0  0  0  0  0  0  0  0  0  0  0  0
    1.5378    3.1372    2.9564 H   0  0  0  0  0  0  0  0  0  0  0  0
    0.6724    3.6685    1.4999 H   0  0  0  0  0  0  0  0  0  0  0  0
  1  2  1  0  0  0  0
  2  3  1  0  0  0  0
  2  4  1  0  0  0  0
  2  5  1  0  0  0  0
  5  6  2  0  0  0  0
  5  7  1  0  0  0  0
  7  8  1  0  0  0  0
  7  9  1  0  0  0  0
  9 10  1  0  0  0  0
  9 11  1  0  0  0  0
  9 24  1  0  0  0  0
 11 12  1  0  0  0  0
 11 13  1  0  0  0  0
 11 17  1  0  0  0  0
 13 14  1  0  0  0  0
 13 15  1  0  0  0  0
 13 16  1  0  0  0  0
 17 18  1  0  0  0  0
 17 19  1  0  0  0  0
 17 20  1  0  0  0  0
 20 21  1  0  0  0  0
 20 22  1  0  0  0  0
 20 23  1  0  0  0  0
 24 25  2  0  0  0  0
 24 26  1  0  0  0  0
 26 27  1  0  0  0  0
 26 28  1  0  0  0  0
 28 29  1  0  0  0  0
 28 30  1  0  0  0  0
 28 31  1  0  0  0  0
M  END
$$$$

  -OEChem-03222214053D

 31 30  0     1  0  0  0  0  0999 V2000
   -3.0734   -3.8289    1.6558 H   0  0  0  0  0  0  0  0  0  0  0  0
   -3.0696   -2.8277    1.2157 C   0  0  0  0  0  0  0  0  0  0  0  0
   -3.6593   -2.1615    1.8503 H   0  0  0  0  0  0  0  0  0  0  0  0
   -3.5282   -2.8772    0.2252 H   0  0  0  0  0  0  0  0  0  0  0  0
   -1.6474   -2.3119    1.1020 C   0  0  0  0  0  0  0  0  0  0  0  0
   -0.7165   -3.0034    1.4843 O   0  0  0  0  0  0  0  0  0  0  0  0
   -1.4173   -1.0557    0.5799 N   0  0  0  0  0  0  0  0  0  0  0  0
   -2.2298   -0.4810    0.3619 H   0  0  0  0  0  0  0  0  0  0  0  0
   -0.0991   -0.4095    0.4677 C   0  0  1  0  0  0  0  0  0  0  0  0
    0.5910   -0.9209    1.1466 H   0  0  0  0  0  0  0  0  0  0  0  0
    0.5117   -0.4662   -0.9665 C   0  0  1  0  0  0  0  0  0  0  0  0
    0.0856    0.3860   -1.5081 H   0  0  0  0  0  0  0  0  0  0  0  0
    2.0334   -0.2417   -0.9166 C   0  0  0  0  0  0  0  0  0  0  0  0
    2.5246   -1.0064   -0.3066 H   0  0  0  0  0  0  0  0  0  0  0  0
    2.4546   -0.2738   -1.9263 H   0  0  0  0  0  0  0  0  0  0  0  0
    2.2632    0.7388   -0.4896 H   0  0  0  0  0  0  0  0  0  0  0  0
    0.1124   -1.7032   -1.8218 C   0  0  0  0  0  0  0  0  0  0  0  0
   -0.9155   -2.0148   -1.6267 H   0  0  0  0  0  0  0  0  0  0  0  0
    0.1420   -1.4038   -2.8745 H   0  0  0  0  0  0  0  0  0  0  0  0
    1.0467   -2.9094   -1.6708 C   0  0  0  0  0  0  0  0  0  0  0  0
    1.1256   -3.2022   -0.6193 H   0  0  0  0  0  0  0  0  0  0  0  0
    0.6505   -3.7583   -2.2362 H   0  0  0  0  0  0  0  0  0  0  0  0
    2.0475   -2.6872   -2.0522 H   0  0  0  0  0  0  0  0  0  0  0  0
   -0.2027    1.0546    0.9440 C   0  0  0  0  0  0  0  0  0  0  0  0
   -1.1727    1.7343    0.6272 O   0  0  0  0  0  0  0  0  0  0  0  0
    0.7544    1.5918    1.7853 N   0  0  0  0  0  0  0  0  0  0  0  0
    1.5158    0.9867    2.0788 H   0  0  0  0  0  0  0  0  0  0  0  0
    0.6796    2.9449    2.3224 C   0  0  0  0  0  0  0  0  0  0  0  0
   -0.2320    3.0722    2.9158 H   0  0  0  0  0  0  0  0  0  0  0  0
    1.5414    3.1447    2.9664 H   0  0  0  0  0  0  0  0  0  0  0  0
    0.6773    3.6796    1.5104 H   0  0  0  0  0  0  0  0  0  0  0  0
  1  2  1  0  0  0  0
  2  3  1  0  0  0  0
  2  4  1  0  0  0  0
  2  5  1  0  0  0  0
  5  6  2  0  0  0  0
  5  7  1  0  0  0  0
  7  8  1  0  0  0  0
  7  9  1  0  0  0  0
  9 10  1  0  0  0  0
  9 11  1  0  0  0  0
  9 24  1  0  0  0  0
 11 12  1  0  0  0  0
 11 13  1  0  0  0  0
 11 17  1  0  0  0  0
 13 14  1  0  0  0  0
 13 15  1  0  0  0  0
 13 16  1  0  0  0  0
 17 18  1  0  0  0  0
 17 19  1  0  0  0  0
 17 20  1  0  0  0  0
 20 21  1  0  0  0  0
 20 22  1  0  0  0  0
 20 23  1  0  0  0  0
 24 25  2  0  0  0  0
 24 26  1  0  0  0  0
 26 27  1  0  0  0  0
 26 28  1  0  0  0  0
 28 29  1  0  0  0  0
 28 30  1  0  0  0  0
 28 31  1  0  0  0  0
M  END
$$$$

  -OEChem-03222214053D

 31 30  0     1  0  0  0  0  0999 V2000
   -3.0674   -3.8633    1.6136 H   0  0  0  0  0  0  0  0  0  0  0  0
   -3.0522   -2.8645    1.1686 C   0  0  0  0  0  0  0  0  0  0  0  0
   -3.7096   -2.2108    1.7469 H   0  0  0  0  0  0  0  0  0  0  0  0
   -3.4247   -2.9307    0.1435 H   0  0  0  0  0  0  0  0  0  0  0  0
   -1.6395   -2.3114    1.1710 C   0  0  0  0  0  0  0  0  0  0  0  0
   -0.7394   -2.9477    1.6955 O   0  0  0  0  0  0  0  0  0  0  0  0
   -1.3959   -1.0661    0.6300 N   0  0  0  0  0  0  0  0  0  0  0  0
   -2.2005   -0.5298    0.3107 H   0  0  0  0  0  0  0  0  0  0  0  0
   -0.0794   -0.4156    0.5139 C   0  0  1  0  0  0  0  0  0  0  0  0
    0.6217   -0.9198    1.1865 H   0  0  0  0  0  0  0  0  0  0  0  0
    0.5003   -0.4538   -0.9357 C   0  0  1  0  0  0  0  0  0  0  0  0
    0.0897    0.4141   -1.4643 H   0  0  0  0  0  0  0  0  0  0  0  0
    2.0286   -0.2814   -0.9009 C   0  0  0  0  0  0  0  0  0  0  0  0
    2.4997   -1.0660   -0.3004 H   0  0  0  0  0  0  0  0  0  0  0  0
    2.4390   -0.3250   -1.9147 H   0  0  0  0  0  0  0  0  0  0  0  0
    2.2951    0.6882   -0.4700 H   0  0  0  0  0  0  0  0  0  0  0  0
    0.0914   -1.6697   -1.8064 C   0  0  0  0  0  0  0  0  0  0  0  0
   -0.9905   -1.8204   -1.7562 H   0  0  0  0  0  0  0  0  0  0  0  0
    0.3242   -1.4415   -2.8517 H   0  0  0  0  0  0  0  0  0  0  0  0
    0.8019   -2.9785   -1.4410 C   0  0  0  0  0  0  0  0  0  0  0  0
    0.7233   -3.1875   -0.3728 H   0  0  0  0  0  0  0  0  0  0  0  0
    0.3527   -3.8111   -1.9903 H   0  0  0  0  0  0  0  0  0  0  0  0
    1.8621   -2.9302   -1.7063 H   0  0  0  0  0  0  0  0  0  0  0  0
   -0.1943    1.0559    0.9651 C   0  0  0  0  0  0  0  0  0  0  0  0
   -1.1554    1.7324    0.6149 O   0  0  0  0  0  0  0  0  0  0  0  0
    0.7553    1.6114    1.8027 N   0  0  0  0  0  0  0  0  0  0  0  0
    1.5083    1.0102    2.1245 H   0  0  0  0  0  0  0  0  0  0  0  0
    0.6833    2.9810    2.2969 C   0  0  0  0  0  0  0  0  0  0  0  0
   -0.2363    3.1335    2.8717 H   0  0  0  0  0  0  0  0  0  0  0  0
    1.5370    3.1941    2.9474 H   0  0  0  0  0  0  0  0  0  0  0  0
    0.6990    3.6903    1.4626 H   0  0  0  0  0  0  0  0  0  0  0  0
  1  2  1  0  0  0  0
  2  3  1  0  0  0  0
  2  4  1  0  0  0  0
  2  5  1  0  0  0  0
  5  6  2  0  0  0  0
  5  7  1  0  0  0  0
  7  8  1  0  0  0  0
  7  9  1  0  0  0  0
  9 10  1  0  0  0  0
  9 11  1  0  0  0  0
  9 24  1  0  0  0  0
 11 12  1  0  0  0  0
 11 13  1  0  0  0  0
 11 17  1  0  0  0  0
 13 14  1  0  0  0  0
 13 15  1  0  0  0  0
 13 16  1  0  0  0  0
 17 18  1  0  0  0  0
 17 19  1  0  0  0  0
 17 20  1  0  0  0  0
 20 21  1  0  0  0  0
 20 22  1  0  0  0  0
 20 23  1  0  0  0  0
 24 25  2  0  0  0  0
 24 26  1  0  0  0  0
 26 27  1  0  0  0  0
 26 28  1  0  0  0  0
 28 29  1  0  0  0  0
 28 30  1  0  0  0  0
 28 31  1  0  0  0  0
M  END
$$$$

  -OEChem-03222214053D

 31 30  0     1  0  0  0  0  0999 V2000
   -3.0680   -3.8631    1.6688 H   0  0  0  0  0  0  0  0  0  0  0  0
   -3.0475   -2.8701    1.2112 C   0  0  0  0  0  0  0  0  0  0  0  0
   -3.7421   -2.2194    1.7479 H   0  0  0  0  0  0  0  0  0  0  0  0
   -3.3692   -2.9561    0.1706 H   0  0  0  0  0  0  0  0  0  0  0  0
   -1.6454   -2.2946    1.2742 C   0  0  0  0  0  0  0  0  0  0  0  0
   -0.7756   -2.8778    1.9027 O   0  0  0  0  0  0  0  0  0  0  0  0
   -1.3841   -1.0708    0.6949 N   0  0  0  0  0  0  0  0  0  0  0  0
   -2.1755   -0.5675    0.2986 H   0  0  0  0  0  0  0  0  0  0  0  0
   -0.0645   -0.4287    0.5606 C   0  0  1  0  0  0  0  0  0  0  0  0
    0.6444   -0.9199    1.2350 H   0  0  0  0  0  0  0  0  0  0  0  0
    0.4973   -0.4553   -0.9011 C   0  0  1  0  0  0  0  0  0  0  0  0
    0.1146    0.4336   -1.4160 H   0  0  0  0  0  0  0  0  0  0  0  0
    2.0301   -0.3311   -0.8520 C   0  0  0  0  0  0  0  0  0  0  0  0
    2.4727   -1.1650   -0.2984 H   0  0  0  0  0  0  0  0  0  0  0  0
    2.4463   -0.3273   -1.8643 H   0  0  0  0  0  0  0  0  0  0  0  0
    2.3257    0.6022   -0.3635 H   0  0  0  0  0  0  0  0  0  0  0  0
    0.1060   -1.6351   -1.8266 C   0  0  0  0  0  0  0  0  0  0  0  0
   -0.9814   -1.6254   -1.9520 H   0  0  0  0  0  0  0  0  0  0  0  0
    0.5405   -1.4667   -2.8174 H   0  0  0  0  0  0  0  0  0  0  0  0
    0.5171   -3.0338   -1.3522 C   0  0  0  0  0  0  0  0  0  0  0  0
    0.1440   -3.2613   -0.3592 H   0  0  0  0  0  0  0  0  0  0  0  0
    0.1239   -3.7861   -2.0424 H   0  0  0  0  0  0  0  0  0  0  0  0
    1.6068   -3.1255   -1.3349 H   0  0  0  0  0  0  0  0  0  0  0  0
   -0.1935    1.0556    0.9696 C   0  0  0  0  0  0  0  0  0  0  0  0
   -1.1535    1.7195    0.5919 O   0  0  0  0  0  0  0  0  0  0  0  0
    0.7491    1.6397    1.7957 N   0  0  0  0  0  0  0  0  0  0  0  0
    1.4979    1.0487    2.1451 H   0  0  0  0  0  0  0  0  0  0  0  0
    0.6633    3.0197    2.2572 C   0  0  0  0  0  0  0  0  0  0  0  0
   -0.2615    3.1782    2.8220 H   0  0  0  0  0  0  0  0  0  0  0  0
    1.5108    3.2540    2.9084 H   0  0  0  0  0  0  0  0  0  0  0  0
    0.6797    3.7096    1.4069 H   0  0  0  0  0  0  0  0  0  0  0  0
  1  2  1  0  0  0  0
  2  3  1  0  0  0  0
  2  4  1  0  0  0  0
  2  5  1  0  0  0  0
  5  6  2  0  0  0  0
  5  7  1  0  0  0  0
  7  8  1  0  0  0  0
  7  9  1  0  0  0  0
  9 10  1  0  0  0  0
  9 11  1  0  0  0  0
  9 24  1  0  0  0  0
 11 12  1  0  0  0  0
 11 13  1  0  0  0  0
 11 17  1  0  0  0  0
 13 14  1  0  0  0  0
 13 15  1  0  0  0  0
 13 16  1  0  0  0  0
 17 18  1  0  0  0  0
 17 19  1  0  0  0  0
 17 20  1  0  0  0  0
 20 21  1  0  0  0  0
 20 22  1  0  0  0  0
 20 23  1  0  0  0  0
 24 25  2  0  0  0  0
 24 26  1  0  0  0  0
 26 27  1  0  0  0  0
 26 28  1  0  0  0  0
 28 29  1  0  0  0  0
 28 30  1  0  0  0  0
 28 31  1  0  0  0  0
M  END
$$$$

  -OEChem-03222214053D

 31 30  0     1  0  0  0  0  0999 V2000
   -3.0283   -3.8474    1.8191 H   0  0  0  0  0  0  0  0  0  0  0  0
   -3.0267   -2.8610    1.3471 C   0  0  0  0  0  0  0  0  0  0  0  0
   -3.6564   -2.1880    1.9339 H   0  0  0  0  0  0  0  0  0  0  0  0
   -3.4406   -2.9519    0.3401 H   0  0  0  0  0  0  0  0  0  0  0  0
   -1.6124   -2.3169    1.2773 C   0  0  0  0  0  0  0  0  0  0  0  0
   -0.6910   -2.9521    1.7664 O   0  0  0  0  0  0  0  0  0  0  0  0
   -1.3840   -1.0815    0.7077 N   0  0  0  0  0  0  0  0  0  0  0  0
   -2.1976   -0.5430    0.4155 H   0  0  0  0  0  0  0  0  0  0  0  0
   -0.0715   -0.4334    0.5491 C   0  0  1  0  0  0  0  0  0  0  0  0
    0.6507   -0.9268    1.2072 H   0  0  0  0  0  0  0  0  0  0  0  0
    0.4797   -0.4324   -0.9166 C   0  0  1  0  0  0  0  0  0  0  0  0
    0.1088    0.4734   -1.4103 H   0  0  0  0  0  0  0  0  0  0  0  0
    2.0151   -0.3262   -0.8599 C   0  0  0  0  0  0  0  0  0  0  0  0
    2.4491   -1.2120   -0.3857 H   0  0  0  0  0  0  0  0  0  0  0  0
    2.4316   -0.2347   -1.8680 H   0  0  0  0  0  0  0  0  0  0  0  0
    2.3227    0.5568   -0.2922 H   0  0  0  0  0  0  0  0  0  0  0  0
    0.1027   -1.5897   -1.8800 C   0  0  0  0  0  0  0  0  0  0  0  0
   -0.9234   -1.4305   -2.2266 H   0  0  0  0  0  0  0  0  0  0  0  0
    0.7443   -1.5271   -2.7650 H   0  0  0  0  0  0  0  0  0  0  0  0
    0.1909   -3.0142   -1.3260 C   0  0  0  0  0  0  0  0  0  0  0  0
    0.4670   -3.7040   -2.1290 H   0  0  0  0  0  0  0  0  0  0  0  0
   -0.7740   -3.3422   -0.9372 H   0  0  0  0  0  0  0  0  0  0  0  0
    0.9450   -3.0881   -0.5371 H   0  0  0  0  0  0  0  0  0  0  0  0
   -0.2062    1.0424    0.9861 C   0  0  0  0  0  0  0  0  0  0  0  0
   -1.1888    1.6967    0.6524 O   0  0  0  0  0  0  0  0  0  0  0  0
    0.7486    1.6249    1.7992 N   0  0  0  0  0  0  0  0  0  0  0  0
    1.5156    1.0396    2.1175 H   0  0  0  0  0  0  0  0  0  0  0  0
    0.6526    2.9934    2.2914 C   0  0  0  0  0  0  0  0  0  0  0  0
   -0.2540    3.1216    2.8919 H   0  0  0  0  0  0  0  0  0  0  0  0
    1.5184    3.2325    2.9163 H   0  0  0  0  0  0  0  0  0  0  0  0
    0.6248    3.6999    1.4551 H   0  0  0  0  0  0  0  0  0  0  0  0
  1  2  1  0  0  0  0
  2  3  1  0  0  0  0
  2  4  1  0  0  0  0
  2  5  1  0  0  0  0
  5  6  2  0  0  0  0
  5  7  1  0  0  0  0
  7  8  1  0  0  0  0
  7  9  1  0  0  0  0
  9 10  1  0  0  0  0
  9 11  1  0  0  0  0
  9 24  1  0  0  0  0
 11 12  1  0  0  0  0
 11 13  1  0  0  0  0
 11 17  1  0  0  0  0
 13 14  1  0  0  0  0
 13 15  1  0  0  0  0
 13 16  1  0  0  0  0
 17 18  1  0  0  0  0
 17 19  1  0  0  0  0
 17 20  1  0  0  0  0
 20 21  1  0  0  0  0
 20 22  1  0  0  0  0
 20 23  1  0  0  0  0
 24 25  2  0  0  0  0
 24 26  1  0  0  0  0
 26 27  1  0  0  0  0
 26 28  1  0  0  0  0
 28 29  1  0  0  0  0
 28 30  1  0  0  0  0
 28 31  1  0  0  0  0
M  END
$$$$

  -OEChem-03222214053D

 31 30  0     1  0  0  0  0  0999 V2000
   -3.0646   -3.7994    1.9158 H   0  0  0  0  0  0  0  0  0  0  0  0
   -3.0589   -2.8135    1.4425 C   0  0  0  0  0  0  0  0  0  0  0  0
   -3.6619   -2.1294    2.0443 H   0  0  0  0  0  0  0  0  0  0  0  0
   -3.5010   -2.8987    0.4470 H   0  0  0  0  0  0  0  0  0  0  0  0
   -1.6380   -2.2927    1.3352 C   0  0  0  0  0  0  0  0  0  0  0  0
   -0.7186   -2.9291    1.8263 O   0  0  0  0  0  0  0  0  0  0  0  0
   -1.4020   -1.0731    0.7338 N   0  0  0  0  0  0  0  0  0  0  0  0
   -2.2132   -0.5289    0.4448 H   0  0  0  0  0  0  0  0  0  0  0  0
   -0.0852   -0.4384    0.5566 C   0  0  1  0  0  0  0  0  0  0  0  0
    0.6297   -0.9177    1.2332 H   0  0  0  0  0  0  0  0  0  0  0  0
    0.4947   -0.4543   -0.9040 C   0  0  1  0  0  0  0  0  0  0  0  0
    0.1533    0.4594   -1.4045 H   0  0  0  0  0  0  0  0  0  0  0  0
    2.0294   -0.3682   -0.7925 C   0  0  0  0  0  0  0  0  0  0  0  0
    2.4339   -1.2859   -0.3534 H   0  0  0  0  0  0  0  0  0  0  0  0
    2.4812   -0.2273   -1.7795 H   0  0  0  0  0  0  0  0  0  0  0  0
    2.3311    0.4781   -0.1691 H   0  0  0  0  0  0  0  0  0  0  0  0
    0.1632   -1.5999   -1.9071 C   0  0  0  0  0  0  0  0  0  0  0  0
   -0.7274   -1.3023   -2.4702 H   0  0  0  0  0  0  0  0  0  0  0  0
    0.9752   -1.6803   -2.6370 H   0  0  0  0  0  0  0  0  0  0  0  0
   -0.1084   -2.9979   -1.3561 C   0  0  0  0  0  0  0  0  0  0  0  0
    0.0756   -3.7422   -2.1368 H   0  0  0  0  0  0  0  0  0  0  0  0
   -1.1507   -3.1019   -1.0522 H   0  0  0  0  0  0  0  0  0  0  0  0
    0.5525   -3.2191   -0.5128 H   0  0  0  0  0  0  0  0  0  0  0  0
   -0.2281    1.0470    0.9618 C   0  0  0  0  0  0  0  0  0  0  0  0
   -1.2155    1.6887    0.6175 O   0  0  0  0  0  0  0  0  0  0  0  0
    0.7230    1.6515    1.7634 N   0  0  0  0  0  0  0  0  0  0  0  0
    1.4906    1.0753    2.0958 H   0  0  0  0  0  0  0  0  0  0  0  0
    0.6122    3.0242    2.2411 C   0  0  0  0  0  0  0  0  0  0  0  0
   -0.2920    3.1478    2.8465 H   0  0  0  0  0  0  0  0  0  0  0  0
    1.4791    3.2809    2.8578 H   0  0  0  0  0  0  0  0  0  0  0  0
    0.5698    3.7208    1.3973 H   0  0  0  0  0  0  0  0  0  0  0  0
  1  2  1  0  0  0  0
  2  3  1  0  0  0  0
  2  4  1  0  0  0  0
  2  5  1  0  0  0  0
  5  6  2  0  0  0  0
  5  7  1  0  0  0  0
  7  8  1  0  0  0  0
  7  9  1  0  0  0  0
  9 10  1  0  0  0  0
  9 11  1  0  0  0  0
  9 24  1  0  0  0  0
 11 12  1  0  0  0  0
 11 13  1  0  0  0  0
 11 17  1  0  0  0  0
 13 14  1  0  0  0  0
 13 15  1  0  0  0  0
 13 16  1  0  0  0  0
 17 18  1  0  0  0  0
 17 19  1  0  0  0  0
 17 20  1  0  0  0  0
 20 21  1  0  0  0  0
 20 22  1  0  0  0  0
 20 23  1  0  0  0  0
 24 25  2  0  0  0  0
 24 26  1  0  0  0  0
 26 27  1  0  0  0  0
 26 28  1  0  0  0  0
 28 29  1  0  0  0  0
 28 30  1  0  0  0  0
 28 31  1  0  0  0  0
M  END
$$$$

  -OEChem-03222214053D

 31 30  0     1  0  0  0  0  0999 V2000
   -3.1083   -3.7593    1.9724 H   0  0  0  0  0  0  0  0  0  0  0  0
   -3.0945   -2.7686    1.5094 C   0  0  0  0  0  0  0  0  0  0  0  0
   -3.6684   -2.0792    2.1335 H   0  0  0  0  0  0  0  0  0  0  0  0
   -3.5633   -2.8342    0.5247 H   0  0  0  0  0  0  0  0  0  0  0  0
   -1.6665   -2.2749    1.3724 C   0  0  0  0  0  0  0  0  0  0  0  0
   -0.7502   -2.9231    1.8541 O   0  0  0  0  0  0  0  0  0  0  0  0
   -1.4198   -1.0613    0.7620 N   0  0  0  0  0  0  0  0  0  0  0  0
   -2.2253   -0.5043    0.4809 H   0  0  0  0  0  0  0  0  0  0  0  0
   -0.0950   -0.4497    0.5691 C   0  0  1  0  0  0  0  0  0  0  0  0
    0.6154   -0.9337    1.2472 H   0  0  0  0  0  0  0  0  0  0  0  0
    0.4950   -0.4727   -0.8905 C   0  0  1  0  0  0  0  0  0  0  0  0
    0.1574    0.4469   -1.3826 H   0  0  0  0  0  0  0  0  0  0  0  0
    2.0291   -0.3810   -0.7690 C   0  0  0  0  0  0  0  0  0  0  0  0
    2.4349   -1.3032   -0.3399 H   0  0  0  0  0  0  0  0  0  0  0  0
    2.4842   -0.2250   -1.7524 H   0  0  0  0  0  0  0  0  0  0  0  0
    2.3262    0.4580   -0.1340 H   0  0  0  0  0  0  0  0  0  0  0  0
    0.1746   -1.6005   -1.9261 C   0  0  0  0  0  0  0  0  0  0  0  0
   -0.5110   -1.1761   -2.6671 H   0  0  0  0  0  0  0  0  0  0  0  0
    1.0882   -1.8607   -2.4704 H   0  0  0  0  0  0  0  0  0  0  0  0
   -0.4500   -2.9101   -1.4579 C   0  0  0  0  0  0  0  0  0  0  0  0
   -1.5034   -2.7737   -1.2071 H   0  0  0  0  0  0  0  0  0  0  0  0
   -0.4009   -3.6479   -2.2644 H   0  0  0  0  0  0  0  0  0  0  0  0
    0.0965   -3.3114   -0.6004 H   0  0  0  0  0  0  0  0  0  0  0  0
   -0.2244    1.0384    0.9718 C   0  0  0  0  0  0  0  0  0  0  0  0
   -1.2083    1.6872    0.6300 O   0  0  0  0  0  0  0  0  0  0  0  0
    0.7352    1.6406    1.7650 N   0  0  0  0  0  0  0  0  0  0  0  0
    1.5032    1.0626    2.0935 H   0  0  0  0  0  0  0  0  0  0  0  0
    0.6418    3.0201    2.2264 C   0  0  0  0  0  0  0  0  0  0  0  0
   -0.2557    3.1602    2.8382 H   0  0  0  0  0  0  0  0  0  0  0  0
    1.5166    3.2762    2.8315 H   0  0  0  0  0  0  0  0  0  0  0  0
    0.5984    3.7068    1.3743 H   0  0  0  0  0  0  0  0  0  0  0  0
  1  2  1  0  0  0  0
  2  3  1  0  0  0  0
  2  4  1  0  0  0  0
  2  5  1  0  0  0  0
  5  6  2  0  0  0  0
  5  7  1  0  0  0  0
  7  8  1  0  0  0  0
  7  9  1  0  0  0  0
  9 10  1  0  0  0  0
  9 11  1  0  0  0  0
  9 24  1  0  0  0  0
 11 12  1  0  0  0  0
 11 13  1  0  0  0  0
 11 17  1  0  0  0  0
 13 14  1  0  0  0  0
 13 15  1  0  0  0  0
 13 16  1  0  0  0  0
 17 18  1  0  0  0  0
 17 19  1  0  0  0  0
 17 20  1  0  0  0  0
 20 21  1  0  0  0  0
 20 22  1  0  0  0  0
 20 23  1  0  0  0  0
 24 25  2  0  0  0  0
 24 26  1  0  0  0  0
 26 27  1  0  0  0  0
 26 28  1  0  0  0  0
 28 29  1  0  0  0  0
 28 30  1  0  0  0  0
 28 31  1  0  0  0  0
M  END
$$$$

  -OEChem-03222214053D

 31 30  0     1  0  0  0  0  0999 V2000
   -3.1294   -3.7704    1.9503 H   0  0  0  0  0  0  0  0  0  0  0  0
   -3.1137   -2.7849    1.4769 C   0  0  0  0  0  0  0  0  0  0  0  0
   -3.6887   -2.0888    2.0922 H   0  0  0  0  0  0  0  0  0  0  0  0
   -3.5797   -2.8602    0.4917 H   0  0  0  0  0  0  0  0  0  0  0  0
   -1.6852   -2.2936    1.3386 C   0  0  0  0  0  0  0  0  0  0  0  0
   -0.7659   -2.9611    1.7872 O   0  0  0  0  0  0  0  0  0  0  0  0
   -1.4386   -1.0660    0.7572 N   0  0  0  0  0  0  0  0  0  0  0  0
   -2.2437   -0.4951    0.5039 H   0  0  0  0  0  0  0  0  0  0  0  0
   -0.1126   -0.4556    0.5742 C   0  0  1  0  0  0  0  0  0  0  0  0
    0.5936   -0.9554    1.2450 H   0  0  0  0  0  0  0  0  0  0  0  0
    0.4930   -0.4593   -0.8799 C   0  0  1  0  0  0  0  0  0  0  0  0
    0.1280    0.4594   -1.3539 H   0  0  0  0  0  0  0  0  0  0  0  0
    2.0236   -0.3250   -0.7627 C   0  0  0  0  0  0  0  0  0  0  0  0
    2.4532   -1.2256   -0.3116 H   0  0  0  0  0  0  0  0  0  0  0  0
    2.4723   -0.1828   -1.7512 H   0  0  0  0  0  0  0  0  0  0  0  0
    2.2993    0.5366   -0.1488 H   0  0  0  0  0  0  0  0  0  0  0  0
    0.1942   -1.5653   -1.9493 C   0  0  0  0  0  0  0  0  0  0  0  0
   -0.2244   -1.0628   -2.8275 H   0  0  0  0  0  0  0  0  0  0  0  0
    1.1403   -2.0119   -2.2728 H   0  0  0  0  0  0  0  0  0  0  0  0
   -0.7291   -2.7348   -1.6266 C   0  0  0  0  0  0  0  0  0  0  0  0
   -1.7458   -2.3886   -1.4265 H   0  0  0  0  0  0  0  0  0  0  0  0
   -0.3444   -3.3025   -0.7762 H   0  0  0  0  0  0  0  0  0  0  0  0
   -0.7749   -3.4117   -2.4850 H   0  0  0  0  0  0  0  0  0  0  0  0
   -0.2354    1.0227    1.0134 C   0  0  0  0  0  0  0  0  0  0  0  0
   -1.2195    1.6819    0.6929 O   0  0  0  0  0  0  0  0  0  0  0  0
    0.7286    1.6027    1.8177 N   0  0  0  0  0  0  0  0  0  0  0  0
    1.4979    1.0155    2.1267 H   0  0  0  0  0  0  0  0  0  0  0  0
    0.6367    2.9687    2.3186 C   0  0  0  0  0  0  0  0  0  0  0  0
   -0.2649    3.0937    2.9274 H   0  0  0  0  0  0  0  0  0  0  0  0
    1.5076    3.2039    2.9379 H   0  0  0  0  0  0  0  0  0  0  0  0
    0.6021    3.6799    1.4866 H   0  0  0  0  0  0  0  0  0  0  0  0
  1  2  1  0  0  0  0
  2  3  1  0  0  0  0
  2  4  1  0  0  0  0
  2  5  1  0  0  0  0
  5  6  2  0  0  0  0
  5  7  1  0  0  0  0
  7  8  1  0  0  0  0
  7  9  1  0  0  0  0
  9 10  1  0  0  0  0
  9 11  1  0  0  0  0
  9 24  1  0  0  0  0
 11 12  1  0  0  0  0
 11 13  1  0  0  0  0
 11 17  1  0  0  0  0
 13 14  1  0  0  0  0
 13 15  1  0  0  0  0
 13 16  1  0  0  0  0
 17 18  1  0  0  0  0
 17 19  1  0  0  0  0
 17 20  1  0  0  0  0
 20 21  1  0  0  0  0
 20 22  1  0  0  0  0
 20 23  1  0  0  0  0
 24 25  2  0  0  0  0
 24 26  1  0  0  0  0
 26 27  1  0  0  0  0
 26 28  1  0  0  0  0
 28 29  1  0  0  0  0
 28 30  1  0  0  0  0
 28 31  1  0  0  0  0
M  END
$$$$

  -OEChem-03222214053D

 31 30  0     1  0  0  0  0  0999 V2000
   -3.1069   -3.7505    2.0310 H   0  0  0  0  0  0  0  0  0  0  0  0
   -3.1040   -2.7676    1.5517 C   0  0  0  0  0  0  0  0  0  0  0  0
   -3.6597   -2.0672    2.1798 H   0  0  0  0  0  0  0  0  0  0  0  0
   -3.5986   -2.8475    0.5808 H   0  0  0  0  0  0  0  0  0  0  0  0
   -1.6795   -2.2797    1.3683 C   0  0  0  0  0  0  0  0  0  0  0  0
   -0.7469   -2.9542    1.7772 O   0  0  0  0  0  0  0  0  0  0  0  0
   -1.4480   -1.0576    0.7703 N   0  0  0  0  0  0  0  0  0  0  0  0
   -2.2587   -0.4838    0.5427 H   0  0  0  0  0  0  0  0  0  0  0  0
   -0.1271   -0.4462    0.5614 C   0  0  1  0  0  0  0  0  0  0  0  0
    0.5857   -0.9341    1.2338 H   0  0  0  0  0  0  0  0  0  0  0  0
    0.4708   -0.4836   -0.8938 C   0  0  1  0  0  0  0  0  0  0  0  0
    0.0732    0.4126   -1.3842 H   0  0  0  0  0  0  0  0  0  0  0  0
    1.9988   -0.3142   -0.8123 C   0  0  0  0  0  0  0  0  0  0  0  0
    2.4529   -1.1730   -0.3072 H   0  0  0  0  0  0  0  0  0  0  0  0
    2.4281   -0.2351   -1.8164 H   0  0  0  0  0  0  0  0  0  0  0  0
    2.2661    0.5935   -0.2647 H   0  0  0  0  0  0  0  0  0  0  0  0
    0.1753   -1.6144   -1.9343 C   0  0  0  0  0  0  0  0  0  0  0  0
    0.0283   -1.1309   -2.9059 H   0  0  0  0  0  0  0  0  0  0  0  0
    1.0685   -2.2410   -2.0293 H   0  0  0  0  0  0  0  0  0  0  0  0
   -0.9830   -2.5857   -1.7292 C   0  0  0  0  0  0  0  0  0  0  0  0
   -1.9239   -2.0494   -1.5797 H   0  0  0  0  0  0  0  0  0  0  0  0
   -1.0939   -3.2141   -2.6181 H   0  0  0  0  0  0  0  0  0  0  0  0
   -0.7838   -3.2476   -0.8845 H   0  0  0  0  0  0  0  0  0  0  0  0
   -0.2407    1.0370    0.9843 C   0  0  0  0  0  0  0  0  0  0  0  0
   -1.2308    1.6922    0.6750 O   0  0  0  0  0  0  0  0  0  0  0  0
    0.7371    1.6245    1.7662 N   0  0  0  0  0  0  0  0  0  0  0  0
    1.5123    1.0404    2.0662 H   0  0  0  0  0  0  0  0  0  0  0  0
    0.6569    2.9963    2.2526 C   0  0  0  0  0  0  0  0  0  0  0  0
   -0.2267    3.1275    2.8860 H   0  0  0  0  0  0  0  0  0  0  0  0
    1.5452    3.2406    2.8430 H   0  0  0  0  0  0  0  0  0  0  0  0
    0.5965    3.6972    1.4134 H   0  0  0  0  0  0  0  0  0  0  0  0
  1  2  1  0  0  0  0
  2  3  1  0  0  0  0
  2  4  1  0  0  0  0
  2  5  1  0  0  0  0
  5  6  2  0  0  0  0
  5  7  1  0  0  0  0
  7  8  1  0  0  0  0
  7  9  1  0  0  0  0
  9 10  1  0  0  0  0
  9 11  1  0  0  0  0
  9 24  1  0  0  0  0
 11 12  1  0  0  0  0
 11 13  1  0  0  0  0
 11 17  1  0  0  0  0
 13 14  1  0  0  0  0
 13 15  1  0  0  0  0
 13 16  1  0  0  0  0
 17 18  1  0  0  0  0
 17 19  1  0  0  0  0
 17 20  1  0  0  0  0
 20 21  1  0  0  0  0
 20 22  1  0  0  0  0
 20 23  1  0  0  0  0
 24 25  2  0  0  0  0
 24 26  1  0  0  0  0
 26 27  1  0  0  0  0
 26 28  1  0  0  0  0
 28 29  1  0  0  0  0
 28 30  1  0  0  0  0
 28 31  1  0  0  0  0
M  END
$$$$

  -OEChem-03222214053D

 31 30  0     1  0  0  0  0  0999 V2000
   -3.1120   -3.7642    1.9764 H   0  0  0  0  0  0  0  0  0  0  0  0
   -3.1117   -2.7744    1.5115 C   0  0  0  0  0  0  0  0  0  0  0  0
   -3.6505   -2.0801    2.1607 H   0  0  0  0  0  0  0  0  0  0  0  0
   -3.6256   -2.8366    0.5493 H   0  0  0  0  0  0  0  0  0  0  0  0
   -1.6876   -2.2936    1.3072 C   0  0  0  0  0  0  0  0  0  0  0  0
   -0.7512   -2.9939    1.6599 O   0  0  0  0  0  0  0  0  0  0  0  0
   -1.4594   -1.0576    0.7373 N   0  0  0  0  0  0  0  0  0  0  0  0
   -2.2691   -0.4685    0.5486 H   0  0  0  0  0  0  0  0  0  0  0  0
   -0.1370   -0.4458    0.5440 C   0  0  1  0  0  0  0  0  0  0  0  0
    0.5702   -0.9503    1.2099 H   0  0  0  0  0  0  0  0  0  0  0  0
    0.4658   -0.4689   -0.9067 C   0  0  1  0  0  0  0  0  0  0  0  0
    0.0756    0.4333   -1.3919 H   0  0  0  0  0  0  0  0  0  0  0  0
    1.9955   -0.3225   -0.8248 C   0  0  0  0  0  0  0  0  0  0  0  0
    2.4376   -1.1878   -0.3200 H   0  0  0  0  0  0  0  0  0  0  0  0
    2.4259   -0.2505   -1.8290 H   0  0  0  0  0  0  0  0  0  0  0  0
    2.2751    0.5812   -0.2763 H   0  0  0  0  0  0  0  0  0  0  0  0
    0.1602   -1.5943   -1.9436 C   0  0  0  0  0  0  0  0  0  0  0  0
    0.2742   -1.1541   -2.9398 H   0  0  0  0  0  0  0  0  0  0  0  0
    0.9270   -2.3707   -1.8490 H   0  0  0  0  0  0  0  0  0  0  0  0
   -1.1839   -2.3204   -1.9131 C   0  0  0  0  0  0  0  0  0  0  0  0
   -2.0089   -1.6115   -1.7976 H   0  0  0  0  0  0  0  0  0  0  0  0
   -1.2084   -3.0595   -1.1111 H   0  0  0  0  0  0  0  0  0  0  0  0
   -1.3293   -2.8588   -2.8545 H   0  0  0  0  0  0  0  0  0  0  0  0
   -0.2375    1.0286    0.9979 C   0  0  0  0  0  0  0  0  0  0  0  0
   -1.2250    1.6963    0.7079 O   0  0  0  0  0  0  0  0  0  0  0  0
    0.7455    1.5912    1.7912 N   0  0  0  0  0  0  0  0  0  0  0  0
    1.5239    0.9995    2.0666 H   0  0  0  0  0  0  0  0  0  0  0  0
    0.6800    2.9556    2.2995 C   0  0  0  0  0  0  0  0  0  0  0  0
   -0.2129    3.0916    2.9189 H   0  0  0  0  0  0  0  0  0  0  0  0
    1.5608    3.1748    2.9105 H   0  0  0  0  0  0  0  0  0  0  0  0
    0.6472    3.6711    1.4712 H   0  0  0  0  0  0  0  0  0  0  0  0
  1  2  1  0  0  0  0
  2  3  1  0  0  0  0
  2  4  1  0  0  0  0
  2  5  1  0  0  0  0
  5  6  2  0  0  0  0
  5  7  1  0  0  0  0
  7  8  1  0  0  0  0
  7  9  1  0  0  0  0
  9 10  1  0  0  0  0
  9 11  1  0  0  0  0
  9 24  1  0  0  0  0
 11 12  1  0  0  0  0
 11 13  1  0  0  0  0
 11 17  1  0  0  0  0
 13 14  1  0  0  0  0
 13 15  1  0  0  0  0
 13 16  1  0  0  0  0
 17 18  1  0  0  0  0
 17 19  1  0  0  0  0
 17 20  1  0  0  0  0
 20 21  1  0  0  0  0
 20 22  1  0  0  0  0
 20 23  1  0  0  0  0
 24 25  2  0  0  0  0
 24 26  1  0  0  0  0
 26 27  1  0  0  0  0
 26 28  1  0  0  0  0
 28 29  1  0  0  0  0
 28 30  1  0  0  0  0
 28 31  1  0  0  0  0
M  END
$$$$

  -OEChem-03222214053D

 31 30  0     1  0  0  0  0  0999 V2000
   -3.0110   -3.8285    1.9594 H   0  0  0  0  0  0  0  0  0  0  0  0
   -3.0405   -2.8221    1.5325 C   0  0  0  0  0  0  0  0  0  0  0  0
   -3.5476   -2.1561    2.2348 H   0  0  0  0  0  0  0  0  0  0  0  0
   -3.6052   -2.8530    0.5977 H   0  0  0  0  0  0  0  0  0  0  0  0
   -1.6317   -2.3237    1.2708 C   0  0  0  0  0  0  0  0  0  0  0  0
   -0.6744   -3.0263    1.5559 O   0  0  0  0  0  0  0  0  0  0  0  0
   -1.4411   -1.0721    0.7212 N   0  0  0  0  0  0  0  0  0  0  0  0
   -2.2633   -0.4861    0.5835 H   0  0  0  0  0  0  0  0  0  0  0  0
   -0.1330   -0.4371    0.5111 C   0  0  1  0  0  0  0  0  0  0  0  0
    0.5947   -0.9432    1.1536 H   0  0  0  0  0  0  0  0  0  0  0  0
    0.4308   -0.4454   -0.9518 C   0  0  1  0  0  0  0  0  0  0  0  0
    0.0338    0.4570   -1.4306 H   0  0  0  0  0  0  0  0  0  0  0  0
    1.9629   -0.3149   -0.9080 C   0  0  0  0  0  0  0  0  0  0  0  0
    2.4096   -1.1905   -0.4256 H   0  0  0  0  0  0  0  0  0  0  0  0
    2.3688   -0.2340   -1.9213 H   0  0  0  0  0  0  0  0  0  0  0  0
    2.2639    0.5795   -0.3553 H   0  0  0  0  0  0  0  0  0  0  0  0
    0.0893   -1.5878   -1.9515 C   0  0  0  0  0  0  0  0  0  0  0  0
    0.3991   -1.2535   -2.9473 H   0  0  0  0  0  0  0  0  0  0  0  0
    0.6945   -2.4658   -1.7017 H   0  0  0  0  0  0  0  0  0  0  0  0
   -1.3641   -2.0563   -2.0563 C   0  0  0  0  0  0  0  0  0  0  0  0
   -2.0518   -1.2084   -1.9814 H   0  0  0  0  0  0  0  0  0  0  0  0
   -1.5992   -2.7913   -1.2857 H   0  0  0  0  0  0  0  0  0  0  0  0
   -1.5230   -2.5414   -3.0241 H   0  0  0  0  0  0  0  0  0  0  0  0
   -0.2312    1.0277    0.9929 C   0  0  0  0  0  0  0  0  0  0  0  0
   -1.2309    1.6919    0.7403 O   0  0  0  0  0  0  0  0  0  0  0  0
    0.7677    1.5835    1.7713 N   0  0  0  0  0  0  0  0  0  0  0  0
    1.5577    0.9933    2.0152 H   0  0  0  0  0  0  0  0  0  0  0  0
    0.7134    2.9432    2.2941 C   0  0  0  0  0  0  0  0  0  0  0  0
   -0.1699    3.0762    2.9276 H   0  0  0  0  0  0  0  0  0  0  0  0
    1.6036    3.1532    2.8948 H   0  0  0  0  0  0  0  0  0  0  0  0
    0.6715    3.6672    1.4736 H   0  0  0  0  0  0  0  0  0  0  0  0
  1  2  1  0  0  0  0
  2  3  1  0  0  0  0
  2  4  1  0  0  0  0
  2  5  1  0  0  0  0
  5  6  2  0  0  0  0
  5  7  1  0  0  0  0
  7  8  1  0  0  0  0
  7  9  1  0  0  0  0
  9 10  1  0  0  0  0
  9 11  1  0  0  0  0
  9 24  1  0  0  0  0
 11 12  1  0  0  0  0
 11 13  1  0  0  0  0
 11 17  1  0  0  0  0
 13 14  1  0  0  0  0
 13 15  1  0  0  0  0
 13 16  1  0  0  0  0
 17 18  1  0  0  0  0
 17 19  1  0  0  0  0
 17 20  1  0  0  0  0
 20 21  1  0  0  0  0
 20 22  1  0  0  0  0
 20 23  1  0  0  0  0
 24 25  2  0  0  0  0
 24 26  1  0  0  0  0
 26 27  1  0  0  0  0
 26 28  1  0  0  0  0
 28 29  1  0  0  0  0
 28 30  1  0  0  0  0
 28 31  1  0  0  0  0
M  END
$$$$

  -OEChem-03222214053D

 31 30  0     1  0  0  0  0  0999 V2000
   -3.0208   -3.7984    1.9163 H   0  0  0  0  0  0  0  0  0  0  0  0
   -3.0459   -2.8114    1.4459 C   0  0  0  0  0  0  0  0  0  0  0  0
   -3.5800   -2.1213    2.1034 H   0  0  0  0  0  0  0  0  0  0  0  0
   -3.5816   -2.8875    0.4967 H   0  0  0  0  0  0  0  0  0  0  0  0
   -1.6342   -2.3098    1.2062 C   0  0  0  0  0  0  0  0  0  0  0  0
   -0.6799   -3.0096    1.5076 O   0  0  0  0  0  0  0  0  0  0  0  0
   -1.4375   -1.0580    0.6595 N   0  0  0  0  0  0  0  0  0  0  0  0
   -2.2590   -0.4764    0.5023 H   0  0  0  0  0  0  0  0  0  0  0  0
   -0.1284   -0.4167    0.4824 C   0  0  1  0  0  0  0  0  0  0  0  0
    0.5844   -0.9178    1.1451 H   0  0  0  0  0  0  0  0  0  0  0  0
    0.4544   -0.4549   -0.9682 C   0  0  1  0  0  0  0  0  0  0  0  0
    0.0884    0.4407   -1.4835 H   0  0  0  0  0  0  0  0  0  0  0  0
    1.9878   -0.3627   -0.8979 C   0  0  0  0  0  0  0  0  0  0  0  0
    2.4037   -1.2470   -0.4040 H   0  0  0  0  0  0  0  0  0  0  0  0
    2.4143   -0.2965   -1.9038 H   0  0  0  0  0  0  0  0  0  0  0  0
    2.3001    0.5266   -0.3431 H   0  0  0  0  0  0  0  0  0  0  0  0
    0.0958   -1.6431   -1.9013 C   0  0  0  0  0  0  0  0  0  0  0  0
    0.6102   -1.4861   -2.8550 H   0  0  0  0  0  0  0  0  0  0  0  0
    0.4854   -2.5710   -1.4692 H   0  0  0  0  0  0  0  0  0  0  0  0
   -1.3915   -1.8433   -2.2172 C   0  0  0  0  0  0  0  0  0  0  0  0
   -1.8976   -0.8785   -2.3203 H   0  0  0  0  0  0  0  0  0  0  0  0
   -1.4948   -2.3886   -3.1601 H   0  0  0  0  0  0  0  0  0  0  0  0
   -1.8920   -2.4322   -1.4482 H   0  0  0  0  0  0  0  0  0  0  0  0
   -0.2305    1.0503    0.9533 C   0  0  0  0  0  0  0  0  0  0  0  0
   -1.2239    1.7145    0.6776 O   0  0  0  0  0  0  0  0  0  0  0  0
    0.7522    1.6065    1.7517 N   0  0  0  0  0  0  0  0  0  0  0  0
    1.5354    1.0156    2.0153 H   0  0  0  0  0  0  0  0  0  0  0  0
    0.6802    2.9627    2.2814 C   0  0  0  0  0  0  0  0  0  0  0  0
   -0.2127    3.0849    2.9038 H   0  0  0  0  0  0  0  0  0  0  0  0
    1.5605    3.1768    2.8950 H   0  0  0  0  0  0  0  0  0  0  0  0
    0.6427    3.6908    1.4643 H   0  0  0  0  0  0  0  0  0  0  0  0
  1  2  1  0  0  0  0
  2  3  1  0  0  0  0
  2  4  1  0  0  0  0
  2  5  1  0  0  0  0
  5  6  2  0  0  0  0
  5  7  1  0  0  0  0
  7  8  1  0  0  0  0
  7  9  1  0  0  0  0
  9 10  1  0  0  0  0
  9 11  1  0  0  0  0
  9 24  1  0  0  0  0
 11 12  1  0  0  0  0
 11 13  1  0  0  0  0
 11 17  1  0  0  0  0
 13 14  1  0  0  0  0
 13 15  1  0  0  0  0
 13 16  1  0  0  0  0
 17 18  1  0  0  0  0
 17 19  1  0  0  0  0
 17 20  1  0  0  0  0
 20 21  1  0  0  0  0
 20 22  1  0  0  0  0
 20 23  1  0  0  0  0
 24 25  2  0  0  0  0
 24 26  1  0  0  0  0
 26 27  1  0  0  0  0
 26 28  1  0  0  0  0
 28 29  1  0  0  0  0
 28 30  1  0  0  0  0
 28 31  1  0  0  0  0
M  END
$$$$

  -OEChem-03222214053D

 31 30  0     1  0  0  0  0  0999 V2000
   -2.9917   -3.8452    1.8019 H   0  0  0  0  0  0  0  0  0  0  0  0
   -3.0201   -2.8556    1.3376 C   0  0  0  0  0  0  0  0  0  0  0  0
   -3.5938   -2.1822    1.9789 H   0  0  0  0  0  0  0  0  0  0  0  0
   -3.5170   -2.9356    0.3679 H   0  0  0  0  0  0  0  0  0  0  0  0
   -1.6115   -2.3229    1.1544 C   0  0  0  0  0  0  0  0  0  0  0  0
   -0.6538   -3.0105    1.4726 O   0  0  0  0  0  0  0  0  0  0  0  0
   -1.4216   -1.0617    0.6286 N   0  0  0  0  0  0  0  0  0  0  0  0
   -2.2489   -0.4942    0.4515 H   0  0  0  0  0  0  0  0  0  0  0  0
   -0.1198   -0.4011    0.4692 C   0  0  1  0  0  0  0  0  0  0  0  0
    0.5952   -0.9038    1.1284 H   0  0  0  0  0  0  0  0  0  0  0  0
    0.4531   -0.4387   -0.9825 C   0  0  1  0  0  0  0  0  0  0  0  0
    0.0936    0.4530   -1.5086 H   0  0  0  0  0  0  0  0  0  0  0  0
    1.9875   -0.3574   -0.9184 C   0  0  0  0  0  0  0  0  0  0  0  0
    2.4002   -1.2480   -0.4333 H   0  0  0  0  0  0  0  0  0  0  0  0
    2.4098   -0.2851   -1.9256 H   0  0  0  0  0  0  0  0  0  0  0  0
    2.3073    0.5260   -0.3582 H   0  0  0  0  0  0  0  0  0  0  0  0
    0.0675   -1.6571   -1.8621 C   0  0  0  0  0  0  0  0  0  0  0  0
    0.7363   -1.6880   -2.7284 H   0  0  0  0  0  0  0  0  0  0  0  0
    0.2274   -2.5805   -1.2956 H   0  0  0  0  0  0  0  0  0  0  0  0
   -1.3687   -1.6370   -2.4065 C   0  0  0  0  0  0  0  0  0  0  0  0
   -1.5851   -0.6712   -2.8733 H   0  0  0  0  0  0  0  0  0  0  0  0
   -1.4816   -2.4176   -3.1648 H   0  0  0  0  0  0  0  0  0  0  0  0
   -2.1120   -1.8239   -1.6317 H   0  0  0  0  0  0  0  0  0  0  0  0
   -0.2265    1.0595    0.9556 C   0  0  0  0  0  0  0  0  0  0  0  0
   -1.2174    1.7262    0.6778 O   0  0  0  0  0  0  0  0  0  0  0  0
    0.7531    1.6079    1.7630 N   0  0  0  0  0  0  0  0  0  0  0  0
    1.5342    1.0136    2.0251 H   0  0  0  0  0  0  0  0  0  0  0  0
    0.6851    2.9625    2.2972 C   0  0  0  0  0  0  0  0  0  0  0  0
   -0.2131    3.0884    2.9108 H   0  0  0  0  0  0  0  0  0  0  0  0
    1.5606    3.1673    2.9207 H   0  0  0  0  0  0  0  0  0  0  0  0
    0.6617    3.6943    1.4829 H   0  0  0  0  0  0  0  0  0  0  0  0
  1  2  1  0  0  0  0
  2  3  1  0  0  0  0
  2  4  1  0  0  0  0
  2  5  1  0  0  0  0
  5  6  2  0  0  0  0
  5  7  1  0  0  0  0
  7  8  1  0  0  0  0
  7  9  1  0  0  0  0
  9 10  1  0  0  0  0
  9 11  1  0  0  0  0
  9 24  1  0  0  0  0
 11 12  1  0  0  0  0
 11 13  1  0  0  0  0
 11 17  1  0  0  0  0
 13 14  1  0  0  0  0
 13 15  1  0  0  0  0
 13 16  1  0  0  0  0
 17 18  1  0  0  0  0
 17 19  1  0  0  0  0
 17 20  1  0  0  0  0
 20 21  1  0  0  0  0
 20 22  1  0  0  0  0
 20 23  1  0  0  0  0
 24 25  2  0  0  0  0
 24 26  1  0  0  0  0
 26 27  1  0  0  0  0
 26 28  1  0  0  0  0
 28 29  1  0  0  0  0
 28 30  1  0  0  0  0
 28 31  1  0  0  0  0
M  END
$$$$

  -OEChem-03222214053D

 31 30  0     1  0  0  0  0  0999 V2000
   -2.9799   -3.8833    1.7043 H   0  0  0  0  0  0  0  0  0  0  0  0
   -3.0049   -2.8849    1.2589 C   0  0  0  0  0  0  0  0  0  0  0  0
   -3.6004   -2.2287    1.8982 H   0  0  0  0  0  0  0  0  0  0  0  0
   -3.4757   -2.9498    0.2751 H   0  0  0  0  0  0  0  0  0  0  0  0
   -1.5968   -2.3372    1.1232 C   0  0  0  0  0  0  0  0  0  0  0  0
   -0.6435   -3.0100    1.4837 O   0  0  0  0  0  0  0  0  0  0  0  0
   -1.4019   -1.0762    0.5988 N   0  0  0  0  0  0  0  0  0  0  0  0
   -2.2296   -0.5197    0.3918 H   0  0  0  0  0  0  0  0  0  0  0  0
   -0.1002   -0.4031    0.4599 C   0  0  1  0  0  0  0  0  0  0  0  0
    0.6145   -0.9030    1.1216 H   0  0  0  0  0  0  0  0  0  0  0  0
    0.4656   -0.4381   -0.9931 C   0  0  1  0  0  0  0  0  0  0  0  0
    0.1115    0.4517   -1.5263 H   0  0  0  0  0  0  0  0  0  0  0  0
    2.0002   -0.3648   -0.9349 C   0  0  0  0  0  0  0  0  0  0  0  0
    2.4099   -1.2545   -0.4455 H   0  0  0  0  0  0  0  0  0  0  0  0
    2.4180   -0.3011   -1.9446 H   0  0  0  0  0  0  0  0  0  0  0  0
    2.3261    0.5204   -0.3808 H   0  0  0  0  0  0  0  0  0  0  0  0
    0.0532   -1.6769   -1.8274 C   0  0  0  0  0  0  0  0  0  0  0  0
    0.8328   -1.8987   -2.5633 H   0  0  0  0  0  0  0  0  0  0  0  0
   -0.0323   -2.5591   -1.1867 H   0  0  0  0  0  0  0  0  0  0  0  0
   -1.2489   -1.4523   -2.6040 C   0  0  0  0  0  0  0  0  0  0  0  0
   -1.1367   -0.6161   -3.3012 H   0  0  0  0  0  0  0  0  0  0  0  0
   -1.4988   -2.3497   -3.1779 H   0  0  0  0  0  0  0  0  0  0  0  0
   -2.0814   -1.2327   -1.9311 H   0  0  0  0  0  0  0  0  0  0  0  0
   -0.2196    1.0580    0.9395 C   0  0  0  0  0  0  0  0  0  0  0  0
   -1.2078    1.7208    0.6435 O   0  0  0  0  0  0  0  0  0  0  0  0
    0.7465    1.6109    1.7599 N   0  0  0  0  0  0  0  0  0  0  0  0
    1.5231    1.0181    2.0381 H   0  0  0  0  0  0  0  0  0  0  0  0
    0.6646    2.9646    2.2937 C   0  0  0  0  0  0  0  0  0  0  0  0
   -0.2334    3.0804    2.9100 H   0  0  0  0  0  0  0  0  0  0  0  0
    1.5399    3.1797    2.9143 H   0  0  0  0  0  0  0  0  0  0  0  0
    0.6303    3.6958    1.4791 H   0  0  0  0  0  0  0  0  0  0  0  0
  1  2  1  0  0  0  0
  2  3  1  0  0  0  0
  2  4  1  0  0  0  0
  2  5  1  0  0  0  0
  5  6  2  0  0  0  0
  5  7  1  0  0  0  0
  7  8  1  0  0  0  0
  7  9  1  0  0  0  0
  9 10  1  0  0  0  0
  9 11  1  0  0  0  0
  9 24  1  0  0  0  0
 11 12  1  0  0  0  0
 11 13  1  0  0  0  0
 11 17  1  0  0  0  0
 13 14  1  0  0  0  0
 13 15  1  0  0  0  0
 13 16  1  0  0  0  0
 17 18  1  0  0  0  0
 17 19  1  0  0  0  0
 17 20  1  0  0  0  0
 20 21  1  0  0  0  0
 20 22  1  0  0  0  0
 20 23  1  0  0  0  0
 24 25  2  0  0  0  0
 24 26  1  0  0  0  0
 26 27  1  0  0  0  0
 26 28  1  0  0  0  0
 28 29  1  0  0  0  0
 28 30  1  0  0  0  0
 28 31  1  0  0  0  0
M  END
$$$$

  -OEChem-03222214053D

 31 30  0     1  0  0  0  0  0999 V2000
   -2.9926   -3.8842    1.7120 H   0  0  0  0  0  0  0  0  0  0  0  0
   -3.0137   -2.8875    1.2623 C   0  0  0  0  0  0  0  0  0  0  0  0
   -3.6105   -2.2276    1.8965 H   0  0  0  0  0  0  0  0  0  0  0  0
   -3.4804   -2.9555    0.2765 H   0  0  0  0  0  0  0  0  0  0  0  0
   -1.6039   -2.3435    1.1308 C   0  0  0  0  0  0  0  0  0  0  0  0
   -0.6542   -3.0148    1.5031 O   0  0  0  0  0  0  0  0  0  0  0  0
   -1.4023   -1.0867    0.5985 N   0  0  0  0  0  0  0  0  0  0  0  0
   -2.2276   -0.5302    0.3821 H   0  0  0  0  0  0  0  0  0  0  0  0
   -0.0973   -0.4161    0.4626 C   0  0  1  0  0  0  0  0  0  0  0  0
    0.6161   -0.9142    1.1269 H   0  0  0  0  0  0  0  0  0  0  0  0
    0.4673   -0.4527   -0.9913 C   0  0  1  0  0  0  0  0  0  0  0  0
    0.1113    0.4407   -1.5176 H   0  0  0  0  0  0  0  0  0  0  0  0
    2.0016   -0.3697   -0.9365 C   0  0  0  0  0  0  0  0  0  0  0  0
    2.4174   -1.2536   -0.4417 H   0  0  0  0  0  0  0  0  0  0  0  0
    2.4164   -0.3104   -1.9479 H   0  0  0  0  0  0  0  0  0  0  0  0
    2.3233    0.5213   -0.3894 H   0  0  0  0  0  0  0  0  0  0  0  0
    0.0530   -1.6920   -1.8306 C   0  0  0  0  0  0  0  0  0  0  0  0
    0.9200   -2.0721   -2.3808 H   0  0  0  0  0  0  0  0  0  0  0  0
   -0.2856   -2.5160   -1.1995 H   0  0  0  0  0  0  0  0  0  0  0  0
   -1.0172   -1.3359   -2.8640 C   0  0  0  0  0  0  0  0  0  0  0  0
   -0.6456   -0.5734   -3.5557 H   0  0  0  0  0  0  0  0  0  0  0  0
   -1.2908   -2.2238   -3.4418 H   0  0  0  0  0  0  0  0  0  0  0  0
   -1.9148   -0.9534   -2.3683 H   0  0  0  0  0  0  0  0  0  0  0  0
   -0.2186    1.0486    0.9321 C   0  0  0  0  0  0  0  0  0  0  0  0
   -1.2043    1.7104    0.6256 O   0  0  0  0  0  0  0  0  0  0  0  0
    0.7425    1.6066    1.7551 N   0  0  0  0  0  0  0  0  0  0  0  0
    1.5189    1.0165    2.0397 H   0  0  0  0  0  0  0  0  0  0  0  0
    0.6601    2.9663    2.2742 C   0  0  0  0  0  0  0  0  0  0  0  0
   -0.2441    3.0919    2.8792 H   0  0  0  0  0  0  0  0  0  0  0  0
    1.5291    3.1851    2.9020 H   0  0  0  0  0  0  0  0  0  0  0  0
    0.6375    3.6891    1.4518 H   0  0  0  0  0  0  0  0  0  0  0  0
  1  2  1  0  0  0  0
  2  3  1  0  0  0  0
  2  4  1  0  0  0  0
  2  5  1  0  0  0  0
  5  6  2  0  0  0  0
  5  7  1  0  0  0  0
  7  8  1  0  0  0  0
  7  9  1  0  0  0  0
  9 10  1  0  0  0  0
  9 11  1  0  0  0  0
  9 24  1  0  0  0  0
 11 12  1  0  0  0  0
 11 13  1  0  0  0  0
 11 17  1  0  0  0  0
 13 14  1  0  0  0  0
 13 15  1  0  0  0  0
 13 16  1  0  0  0  0
 17 18  1  0  0  0  0
 17 19  1  0  0  0  0
 17 20  1  0  0  0  0
 20 21  1  0  0  0  0
 20 22  1  0  0  0  0
 20 23  1  0  0  0  0
 24 25  2  0  0  0  0
 24 26  1  0  0  0  0
 26 27  1  0  0  0  0
 26 28  1  0  0  0  0
 28 29  1  0  0  0  0
 28 30  1  0  0  0  0
 28 31  1  0  0  0  0
M  END
$$$$

  -OEChem-03222214053D

 31 30  0     1  0  0  0  0  0999 V2000
   -3.0155   -3.8667    1.7549 H   0  0  0  0  0  0  0  0  0  0  0  0
   -3.0350   -2.8706    1.3039 C   0  0  0  0  0  0  0  0  0  0  0  0
   -3.6125   -2.2034    1.9484 H   0  0  0  0  0  0  0  0  0  0  0  0
   -3.5216   -2.9351    0.3278 H   0  0  0  0  0  0  0  0  0  0  0  0
   -1.6224   -2.3417    1.1429 C   0  0  0  0  0  0  0  0  0  0  0  0
   -0.6718   -3.0235    1.4933 O   0  0  0  0  0  0  0  0  0  0  0  0
   -1.4188   -1.0874    0.6050 N   0  0  0  0  0  0  0  0  0  0  0  0
   -2.2425   -0.5219    0.4057 H   0  0  0  0  0  0  0  0  0  0  0  0
   -0.1108   -0.4259    0.4587 C   0  0  1  0  0  0  0  0  0  0  0  0
    0.6007   -0.9242    1.1250 H   0  0  0  0  0  0  0  0  0  0  0  0
    0.4639   -0.4725   -0.9918 C   0  0  1  0  0  0  0  0  0  0  0  0
    0.0886    0.4170   -1.5111 H   0  0  0  0  0  0  0  0  0  0  0  0
    1.9961   -0.3585   -0.9458 C   0  0  0  0  0  0  0  0  0  0  0  0
    2.4316   -1.2190   -0.4273 H   0  0  0  0  0  0  0  0  0  0  0  0
    2.4038   -0.3216   -1.9611 H   0  0  0  0  0  0  0  0  0  0  0  0
    2.3022    0.5544   -0.4265 H   0  0  0  0  0  0  0  0  0  0  0  0
    0.0654   -1.7081   -1.8504 C   0  0  0  0  0  0  0  0  0  0  0  0
    0.9630   -2.2580   -2.1519 H   0  0  0  0  0  0  0  0  0  0  0  0
   -0.5458   -2.4196   -1.2950 H   0  0  0  0  0  0  0  0  0  0  0  0
   -0.6882   -1.2909   -3.1146 C   0  0  0  0  0  0  0  0  0  0  0  0
   -0.0704   -0.6277   -3.7280 H   0  0  0  0  0  0  0  0  0  0  0  0
   -0.9438   -2.1740   -3.7080 H   0  0  0  0  0  0  0  0  0  0  0  0
   -1.6136   -0.7683   -2.8529 H   0  0  0  0  0  0  0  0  0  0  0  0
   -0.2242    1.0405    0.9256 C   0  0  0  0  0  0  0  0  0  0  0  0
   -1.2120    1.7037    0.6289 O   0  0  0  0  0  0  0  0  0  0  0  0
    0.7439    1.5962    1.7418 N   0  0  0  0  0  0  0  0  0  0  0  0
    1.5196    1.0033    2.0222 H   0  0  0  0  0  0  0  0  0  0  0  0
    0.6639    2.9523    2.2705 C   0  0  0  0  0  0  0  0  0  0  0  0
   -0.2334    3.0713    2.8867 H   0  0  0  0  0  0  0  0  0  0  0  0
    1.5398    3.1688    2.8896 H   0  0  0  0  0  0  0  0  0  0  0  0
    0.6296    3.6808    1.4537 H   0  0  0  0  0  0  0  0  0  0  0  0
  1  2  1  0  0  0  0
  2  3  1  0  0  0  0
  2  4  1  0  0  0  0
  2  5  1  0  0  0  0
  5  6  2  0  0  0  0
  5  7  1  0  0  0  0
  7  8  1  0  0  0  0
  7  9  1  0  0  0  0
  9 10  1  0  0  0  0
  9 11  1  0  0  0  0
  9 24  1  0  0  0  0
 11 12  1  0  0  0  0
 11 13  1  0  0  0  0
 11 17  1  0  0  0  0
 13 14  1  0  0  0  0
 13 15  1  0  0  0  0
 13 16  1  0  0  0  0
 17 18  1  0  0  0  0
 17 19  1  0  0  0  0
 17 20  1  0  0  0  0
 20 21  1  0  0  0  0
 20 22  1  0  0  0  0
 20 23  1  0  0  0  0
 24 25  2  0  0  0  0
 24 26  1  0  0  0  0
 26 27  1  0  0  0  0
 26 28  1  0  0  0  0
 28 29  1  0  0  0  0
 28 30  1  0  0  0  0
 28 31  1  0  0  0  0
M  END
$$$$

  -OEChem-03222214053D

 31 30  0     1  0  0  0  0  0999 V2000
   -3.0266   -3.8576    1.7717 H   0  0  0  0  0  0  0  0  0  0  0  0
   -3.0481   -2.8610    1.3220 C   0  0  0  0  0  0  0  0  0  0  0  0
   -3.6104   -2.1910    1.9770 H   0  0  0  0  0  0  0  0  0  0  0  0
   -3.5523   -2.9220    0.3547 H   0  0  0  0  0  0  0  0  0  0  0  0
   -1.6355   -2.3398    1.1369 C   0  0  0  0  0  0  0  0  0  0  0  0
   -0.6831   -3.0297    1.4655 O   0  0  0  0  0  0  0  0  0  0  0  0
   -1.4337   -1.0841    0.6016 N   0  0  0  0  0  0  0  0  0  0  0  0
   -2.2564   -0.5106    0.4219 H   0  0  0  0  0  0  0  0  0  0  0  0
   -0.1241   -0.4280    0.4522 C   0  0  1  0  0  0  0  0  0  0  0  0
    0.5841   -0.9285    1.1203 H   0  0  0  0  0  0  0  0  0  0  0  0
    0.4602   -0.4833   -0.9940 C   0  0  1  0  0  0  0  0  0  0  0  0
    0.0685    0.3992   -1.5131 H   0  0  0  0  0  0  0  0  0  0  0  0
    1.9909   -0.3544   -0.9556 C   0  0  0  0  0  0  0  0  0  0  0  0
    2.4355   -1.1968   -0.4157 H   0  0  0  0  0  0  0  0  0  0  0  0
    2.3968   -0.3415   -1.9720 H   0  0  0  0  0  0  0  0  0  0  0  0
    2.2896    0.5742   -0.4604 H   0  0  0  0  0  0  0  0  0  0  0  0
    0.0701   -1.7185   -1.8554 C   0  0  0  0  0  0  0  0  0  0  0  0
    0.9053   -2.4253   -1.8980 H   0  0  0  0  0  0  0  0  0  0  0  0
   -0.7740   -2.2652   -1.4350 H   0  0  0  0  0  0  0  0  0  0  0  0
   -0.3248   -1.3043   -3.2746 C   0  0  0  0  0  0  0  0  0  0  0  0
    0.4990   -0.7747   -3.7628 H   0  0  0  0  0  0  0  0  0  0  0  0
   -0.5687   -2.1895   -3.8695 H   0  0  0  0  0  0  0  0  0  0  0  0
   -1.2014   -0.6492   -3.2539 H   0  0  0  0  0  0  0  0  0  0  0  0
   -0.2288    1.0376    0.9234 C   0  0  0  0  0  0  0  0  0  0  0  0
   -1.2171    1.7040    0.6359 O   0  0  0  0  0  0  0  0  0  0  0  0
    0.7449    1.5869    1.7371 N   0  0  0  0  0  0  0  0  0  0  0  0
    1.5227    0.9921    2.0077 H   0  0  0  0  0  0  0  0  0  0  0  0
    0.6730    2.9423    2.2684 C   0  0  0  0  0  0  0  0  0  0  0  0
   -0.2197    3.0638    2.8910 H   0  0  0  0  0  0  0  0  0  0  0  0
    1.5537    3.1549    2.8820 H   0  0  0  0  0  0  0  0  0  0  0  0
    0.6359    3.6717    1.4525 H   0  0  0  0  0  0  0  0  0  0  0  0
  1  2  1  0  0  0  0
  2  3  1  0  0  0  0
  2  4  1  0  0  0  0
  2  5  1  0  0  0  0
  5  6  2  0  0  0  0
  5  7  1  0  0  0  0
  7  8  1  0  0  0  0
  7  9  1  0  0  0  0
  9 10  1  0  0  0  0
  9 11  1  0  0  0  0
  9 24  1  0  0  0  0
 11 12  1  0  0  0  0
 11 13  1  0  0  0  0
 11 17  1  0  0  0  0
 13 14  1  0  0  0  0
 13 15  1  0  0  0  0
 13 16  1  0  0  0  0
 17 18  1  0  0  0  0
 17 19  1  0  0  0  0
 17 20  1  0  0  0  0
 20 21  1  0  0  0  0
 20 22  1  0  0  0  0
 20 23  1  0  0  0  0
 24 25  2  0  0  0  0
 24 26  1  0  0  0  0
 26 27  1  0  0  0  0
 26 28  1  0  0  0  0
 28 29  1  0  0  0  0
 28 30  1  0  0  0  0
 28 31  1  0  0  0  0
M  END
$$$$

  -OEChem-03222214053D

 31 30  0     1  0  0  0  0  0999 V2000
   -3.0257   -3.8644    1.7443 H   0  0  0  0  0  0  0  0  0  0  0  0
   -3.0476   -2.8685    1.2929 C   0  0  0  0  0  0  0  0  0  0  0  0
   -3.6205   -2.2007    1.9408 H   0  0  0  0  0  0  0  0  0  0  0  0
   -3.5408   -2.9335    0.3200 H   0  0  0  0  0  0  0  0  0  0  0  0
   -1.6355   -2.3408    1.1223 C   0  0  0  0  0  0  0  0  0  0  0  0
   -0.6828   -3.0319    1.4476 O   0  0  0  0  0  0  0  0  0  0  0  0
   -1.4346   -1.0816    0.5955 N   0  0  0  0  0  0  0  0  0  0  0  0
   -2.2580   -0.5097    0.4133 H   0  0  0  0  0  0  0  0  0  0  0  0
   -0.1255   -0.4234    0.4518 C   0  0  1  0  0  0  0  0  0  0  0  0
    0.5810   -0.9278    1.1190 H   0  0  0  0  0  0  0  0  0  0  0  0
    0.4585   -0.4771   -0.9935 C   0  0  1  0  0  0  0  0  0  0  0  0
    0.0618    0.3998   -1.5178 H   0  0  0  0  0  0  0  0  0  0  0  0
    1.9903   -0.3503   -0.9499 C   0  0  0  0  0  0  0  0  0  0  0  0
    2.4319   -1.2029   -0.4241 H   0  0  0  0  0  0  0  0  0  0  0  0
    2.4038   -0.3172   -1.9619 H   0  0  0  0  0  0  0  0  0  0  0  0
    2.2878    0.5685   -0.4363 H   0  0  0  0  0  0  0  0  0  0  0  0
    0.0590   -1.7161   -1.8398 C   0  0  0  0  0  0  0  0  0  0  0  0
    0.7581   -2.5378   -1.6530 H   0  0  0  0  0  0  0  0  0  0  0  0
   -0.9372   -2.0769   -1.5786 H   0  0  0  0  0  0  0  0  0  0  0  0
    0.0151   -1.3866   -3.3346 C   0  0  0  0  0  0  0  0  0  0  0  0
    0.9943   -1.0519   -3.6889 H   0  0  0  0  0  0  0  0  0  0  0  0
   -0.2716   -2.2755   -3.9044 H   0  0  0  0  0  0  0  0  0  0  0  0
   -0.7180   -0.5985   -3.5329 H   0  0  0  0  0  0  0  0  0  0  0  0
   -0.2261    1.0397    0.9307 C   0  0  0  0  0  0  0  0  0  0  0  0
   -1.2092    1.7119    0.6392 O   0  0  0  0  0  0  0  0  0  0  0  0
    0.7481    1.5840    1.7474 N   0  0  0  0  0  0  0  0  0  0  0  0
    1.5277    0.9889    2.0126 H   0  0  0  0  0  0  0  0  0  0  0  0
    0.6909    2.9467    2.2619 C   0  0  0  0  0  0  0  0  0  0  0  0
   -0.2143    3.0932    2.8605 H   0  0  0  0  0  0  0  0  0  0  0  0
    1.5601    3.1494    2.8949 H   0  0  0  0  0  0  0  0  0  0  0  0
    0.6881    3.6672    1.4372 H   0  0  0  0  0  0  0  0  0  0  0  0
  1  2  1  0  0  0  0
  2  3  1  0  0  0  0
  2  4  1  0  0  0  0
  2  5  1  0  0  0  0
  5  6  2  0  0  0  0
  5  7  1  0  0  0  0
  7  8  1  0  0  0  0
  7  9  1  0  0  0  0
  9 10  1  0  0  0  0
  9 11  1  0  0  0  0
  9 24  1  0  0  0  0
 11 12  1  0  0  0  0
 11 13  1  0  0  0  0
 11 17  1  0  0  0  0
 13 14  1  0  0  0  0
 13 15  1  0  0  0  0
 13 16  1  0  0  0  0
 17 18  1  0  0  0  0
 17 19  1  0  0  0  0
 17 20  1  0  0  0  0
 20 21  1  0  0  0  0
 20 22  1  0  0  0  0
 20 23  1  0  0  0  0
 24 25  2  0  0  0  0
 24 26  1  0  0  0  0
 26 27  1  0  0  0  0
 26 28  1  0  0  0  0
 28 29  1  0  0  0  0
 28 30  1  0  0  0  0
 28 31  1  0  0  0  0
M  END
$$$$

  -OEChem-03222214053D

 31 30  0     1  0  0  0  0  0999 V2000
   -3.0180   -3.8621    1.7016 H   0  0  0  0  0  0  0  0  0  0  0  0
   -3.0370   -2.8632    1.2568 C   0  0  0  0  0  0  0  0  0  0  0  0
   -3.6115   -2.1989    1.9069 H   0  0  0  0  0  0  0  0  0  0  0  0
   -3.5268   -2.9209    0.2818 H   0  0  0  0  0  0  0  0  0  0  0  0
   -1.6238   -2.3355    1.0948 C   0  0  0  0  0  0  0  0  0  0  0  0
   -0.6730   -3.0270    1.4246 O   0  0  0  0  0  0  0  0  0  0  0  0
   -1.4213   -1.0736    0.5759 N   0  0  0  0  0  0  0  0  0  0  0  0
   -2.2447   -0.5021    0.3934 H   0  0  0  0  0  0  0  0  0  0  0  0
   -0.1129   -0.4115    0.4441 C   0  0  1  0  0  0  0  0  0  0  0  0
    0.5928   -0.9179    1.1108 H   0  0  0  0  0  0  0  0  0  0  0  0
    0.4699   -0.4615   -1.0012 C   0  0  1  0  0  0  0  0  0  0  0  0
    0.0778    0.4109   -1.5365 H   0  0  0  0  0  0  0  0  0  0  0  0
    2.0031   -0.3402   -0.9459 C   0  0  0  0  0  0  0  0  0  0  0  0
    2.4419   -1.2289   -0.4811 H   0  0  0  0  0  0  0  0  0  0  0  0
    2.4224   -0.2303   -1.9496 H   0  0  0  0  0  0  0  0  0  0  0  0
    2.3013    0.5388   -0.3672 H   0  0  0  0  0  0  0  0  0  0  0  0
    0.0500   -1.7099   -1.8195 C   0  0  0  0  0  0  0  0  0  0  0  0
    0.5604   -2.5982   -1.4325 H   0  0  0  0  0  0  0  0  0  0  0  0
   -1.0255   -1.8805   -1.7275 H   0  0  0  0  0  0  0  0  0  0  0  0
    0.3297   -1.5520   -3.3173 C   0  0  0  0  0  0  0  0  0  0  0  0
    1.4038   -1.4966   -3.5136 H   0  0  0  0  0  0  0  0  0  0  0  0
   -0.0707   -2.4123   -3.8621 H   0  0  0  0  0  0  0  0  0  0  0  0
   -0.1470   -0.6460   -3.7040 H   0  0  0  0  0  0  0  0  0  0  0  0
   -0.2194    1.0492    0.9291 C   0  0  0  0  0  0  0  0  0  0  0  0
   -1.2021    1.7205    0.6347 O   0  0  0  0  0  0  0  0  0  0  0  0
    0.7485    1.5913    1.7548 N   0  0  0  0  0  0  0  0  0  0  0  0
    1.5260    0.9955    2.0239 H   0  0  0  0  0  0  0  0  0  0  0  0
    0.6841    2.9500    2.2792 C   0  0  0  0  0  0  0  0  0  0  0  0
   -0.2240    3.0886    2.8752 H   0  0  0  0  0  0  0  0  0  0  0  0
    1.5501    3.1506    2.9174 H   0  0  0  0  0  0  0  0  0  0  0  0
    0.6821    3.6769    1.4600 H   0  0  0  0  0  0  0  0  0  0  0  0
  1  2  1  0  0  0  0
  2  3  1  0  0  0  0
  2  4  1  0  0  0  0
  2  5  1  0  0  0  0
  5  6  2  0  0  0  0
  5  7  1  0  0  0  0
  7  8  1  0  0  0  0
  7  9  1  0  0  0  0
  9 10  1  0  0  0  0
  9 11  1  0  0  0  0
  9 24  1  0  0  0  0
 11 12  1  0  0  0  0
 11 13  1  0  0  0  0
 11 17  1  0  0  0  0
 13 14  1  0  0  0  0
 13 15  1  0  0  0  0
 13 16  1  0  0  0  0
 17 18  1  0  0  0  0
 17 19  1  0  0  0  0
 17 20  1  0  0  0  0
 20 21  1  0  0  0  0
 20 22  1  0  0  0  0
 20 23  1  0  0  0  0
 24 25  2  0  0  0  0
 24 26  1  0  0  0  0
 26 27  1  0  0  0  0
 26 28  1  0  0  0  0
 28 29  1  0  0  0  0
 28 30  1  0  0  0  0
 28 31  1  0  0  0  0
M  END
$$$$

  -OEChem-03222214053D

 31 30  0     1  0  0  0  0  0999 V2000
   -3.0012   -3.8727    1.6817 H   0  0  0  0  0  0  0  0  0  0  0  0
   -3.0279   -2.8706    1.2445 C   0  0  0  0  0  0  0  0  0  0  0  0
   -3.6001   -2.2136    1.9040 H   0  0  0  0  0  0  0  0  0  0  0  0
   -3.5246   -2.9231    0.2727 H   0  0  0  0  0  0  0  0  0  0  0  0
   -1.6184   -2.3360    1.0768 C   0  0  0  0  0  0  0  0  0  0  0  0
   -0.6627   -3.0262    1.3949 O   0  0  0  0  0  0  0  0  0  0  0  0
   -1.4244   -1.0696    0.5657 N   0  0  0  0  0  0  0  0  0  0  0  0
   -2.2511   -0.4986    0.3968 H   0  0  0  0  0  0  0  0  0  0  0  0
   -0.1182   -0.4011    0.4348 C   0  0  1  0  0  0  0  0  0  0  0  0
    0.5838   -0.9077    1.1054 H   0  0  0  0  0  0  0  0  0  0  0  0
    0.4651   -0.4432   -1.0125 C   0  0  1  0  0  0  0  0  0  0  0  0
    0.3104    0.5401   -1.4714 H   0  0  0  0  0  0  0  0  0  0  0  0
    1.9817   -0.6885   -0.9300 C   0  0  0  0  0  0  0  0  0  0  0  0
    2.1866   -1.7120   -0.5993 H   0  0  0  0  0  0  0  0  0  0  0  0
    2.4571   -0.5323   -1.9024 H   0  0  0  0  0  0  0  0  0  0  0  0
    2.4443    0.0061   -0.2222 H   0  0  0  0  0  0  0  0  0  0  0  0
   -0.2326   -1.4736   -1.9358 C   0  0  0  0  0  0  0  0  0  0  0  0
   -0.1544   -2.4741   -1.4973 H   0  0  0  0  0  0  0  0  0  0  0  0
   -1.2948   -1.2212   -2.0152 H   0  0  0  0  0  0  0  0  0  0  0  0
    0.3421   -1.5117   -3.3549 C   0  0  0  0  0  0  0  0  0  0  0  0
    1.3587   -1.9150   -3.3565 H   0  0  0  0  0  0  0  0  0  0  0  0
   -0.2768   -2.1543   -3.9884 H   0  0  0  0  0  0  0  0  0  0  0  0
    0.3573   -0.5075   -3.7897 H   0  0  0  0  0  0  0  0  0  0  0  0
   -0.2182    1.0568    0.9273 C   0  0  0  0  0  0  0  0  0  0  0  0
   -1.2028    1.7305    0.6450 O   0  0  0  0  0  0  0  0  0  0  0  0
    0.7560    1.5907    1.7505 N   0  0  0  0  0  0  0  0  0  0  0  0
    1.5347    0.9915    2.0085 H   0  0  0  0  0  0  0  0  0  0  0  0
    0.6933    2.9425    2.2930 C   0  0  0  0  0  0  0  0  0  0  0  0
   -0.2060    3.0691    2.9049 H   0  0  0  0  0  0  0  0  0  0  0  0
    1.5681    3.1395    2.9199 H   0  0  0  0  0  0  0  0  0  0  0  0
    0.6754    3.6795    1.4833 H   0  0  0  0  0  0  0  0  0  0  0  0
  1  2  1  0  0  0  0
  2  3  1  0  0  0  0
  2  4  1  0  0  0  0
  2  5  1  0  0  0  0
  5  6  2  0  0  0  0
  5  7  1  0  0  0  0
  7  8  1  0  0  0  0
  7  9  1  0  0  0  0
  9 10  1  0  0  0  0
  9 11  1  0  0  0  0
  9 24  1  0  0  0  0
 11 12  1  0  0  0  0
 11 13  1  0  0  0  0
 11 17  1  0  0  0  0
 13 14  1  0  0  0  0
 13 15  1  0  0  0  0
 13 16  1  0  0  0  0
 17 18  1  0  0  0  0
 17 19  1  0  0  0  0
 17 20  1  0  0  0  0
 20 21  1  0  0  0  0
 20 22  1  0  0  0  0
 20 23  1  0  0  0  0
 24 25  2  0  0  0  0
 24 26  1  0  0  0  0
 26 27  1  0  0  0  0
 26 28  1  0  0  0  0
 28 29  1  0  0  0  0
 28 30  1  0  0  0  0
 28 31  1  0  0  0  0
M  END
$$$$

  -OEChem-03222214053D

 31 30  0     1  0  0  0  0  0999 V2000
   -3.0185   -3.8628    1.6771 H   0  0  0  0  0  0  0  0  0  0  0  0
   -3.0371   -2.8610    1.2387 C   0  0  0  0  0  0  0  0  0  0  0  0
   -3.6130   -2.2012    1.8922 H   0  0  0  0  0  0  0  0  0  0  0  0
   -3.5254   -2.9124    0.2626 H   0  0  0  0  0  0  0  0  0  0  0  0
   -1.6239   -2.3319    1.0829 C   0  0  0  0  0  0  0  0  0  0  0  0
   -0.6738   -3.0222    1.4171 O   0  0  0  0  0  0  0  0  0  0  0  0
   -1.4198   -1.0690    0.5664 N   0  0  0  0  0  0  0  0  0  0  0  0
   -2.2429   -0.4978    0.3821 H   0  0  0  0  0  0  0  0  0  0  0  0
   -0.1103   -0.4053    0.4375 C   0  0  1  0  0  0  0  0  0  0  0  0
    0.5889   -0.9126    1.1105 H   0  0  0  0  0  0  0  0  0  0  0  0
    0.4751   -0.4427   -1.0102 C   0  0  1  0  0  0  0  0  0  0  0  0
    0.3268    0.5400   -1.4723 H   0  0  0  0  0  0  0  0  0  0  0  0
    1.9939   -0.6775   -0.9084 C   0  0  0  0  0  0  0  0  0  0  0  0
    2.2021   -1.6995   -0.5749 H   0  0  0  0  0  0  0  0  0  0  0  0
    2.4812   -0.5163   -1.8744 H   0  0  0  0  0  0  0  0  0  0  0  0
    2.4429    0.0203   -0.1950 H   0  0  0  0  0  0  0  0  0  0  0  0
   -0.2255   -1.4686   -1.9410 C   0  0  0  0  0  0  0  0  0  0  0  0
   -0.3510   -2.4172   -1.4102 H   0  0  0  0  0  0  0  0  0  0  0  0
   -1.2206   -1.0914   -2.1985 H   0  0  0  0  0  0  0  0  0  0  0  0
    0.5382   -1.7834   -3.2314 C   0  0  0  0  0  0  0  0  0  0  0  0
    1.4711   -2.3138   -3.0183 H   0  0  0  0  0  0  0  0  0  0  0  0
   -0.0725   -2.4213   -3.8776 H   0  0  0  0  0  0  0  0  0  0  0  0
    0.7680   -0.8612   -3.7741 H   0  0  0  0  0  0  0  0  0  0  0  0
   -0.2115    1.0547    0.9233 C   0  0  0  0  0  0  0  0  0  0  0  0
   -1.1938    1.7290    0.6344 O   0  0  0  0  0  0  0  0  0  0  0  0
    0.7598    1.5898    1.7490 N   0  0  0  0  0  0  0  0  0  0  0  0
    1.5349    0.9894    2.0148 H   0  0  0  0  0  0  0  0  0  0  0  0
    0.6927    2.9402    2.2936 C   0  0  0  0  0  0  0  0  0  0  0  0
   -0.2094    3.0648    2.9018 H   0  0  0  0  0  0  0  0  0  0  0  0
    1.5645    3.1369    2.9250 H   0  0  0  0  0  0  0  0  0  0  0  0
    0.6777    3.6787    1.4852 H   0  0  0  0  0  0  0  0  0  0  0  0
  1  2  1  0  0  0  0
  2  3  1  0  0  0  0
  2  4  1  0  0  0  0
  2  5  1  0  0  0  0
  5  6  2  0  0  0  0
  5  7  1  0  0  0  0
  7  8  1  0  0  0  0
  7  9  1  0  0  0  0
  9 10  1  0  0  0  0
  9 11  1  0  0  0  0
  9 24  1  0  0  0  0
 11 12  1  0  0  0  0
 11 13  1  0  0  0  0
 11 17  1  0  0  0  0
 13 14  1  0  0  0  0
 13 15  1  0  0  0  0
 13 16  1  0  0  0  0
 17 18  1  0  0  0  0
 17 19  1  0  0  0  0
 17 20  1  0  0  0  0
 20 21  1  0  0  0  0
 20 22  1  0  0  0  0
 20 23  1  0  0  0  0
 24 25  2  0  0  0  0
 24 26  1  0  0  0  0
 26 27  1  0  0  0  0
 26 28  1  0  0  0  0
 28 29  1  0  0  0  0
 28 30  1  0  0  0  0
 28 31  1  0  0  0  0
M  END
$$$$

  -OEChem-03222214053D

 31 30  0     1  0  0  0  0  0999 V2000
   -3.0442   -3.8462    1.7072 H   0  0  0  0  0  0  0  0  0  0  0  0
   -3.0560   -2.8474    1.2619 C   0  0  0  0  0  0  0  0  0  0  0  0
   -3.6219   -2.1778    1.9141 H   0  0  0  0  0  0  0  0  0  0  0  0
   -3.5503   -2.9008    0.2888 H   0  0  0  0  0  0  0  0  0  0  0  0
   -1.6389   -2.3320    1.0948 C   0  0  0  0  0  0  0  0  0  0  0  0
   -0.6927   -3.0297    1.4250 O   0  0  0  0  0  0  0  0  0  0  0  0
   -1.4268   -1.0719    0.5742 N   0  0  0  0  0  0  0  0  0  0  0  0
   -2.2462   -0.4931    0.3963 H   0  0  0  0  0  0  0  0  0  0  0  0
   -0.1134   -0.4169    0.4415 C   0  0  1  0  0  0  0  0  0  0  0  0
    0.5814   -0.9263    1.1174 H   0  0  0  0  0  0  0  0  0  0  0  0
    0.4814   -0.4507   -1.0054 C   0  0  1  0  0  0  0  0  0  0  0  0
    0.3351    0.5344   -1.4631 H   0  0  0  0  0  0  0  0  0  0  0  0
    2.0031   -0.6609   -0.8785 C   0  0  0  0  0  0  0  0  0  0  0  0
    2.2236   -1.6716   -0.5196 H   0  0  0  0  0  0  0  0  0  0  0  0
    2.5012   -0.5115   -1.8408 H   0  0  0  0  0  0  0  0  0  0  0  0
    2.4323    0.0578   -0.1738 H   0  0  0  0  0  0  0  0  0  0  0  0
   -0.2045   -1.4669   -1.9681 C   0  0  0  0  0  0  0  0  0  0  0  0
   -0.5617   -2.3312   -1.4039 H   0  0  0  0  0  0  0  0  0  0  0  0
   -1.0750   -0.9858   -2.4257 H   0  0  0  0  0  0  0  0  0  0  0  0
    0.6930   -2.0517   -3.0649 C   0  0  0  0  0  0  0  0  0  0  0  0
    1.4991   -2.6549   -2.6361 H   0  0  0  0  0  0  0  0  0  0  0  0
    0.1012   -2.6971   -3.7210 H   0  0  0  0  0  0  0  0  0  0  0  0
    1.1275   -1.2517   -3.6719 H   0  0  0  0  0  0  0  0  0  0  0  0
   -0.2130    1.0443    0.9253 C   0  0  0  0  0  0  0  0  0  0  0  0
   -1.1941    1.7194    0.6337 O   0  0  0  0  0  0  0  0  0  0  0  0
    0.7583    1.5807    1.7504 N   0  0  0  0  0  0  0  0  0  0  0  0
    1.5299    0.9788    2.0232 H   0  0  0  0  0  0  0  0  0  0  0  0
    0.6948    2.9352    2.2853 C   0  0  0  0  0  0  0  0  0  0  0  0
   -0.2054    3.0650    2.8952 H   0  0  0  0  0  0  0  0  0  0  0  0
    1.5688    3.1355    2.9125 H   0  0  0  0  0  0  0  0  0  0  0  0
    0.6777    3.6677    1.4714 H   0  0  0  0  0  0  0  0  0  0  0  0
  1  2  1  0  0  0  0
  2  3  1  0  0  0  0
  2  4  1  0  0  0  0
  2  5  1  0  0  0  0
  5  6  2  0  0  0  0
  5  7  1  0  0  0  0
  7  8  1  0  0  0  0
  7  9  1  0  0  0  0
  9 10  1  0  0  0  0
  9 11  1  0  0  0  0
  9 24  1  0  0  0  0
 11 12  1  0  0  0  0
 11 13  1  0  0  0  0
 11 17  1  0  0  0  0
 13 14  1  0  0  0  0
 13 15  1  0  0  0  0
 13 16  1  0  0  0  0
 17 18  1  0  0  0  0
 17 19  1  0  0  0  0
 17 20  1  0  0  0  0
 20 21  1  0  0  0  0
 20 22  1  0  0  0  0
 20 23  1  0  0  0  0
 24 25  2  0  0  0  0
 24 26  1  0  0  0  0
 26 27  1  0  0  0  0
 26 28  1  0  0  0  0
 28 29  1  0  0  0  0
 28 30  1  0  0  0  0
 28 31  1  0  0  0  0
M  END
$$$$

  -OEChem-03222214053D

 31 30  0     1  0  0  0  0  0999 V2000
   -3.0664   -3.8355    1.7272 H   0  0  0  0  0  0  0  0  0  0  0  0
   -3.0748   -2.8366    1.2820 C   0  0  0  0  0  0  0  0  0  0  0  0
   -3.6391   -2.1652    1.9337 H   0  0  0  0  0  0  0  0  0  0  0  0
   -3.5685   -2.8887    0.3086 H   0  0  0  0  0  0  0  0  0  0  0  0
   -1.6560   -2.3263    1.1153 C   0  0  0  0  0  0  0  0  0  0  0  0
   -0.7126   -3.0269    1.4469 O   0  0  0  0  0  0  0  0  0  0  0  0
   -1.4398   -1.0690    0.5895 N   0  0  0  0  0  0  0  0  0  0  0  0
   -2.2568   -0.4892    0.4048 H   0  0  0  0  0  0  0  0  0  0  0  0
   -0.1235   -0.4236    0.4472 C   0  0  1  0  0  0  0  0  0  0  0  0
    0.5687   -0.9338    1.1249 H   0  0  0  0  0  0  0  0  0  0  0  0
    0.4810   -0.4658   -0.9976 C   0  0  1  0  0  0  0  0  0  0  0  0
    0.3201    0.5185   -1.4523 H   0  0  0  0  0  0  0  0  0  0  0  0
    2.0082   -0.6308   -0.8603 C   0  0  0  0  0  0  0  0  0  0  0  0
    2.2577   -1.6193   -0.4616 H   0  0  0  0  0  0  0  0  0  0  0  0
    2.5047   -0.5021   -1.8264 H   0  0  0  0  0  0  0  0  0  0  0  0
    2.4145    0.1255   -0.1820 H   0  0  0  0  0  0  0  0  0  0  0  0
   -0.1825   -1.4775   -1.9910 C   0  0  0  0  0  0  0  0  0  0  0  0
   -0.7969   -2.2032   -1.4576 H   0  0  0  0  0  0  0  0  0  0  0  0
   -0.8497   -0.9209   -2.6571 H   0  0  0  0  0  0  0  0  0  0  0  0
    0.7763   -2.3223   -2.8392 C   0  0  0  0  0  0  0  0  0  0  0  0
    1.4115   -2.9494   -2.2064 H   0  0  0  0  0  0  0  0  0  0  0  0
    0.2027   -2.9803   -3.4991 H   0  0  0  0  0  0  0  0  0  0  0  0
    1.4077   -1.6836   -3.4640 H   0  0  0  0  0  0  0  0  0  0  0  0
   -0.2157    1.0396    0.9285 C   0  0  0  0  0  0  0  0  0  0  0  0
   -1.1948    1.7186    0.6393 O   0  0  0  0  0  0  0  0  0  0  0  0
    0.7616    1.5742    1.7479 N   0  0  0  0  0  0  0  0  0  0  0  0
    1.5332    0.9702    2.0160 H   0  0  0  0  0  0  0  0  0  0  0  0
    0.7034    2.9274    2.2866 C   0  0  0  0  0  0  0  0  0  0  0  0
   -0.1990    3.0611    2.8923 H   0  0  0  0  0  0  0  0  0  0  0  0
    1.5753    3.1201    2.9191 H   0  0  0  0  0  0  0  0  0  0  0  0
    0.6953    3.6624    1.4749 H   0  0  0  0  0  0  0  0  0  0  0  0
  1  2  1  0  0  0  0
  2  3  1  0  0  0  0
  2  4  1  0  0  0  0
  2  5  1  0  0  0  0
  5  6  2  0  0  0  0
  5  7  1  0  0  0  0
  7  8  1  0  0  0  0
  7  9  1  0  0  0  0
  9 10  1  0  0  0  0
  9 11  1  0  0  0  0
  9 24  1  0  0  0  0
 11 12  1  0  0  0  0
 11 13  1  0  0  0  0
 11 17  1  0  0  0  0
 13 14  1  0  0  0  0
 13 15  1  0  0  0  0
 13 16  1  0  0  0  0
 17 18  1  0  0  0  0
 17 19  1  0  0  0  0
 17 20  1  0  0  0  0
 20 21  1  0  0  0  0
 20 22  1  0  0  0  0
 20 23  1  0  0  0  0
 24 25  2  0  0  0  0
 24 26  1  0  0  0  0
 26 27  1  0  0  0  0
 26 28  1  0  0  0  0
 28 29  1  0  0  0  0
 28 30  1  0  0  0  0
 28 31  1  0  0  0  0
M  END
$$$$

  -OEChem-03222214053D

 31 30  0     1  0  0  0  0  0999 V2000
   -3.0853   -3.8174    1.7544 H   0  0  0  0  0  0  0  0  0  0  0  0
   -3.0920   -2.8199    1.3063 C   0  0  0  0  0  0  0  0  0  0  0  0
   -3.6364   -2.1407    1.9669 H   0  0  0  0  0  0  0  0  0  0  0  0
   -3.6047   -2.8694    0.3427 H   0  0  0  0  0  0  0  0  0  0  0  0
   -1.6716   -2.3243    1.1113 C   0  0  0  0  0  0  0  0  0  0  0  0
   -0.7290   -3.0338    1.4263 O   0  0  0  0  0  0  0  0  0  0  0  0
   -1.4539   -1.0663    0.5882 N   0  0  0  0  0  0  0  0  0  0  0  0
   -2.2690   -0.4770    0.4253 H   0  0  0  0  0  0  0  0  0  0  0  0
   -0.1355   -0.4268    0.4459 C   0  0  1  0  0  0  0  0  0  0  0  0
    0.5519   -0.9397    1.1265 H   0  0  0  0  0  0  0  0  0  0  0  0
    0.4844   -0.4798   -0.9914 C   0  0  1  0  0  0  0  0  0  0  0  0
    0.2976    0.5011   -1.4433 H   0  0  0  0  0  0  0  0  0  0  0  0
    2.0156   -0.5989   -0.8617 C   0  0  0  0  0  0  0  0  0  0  0  0
    2.2987   -1.5673   -0.4374 H   0  0  0  0  0  0  0  0  0  0  0  0
    2.4966   -0.4835   -1.8374 H   0  0  0  0  0  0  0  0  0  0  0  0
    2.4057    0.1874   -0.2087 H   0  0  0  0  0  0  0  0  0  0  0  0
   -0.1572   -1.4914   -2.0012 C   0  0  0  0  0  0  0  0  0  0  0  0
   -1.0154   -2.0098   -1.5743 H   0  0  0  0  0  0  0  0  0  0  0  0
   -0.5401   -0.9162   -2.8505 H   0  0  0  0  0  0  0  0  0  0  0  0
    0.7780   -2.5720   -2.5581 C   0  0  0  0  0  0  0  0  0  0  0  0
    1.1858   -3.1837   -1.7474 H   0  0  0  0  0  0  0  0  0  0  0  0
    0.2207   -3.2294   -3.2322 H   0  0  0  0  0  0  0  0  0  0  0  0
    1.6016   -2.1294   -3.1254 H   0  0  0  0  0  0  0  0  0  0  0  0
   -0.2212    1.0356    0.9311 C   0  0  0  0  0  0  0  0  0  0  0  0
   -1.1999    1.7177    0.6476 O   0  0  0  0  0  0  0  0  0  0  0  0
    0.7587    1.5648    1.7507 N   0  0  0  0  0  0  0  0  0  0  0  0
    1.5292    0.9581    2.0161 H   0  0  0  0  0  0  0  0  0  0  0  0
    0.7042    2.9167    2.2928 C   0  0  0  0  0  0  0  0  0  0  0  0
   -0.1883    3.0454    2.9141 H   0  0  0  0  0  0  0  0  0  0  0  0
    1.5861    3.1127    2.9101 H   0  0  0  0  0  0  0  0  0  0  0  0
    0.6789    3.6530    1.4826 H   0  0  0  0  0  0  0  0  0  0  0  0
  1  2  1  0  0  0  0
  2  3  1  0  0  0  0
  2  4  1  0  0  0  0
  2  5  1  0  0  0  0
  5  6  2  0  0  0  0
  5  7  1  0  0  0  0
  7  8  1  0  0  0  0
  7  9  1  0  0  0  0
  9 10  1  0  0  0  0
  9 11  1  0  0  0  0
  9 24  1  0  0  0  0
 11 12  1  0  0  0  0
 11 13  1  0  0  0  0
 11 17  1  0  0  0  0
 13 14  1  0  0  0  0
 13 15  1  0  0  0  0
 13 16  1  0  0  0  0
 17 18  1  0  0  0  0
 17 19  1  0  0  0  0
 17 20  1  0  0  0  0
 20 21  1  0  0  0  0
 20 22  1  0  0  0  0
 20 23  1  0  0  0  0
 24 25  2  0  0  0  0
 24 26  1  0  0  0  0
 26 27  1  0  0  0  0
 26 28  1  0  0  0  0
 28 29  1  0  0  0  0
 28 30  1  0  0  0  0
 28 31  1  0  0  0  0
M  END
$$$$

  -OEChem-03222214053D

 31 30  0     1  0  0  0  0  0999 V2000
   -3.0787   -3.8234    1.7299 H   0  0  0  0  0  0  0  0  0  0  0  0
   -3.0880   -2.8244    1.2853 C   0  0  0  0  0  0  0  0  0  0  0  0
   -3.6408   -2.1510    1.9445 H   0  0  0  0  0  0  0  0  0  0  0  0
   -3.5944   -2.8737    0.3184 H   0  0  0  0  0  0  0  0  0  0  0  0
   -1.6689   -2.3208    1.1015 C   0  0  0  0  0  0  0  0  0  0  0  0
   -0.7254   -3.0288    1.4173 O   0  0  0  0  0  0  0  0  0  0  0  0
   -1.4536   -1.0597    0.5850 N   0  0  0  0  0  0  0  0  0  0  0  0
   -2.2696   -0.4729    0.4185 H   0  0  0  0  0  0  0  0  0  0  0  0
   -0.1366   -0.4170    0.4506 C   0  0  1  0  0  0  0  0  0  0  0  0
    0.5493   -0.9303    1.1321 H   0  0  0  0  0  0  0  0  0  0  0  0
    0.4854   -0.4785   -0.9828 C   0  0  1  0  0  0  0  0  0  0  0  0
    0.2814    0.4975   -1.4385 H   0  0  0  0  0  0  0  0  0  0  0  0
    2.0173   -0.5878   -0.8769 C   0  0  0  0  0  0  0  0  0  0  0  0
    2.3123   -1.5318   -0.4076 H   0  0  0  0  0  0  0  0  0  0  0  0
    2.4742   -0.5284   -1.8695 H   0  0  0  0  0  0  0  0  0  0  0  0
    2.4177    0.2336   -0.2751 H   0  0  0  0  0  0  0  0  0  0  0  0
   -0.1546   -1.4958   -1.9813 C   0  0  0  0  0  0  0  0  0  0  0  0
   -1.1663   -1.7826   -1.6922 H   0  0  0  0  0  0  0  0  0  0  0  0
   -0.2551   -0.9866   -2.9454 H   0  0  0  0  0  0  0  0  0  0  0  0
    0.6631   -2.7674   -2.2369 C   0  0  0  0  0  0  0  0  0  0  0  0
    0.8441   -3.2984   -1.2967 H   0  0  0  0  0  0  0  0  0  0  0  0
    0.1111   -3.4339   -2.9065 H   0  0  0  0  0  0  0  0  0  0  0  0
    1.6228   -2.5366   -2.7079 H   0  0  0  0  0  0  0  0  0  0  0  0
   -0.2201    1.0437    0.9399 C   0  0  0  0  0  0  0  0  0  0  0  0
   -1.1969    1.7280    0.6560 O   0  0  0  0  0  0  0  0  0  0  0  0
    0.7588    1.5686    1.7635 N   0  0  0  0  0  0  0  0  0  0  0  0
    1.5276    0.9598    2.0291 H   0  0  0  0  0  0  0  0  0  0  0  0
    0.7076    2.9207    2.3057 C   0  0  0  0  0  0  0  0  0  0  0  0
   -0.1859    3.0515    2.9252 H   0  0  0  0  0  0  0  0  0  0  0  0
    1.5891    3.1140    2.9246 H   0  0  0  0  0  0  0  0  0  0  0  0
    0.6858    3.6574    1.4957 H   0  0  0  0  0  0  0  0  0  0  0  0
  1  2  1  0  0  0  0
  2  3  1  0  0  0  0
  2  4  1  0  0  0  0
  2  5  1  0  0  0  0
  5  6  2  0  0  0  0
  5  7  1  0  0  0  0
  7  8  1  0  0  0  0
  7  9  1  0  0  0  0
  9 10  1  0  0  0  0
  9 11  1  0  0  0  0
  9 24  1  0  0  0  0
 11 12  1  0  0  0  0
 11 13  1  0  0  0  0
 11 17  1  0  0  0  0
 13 14  1  0  0  0  0
 13 15  1  0  0  0  0
 13 16  1  0  0  0  0
 17 18  1  0  0  0  0
 17 19  1  0  0  0  0
 17 20  1  0  0  0  0
 20 21  1  0  0  0  0
 20 22  1  0  0  0  0
 20 23  1  0  0  0  0
 24 25  2  0  0  0  0
 24 26  1  0  0  0  0
 26 27  1  0  0  0  0
 26 28  1  0  0  0  0
 28 29  1  0  0  0  0
 28 30  1  0  0  0  0
 28 31  1  0  0  0  0
M  END
$$$$

  -OEChem-03222214053D

 31 30  0     1  0  0  0  0  0999 V2000
   -3.0684   -3.8437    1.6870 H   0  0  0  0  0  0  0  0  0  0  0  0
   -3.0722   -2.8453    1.2410 C   0  0  0  0  0  0  0  0  0  0  0  0
   -3.6674   -2.1803    1.8714 H   0  0  0  0  0  0  0  0  0  0  0  0
   -3.5292   -2.9035    0.2502 H   0  0  0  0  0  0  0  0  0  0  0  0
   -1.6546   -2.3186    1.1253 C   0  0  0  0  0  0  0  0  0  0  0  0
   -0.7183   -3.0017    1.5099 O   0  0  0  0  0  0  0  0  0  0  0  0
   -1.4356   -1.0611    0.6021 N   0  0  0  0  0  0  0  0  0  0  0  0
   -2.2522   -0.4916    0.3867 H   0  0  0  0  0  0  0  0  0  0  0  0
   -0.1207   -0.4125    0.4716 C   0  0  1  0  0  0  0  0  0  0  0  0
    0.5710   -0.9212    1.1506 H   0  0  0  0  0  0  0  0  0  0  0  0
    0.4858   -0.4673   -0.9679 C   0  0  1  0  0  0  0  0  0  0  0  0
    0.2875    0.5099   -1.4227 H   0  0  0  0  0  0  0  0  0  0  0  0
    2.0152   -0.6093   -0.8899 C   0  0  0  0  0  0  0  0  0  0  0  0
    2.2986   -1.5371   -0.3828 H   0  0  0  0  0  0  0  0  0  0  0  0
    2.4487   -0.6123   -1.8949 H   0  0  0  0  0  0  0  0  0  0  0  0
    2.4472    0.2302   -0.3367 H   0  0  0  0  0  0  0  0  0  0  0  0
   -0.1674   -1.4791   -1.9526 C   0  0  0  0  0  0  0  0  0  0  0  0
   -1.2453   -1.5544   -1.7919 H   0  0  0  0  0  0  0  0  0  0  0  0
   -0.0420   -1.0835   -2.9656 H   0  0  0  0  0  0  0  0  0  0  0  0
    0.4560   -2.8796   -1.9394 C   0  0  0  0  0  0  0  0  0  0  0  0
    0.4476   -3.2950   -0.9277 H   0  0  0  0  0  0  0  0  0  0  0  0
   -0.1164   -3.5467   -2.5908 H   0  0  0  0  0  0  0  0  0  0  0  0
    1.4876   -2.8565   -2.3024 H   0  0  0  0  0  0  0  0  0  0  0  0
   -0.2122    1.0510    0.9499 C   0  0  0  0  0  0  0  0  0  0  0  0
   -1.1848    1.7340    0.6483 O   0  0  0  0  0  0  0  0  0  0  0  0
    0.7611    1.5830    1.7754 N   0  0  0  0  0  0  0  0  0  0  0  0
    1.5244    0.9745    2.0566 H   0  0  0  0  0  0  0  0  0  0  0  0
    0.7052    2.9388    2.3075 C   0  0  0  0  0  0  0  0  0  0  0  0
   -0.1949    3.0754    2.9163 H   0  0  0  0  0  0  0  0  0  0  0  0
    1.5799    3.1351    2.9350 H   0  0  0  0  0  0  0  0  0  0  0  0
    0.6940    3.6700    1.4923 H   0  0  0  0  0  0  0  0  0  0  0  0
  1  2  1  0  0  0  0
  2  3  1  0  0  0  0
  2  4  1  0  0  0  0
  2  5  1  0  0  0  0
  5  6  2  0  0  0  0
  5  7  1  0  0  0  0
  7  8  1  0  0  0  0
  7  9  1  0  0  0  0
  9 10  1  0  0  0  0
  9 11  1  0  0  0  0
  9 24  1  0  0  0  0
 11 12  1  0  0  0  0
 11 13  1  0  0  0  0
 11 17  1  0  0  0  0
 13 14  1  0  0  0  0
 13 15  1  0  0  0  0
 13 16  1  0  0  0  0
 17 18  1  0  0  0  0
 17 19  1  0  0  0  0
 17 20  1  0  0  0  0
 20 21  1  0  0  0  0
 20 22  1  0  0  0  0
 20 23  1  0  0  0  0
 24 25  2  0  0  0  0
 24 26  1  0  0  0  0
 26 27  1  0  0  0  0
 26 28  1  0  0  0  0
 28 29  1  0  0  0  0
 28 30  1  0  0  0  0
 28 31  1  0  0  0  0
M  END
$$$$

  -OEChem-03222214053D

 31 30  0     1  0  0  0  0  0999 V2000
   -3.0710   -3.8553    1.6971 H   0  0  0  0  0  0  0  0  0  0  0  0
   -3.0610   -2.8647    1.2341 C   0  0  0  0  0  0  0  0  0  0  0  0
   -3.7071   -2.1989    1.8113 H   0  0  0  0  0  0  0  0  0  0  0  0
   -3.4501   -2.9479    0.2165 H   0  0  0  0  0  0  0  0  0  0  0  0
   -1.6474   -2.3153    1.2034 C   0  0  0  0  0  0  0  0  0  0  0  0
   -0.7353   -2.9522    1.7074 O   0  0  0  0  0  0  0  0  0  0  0  0
   -1.4119   -1.0733    0.6517 N   0  0  0  0  0  0  0  0  0  0  0  0
   -2.2208   -0.5348    0.3473 H   0  0  0  0  0  0  0  0  0  0  0  0
   -0.0957   -0.4268    0.5135 C   0  0  1  0  0  0  0  0  0  0  0  0
    0.6064   -0.9251    1.1894 H   0  0  0  0  0  0  0  0  0  0  0  0
    0.4887   -0.4592   -0.9387 C   0  0  1  0  0  0  0  0  0  0  0  0
    0.3151    0.5294   -1.3794 H   0  0  0  0  0  0  0  0  0  0  0  0
    2.0120   -0.6567   -0.8783 C   0  0  0  0  0  0  0  0  0  0  0  0
    2.2671   -1.6023   -0.3893 H   0  0  0  0  0  0  0  0  0  0  0  0
    2.4361   -0.6608   -1.8873 H   0  0  0  0  0  0  0  0  0  0  0  0
    2.4789    0.1580   -0.3161 H   0  0  0  0  0  0  0  0  0  0  0  0
   -0.1663   -1.4421   -1.9434 C   0  0  0  0  0  0  0  0  0  0  0  0
   -1.2540   -1.3311   -1.9057 H   0  0  0  0  0  0  0  0  0  0  0  0
    0.1413   -1.1570   -2.9548 H   0  0  0  0  0  0  0  0  0  0  0  0
    0.1961   -2.9192   -1.7441 C   0  0  0  0  0  0  0  0  0  0  0  0
    0.0264   -3.2402   -0.7169 H   0  0  0  0  0  0  0  0  0  0  0  0
   -0.4137   -3.5428   -2.4046 H   0  0  0  0  0  0  0  0  0  0  0  0
    1.2478   -3.0940   -1.9888 H   0  0  0  0  0  0  0  0  0  0  0  0
   -0.2052    1.0465    0.9599 C   0  0  0  0  0  0  0  0  0  0  0  0
   -1.1729    1.7208    0.6238 O   0  0  0  0  0  0  0  0  0  0  0  0
    0.7571    1.6030    1.7820 N   0  0  0  0  0  0  0  0  0  0  0  0
    1.5137    1.0012    2.0941 H   0  0  0  0  0  0  0  0  0  0  0  0
    0.6895    2.9707    2.2818 C   0  0  0  0  0  0  0  0  0  0  0  0
   -0.2166    3.1166    2.8793 H   0  0  0  0  0  0  0  0  0  0  0  0
    1.5578    3.1860    2.9119 H   0  0  0  0  0  0  0  0  0  0  0  0
    0.6815    3.6827    1.4497 H   0  0  0  0  0  0  0  0  0  0  0  0
  1  2  1  0  0  0  0
  2  3  1  0  0  0  0
  2  4  1  0  0  0  0
  2  5  1  0  0  0  0
  5  6  2  0  0  0  0
  5  7  1  0  0  0  0
  7  8  1  0  0  0  0
  7  9  1  0  0  0  0
  9 10  1  0  0  0  0
  9 11  1  0  0  0  0
  9 24  1  0  0  0  0
 11 12  1  0  0  0  0
 11 13  1  0  0  0  0
 11 17  1  0  0  0  0
 13 14  1  0  0  0  0
 13 15  1  0  0  0  0
 13 16  1  0  0  0  0
 17 18  1  0  0  0  0
 17 19  1  0  0  0  0
 17 20  1  0  0  0  0
 20 21  1  0  0  0  0
 20 22  1  0  0  0  0
 20 23  1  0  0  0  0
 24 25  2  0  0  0  0
 24 26  1  0  0  0  0
 26 27  1  0  0  0  0
 26 28  1  0  0  0  0
 28 29  1  0  0  0  0
 28 30  1  0  0  0  0
 28 31  1  0  0  0  0
M  END
$$$$

  -OEChem-03222214053D

 31 30  0     1  0  0  0  0  0999 V2000
   -3.0582   -3.8115    1.8668 H   0  0  0  0  0  0  0  0  0  0  0  0
   -3.0575   -2.8296    1.3855 C   0  0  0  0  0  0  0  0  0  0  0  0
   -3.6487   -2.1392    1.9920 H   0  0  0  0  0  0  0  0  0  0  0  0
   -3.5159   -2.9211    0.3979 H   0  0  0  0  0  0  0  0  0  0  0  0
   -1.6374   -2.3137    1.2506 C   0  0  0  0  0  0  0  0  0  0  0  0
   -0.7042   -2.9774    1.6757 O   0  0  0  0  0  0  0  0  0  0  0  0
   -1.4126   -1.0788    0.6785 N   0  0  0  0  0  0  0  0  0  0  0  0
   -2.2275   -0.5189    0.4329 H   0  0  0  0  0  0  0  0  0  0  0  0
   -0.0973   -0.4386    0.5195 C   0  0  1  0  0  0  0  0  0  0  0  0
    0.6095   -0.9273    1.1980 H   0  0  0  0  0  0  0  0  0  0  0  0
    0.4867   -0.4644   -0.9333 C   0  0  1  0  0  0  0  0  0  0  0  0
    0.3345    0.5313   -1.3657 H   0  0  0  0  0  0  0  0  0  0  0  0
    2.0076   -0.6815   -0.8546 C   0  0  0  0  0  0  0  0  0  0  0  0
    2.2457   -1.6342   -0.3719 H   0  0  0  0  0  0  0  0  0  0  0  0
    2.4484   -0.6805   -1.8563 H   0  0  0  0  0  0  0  0  0  0  0  0
    2.4763    0.1218   -0.2780 H   0  0  0  0  0  0  0  0  0  0  0  0
   -0.1345   -1.4251   -1.9817 C   0  0  0  0  0  0  0  0  0  0  0  0
   -1.1773   -1.1373   -2.1501 H   0  0  0  0  0  0  0  0  0  0  0  0
    0.3928   -1.2677   -2.9283 H   0  0  0  0  0  0  0  0  0  0  0  0
   -0.0944   -2.9274   -1.6718 C   0  0  0  0  0  0  0  0  0  0  0  0
   -0.9177   -3.2246   -1.0249 H   0  0  0  0  0  0  0  0  0  0  0  0
   -0.1959   -3.4924   -2.6032 H   0  0  0  0  0  0  0  0  0  0  0  0
    0.8490   -3.2156   -1.2013 H   0  0  0  0  0  0  0  0  0  0  0  0
   -0.2143    1.0390    0.9519 C   0  0  0  0  0  0  0  0  0  0  0  0
   -1.1952    1.7002    0.6275 O   0  0  0  0  0  0  0  0  0  0  0  0
    0.7499    1.6100    1.7617 N   0  0  0  0  0  0  0  0  0  0  0  0
    1.5143    1.0172    2.0720 H   0  0  0  0  0  0  0  0  0  0  0  0
    0.6703    2.9782    2.2584 C   0  0  0  0  0  0  0  0  0  0  0  0
   -0.2299    3.1137    2.8672 H   0  0  0  0  0  0  0  0  0  0  0  0
    1.5435    3.2072    2.8768 H   0  0  0  0  0  0  0  0  0  0  0  0
    0.6422    3.6873    1.4244 H   0  0  0  0  0  0  0  0  0  0  0  0
  1  2  1  0  0  0  0
  2  3  1  0  0  0  0
  2  4  1  0  0  0  0
  2  5  1  0  0  0  0
  5  6  2  0  0  0  0
  5  7  1  0  0  0  0
  7  8  1  0  0  0  0
  7  9  1  0  0  0  0
  9 10  1  0  0  0  0
  9 11  1  0  0  0  0
  9 24  1  0  0  0  0
 11 12  1  0  0  0  0
 11 13  1  0  0  0  0
 11 17  1  0  0  0  0
 13 14  1  0  0  0  0
 13 15  1  0  0  0  0
 13 16  1  0  0  0  0
 17 18  1  0  0  0  0
 17 19  1  0  0  0  0
 17 20  1  0  0  0  0
 20 21  1  0  0  0  0
 20 22  1  0  0  0  0
 20 23  1  0  0  0  0
 24 25  2  0  0  0  0
 24 26  1  0  0  0  0
 26 27  1  0  0  0  0
 26 28  1  0  0  0  0
 28 29  1  0  0  0  0
 28 30  1  0  0  0  0
 28 31  1  0  0  0  0
M  END
$$$$

  -OEChem-03222214053D

 31 30  0     1  0  0  0  0  0999 V2000
   -3.0418   -3.8297    1.8818 H   0  0  0  0  0  0  0  0  0  0  0  0
   -3.0518   -2.8298    1.4390 C   0  0  0  0  0  0  0  0  0  0  0  0
   -3.6210   -2.1613    2.0895 H   0  0  0  0  0  0  0  0  0  0  0  0
   -3.5413   -2.8819    0.4635 H   0  0  0  0  0  0  0  0  0  0  0  0
   -1.6343   -2.3137    1.2799 C   0  0  0  0  0  0  0  0  0  0  0  0
   -0.6950   -2.9770    1.6916 O   0  0  0  0  0  0  0  0  0  0  0  0
   -1.4192   -1.0794    0.7009 N   0  0  0  0  0  0  0  0  0  0  0  0
   -2.2378   -0.5201    0.4663 H   0  0  0  0  0  0  0  0  0  0  0  0
   -0.1069   -0.4370    0.5284 C   0  0  1  0  0  0  0  0  0  0  0  0
    0.6022   -0.9198    1.2088 H   0  0  0  0  0  0  0  0  0  0  0  0
    0.4848   -0.4517   -0.9253 C   0  0  1  0  0  0  0  0  0  0  0  0
    0.3672    0.5539   -1.3458 H   0  0  0  0  0  0  0  0  0  0  0  0
    1.9971   -0.7154   -0.8170 C   0  0  0  0  0  0  0  0  0  0  0  0
    2.1892   -1.7226   -0.4336 H   0  0  0  0  0  0  0  0  0  0  0  0
    2.4767   -0.6201   -1.7962 H   0  0  0  0  0  0  0  0  0  0  0  0
    2.4657    0.0081   -0.1427 H   0  0  0  0  0  0  0  0  0  0  0  0
   -0.1018   -1.3971   -2.0105 C   0  0  0  0  0  0  0  0  0  0  0  0
   -1.0437   -0.9663   -2.3650 H   0  0  0  0  0  0  0  0  0  0  0  0
    0.5810   -1.4021   -2.8665 H   0  0  0  0  0  0  0  0  0  0  0  0
   -0.3801   -2.8511   -1.6203 C   0  0  0  0  0  0  0  0  0  0  0  0
   -0.3108   -3.4885   -2.5068 H   0  0  0  0  0  0  0  0  0  0  0  0
   -1.3894   -2.9625   -1.2214 H   0  0  0  0  0  0  0  0  0  0  0  0
    0.3466   -3.2084   -0.8851 H   0  0  0  0  0  0  0  0  0  0  0  0
   -0.2330    1.0407    0.9589 C   0  0  0  0  0  0  0  0  0  0  0  0
   -1.2230    1.6920    0.6421 O   0  0  0  0  0  0  0  0  0  0  0  0
    0.7315    1.6225    1.7609 N   0  0  0  0  0  0  0  0  0  0  0  0
    1.5051    1.0386    2.0653 H   0  0  0  0  0  0  0  0  0  0  0  0
    0.6382    2.9887    2.2605 C   0  0  0  0  0  0  0  0  0  0  0  0
   -0.2604    3.1117    2.8741 H   0  0  0  0  0  0  0  0  0  0  0  0
    1.5116    3.2275    2.8747 H   0  0  0  0  0  0  0  0  0  0  0  0
    0.5969    3.6991    1.4281 H   0  0  0  0  0  0  0  0  0  0  0  0
  1  2  1  0  0  0  0
  2  3  1  0  0  0  0
  2  4  1  0  0  0  0
  2  5  1  0  0  0  0
  5  6  2  0  0  0  0
  5  7  1  0  0  0  0
  7  8  1  0  0  0  0
  7  9  1  0  0  0  0
  9 10  1  0  0  0  0
  9 11  1  0  0  0  0
  9 24  1  0  0  0  0
 11 12  1  0  0  0  0
 11 13  1  0  0  0  0
 11 17  1  0  0  0  0
 13 14  1  0  0  0  0
 13 15  1  0  0  0  0
 13 16  1  0  0  0  0
 17 18  1  0  0  0  0
 17 19  1  0  0  0  0
 17 20  1  0  0  0  0
 20 21  1  0  0  0  0
 20 22  1  0  0  0  0
 20 23  1  0  0  0  0
 24 25  2  0  0  0  0
 24 26  1  0  0  0  0
 26 27  1  0  0  0  0
 26 28  1  0  0  0  0
 28 29  1  0  0  0  0
 28 30  1  0  0  0  0
 28 31  1  0  0  0  0
M  END
$$$$

  -OEChem-03222214053D

 31 30  0     1  0  0  0  0  0999 V2000
   -3.0541   -3.8018    1.9723 H   0  0  0  0  0  0  0  0  0  0  0  0
   -3.0648   -2.8021    1.5292 C   0  0  0  0  0  0  0  0  0  0  0  0
   -3.6079   -2.1266    2.1945 H   0  0  0  0  0  0  0  0  0  0  0  0
   -3.5816   -2.8493    0.5678 H   0  0  0  0  0  0  0  0  0  0  0  0
   -1.6461   -2.3026    1.3313 C   0  0  0  0  0  0  0  0  0  0  0  0
   -0.7042   -2.9728    1.7255 O   0  0  0  0  0  0  0  0  0  0  0  0
   -1.4327   -1.0714    0.7440 N   0  0  0  0  0  0  0  0  0  0  0  0
   -2.2508   -0.5040    0.5279 H   0  0  0  0  0  0  0  0  0  0  0  0
   -0.1192   -0.4415    0.5439 C   0  0  1  0  0  0  0  0  0  0  0  0
    0.5922   -0.9253    1.2212 H   0  0  0  0  0  0  0  0  0  0  0  0
    0.4713   -0.4553   -0.9151 C   0  0  1  0  0  0  0  0  0  0  0  0
    0.3759    0.5584   -1.3215 H   0  0  0  0  0  0  0  0  0  0  0  0
    1.9787   -0.7436   -0.7892 C   0  0  0  0  0  0  0  0  0  0  0  0
    2.1444   -1.7740   -0.4575 H   0  0  0  0  0  0  0  0  0  0  0  0
    2.4823   -0.6027   -1.7509 H   0  0  0  0  0  0  0  0  0  0  0  0
    2.4446   -0.0650   -0.0681 H   0  0  0  0  0  0  0  0  0  0  0  0
   -0.0907   -1.3805   -2.0394 C   0  0  0  0  0  0  0  0  0  0  0  0
   -0.8690   -0.8191   -2.5663 H   0  0  0  0  0  0  0  0  0  0  0  0
    0.7018   -1.5682   -2.7710 H   0  0  0  0  0  0  0  0  0  0  0  0
   -0.7036   -2.7298   -1.6675 C   0  0  0  0  0  0  0  0  0  0  0  0
   -1.7265   -2.6112   -1.3056 H   0  0  0  0  0  0  0  0  0  0  0  0
   -0.7466   -3.3683   -2.5551 H   0  0  0  0  0  0  0  0  0  0  0  0
   -0.0951   -3.2368   -0.9132 H   0  0  0  0  0  0  0  0  0  0  0  0
   -0.2359    1.0373    0.9749 C   0  0  0  0  0  0  0  0  0  0  0  0
   -1.2280    1.6916    0.6706 O   0  0  0  0  0  0  0  0  0  0  0  0
    0.7430    1.6191    1.7591 N   0  0  0  0  0  0  0  0  0  0  0  0
    1.5227    1.0359    2.0486 H   0  0  0  0  0  0  0  0  0  0  0  0
    0.6685    2.9919    2.2435 C   0  0  0  0  0  0  0  0  0  0  0  0
   -0.2233    3.1325    2.8633 H   0  0  0  0  0  0  0  0  0  0  0  0
    1.5498    3.2285    2.8475 H   0  0  0  0  0  0  0  0  0  0  0  0
    0.6273    3.6923    1.4026 H   0  0  0  0  0  0  0  0  0  0  0  0
  1  2  1  0  0  0  0
  2  3  1  0  0  0  0
  2  4  1  0  0  0  0
  2  5  1  0  0  0  0
  5  6  2  0  0  0  0
  5  7  1  0  0  0  0
  7  8  1  0  0  0  0
  7  9  1  0  0  0  0
  9 10  1  0  0  0  0
  9 11  1  0  0  0  0
  9 24  1  0  0  0  0
 11 12  1  0  0  0  0
 11 13  1  0  0  0  0
 11 17  1  0  0  0  0
 13 14  1  0  0  0  0
 13 15  1  0  0  0  0
 13 16  1  0  0  0  0
 17 18  1  0  0  0  0
 17 19  1  0  0  0  0
 17 20  1  0  0  0  0
 20 21  1  0  0  0  0
 20 22  1  0  0  0  0
 20 23  1  0  0  0  0
 24 25  2  0  0  0  0
 24 26  1  0  0  0  0
 26 27  1  0  0  0  0
 26 28  1  0  0  0  0
 28 29  1  0  0  0  0
 28 30  1  0  0  0  0
 28 31  1  0  0  0  0
M  END
$$$$

  -OEChem-03222214053D

 31 30  0     1  0  0  0  0  0999 V2000
   -3.0438   -3.7788    2.0750 H   0  0  0  0  0  0  0  0  0  0  0  0
   -3.0631   -2.7915    1.6051 C   0  0  0  0  0  0  0  0  0  0  0  0
   -3.5987   -2.1001    2.2601 H   0  0  0  0  0  0  0  0  0  0  0  0
   -3.5936   -2.8655    0.6529 H   0  0  0  0  0  0  0  0  0  0  0  0
   -1.6484   -2.2947    1.3737 C   0  0  0  0  0  0  0  0  0  0  0  0
   -0.6989   -2.9701    1.7400 O   0  0  0  0  0  0  0  0  0  0  0  0
   -1.4445   -1.0646    0.7807 N   0  0  0  0  0  0  0  0  0  0  0  0
   -2.2653   -0.4945    0.5829 H   0  0  0  0  0  0  0  0  0  0  0  0
   -0.1346   -0.4398    0.5472 C   0  0  1  0  0  0  0  0  0  0  0  0
    0.5848   -0.9231    1.2162 H   0  0  0  0  0  0  0  0  0  0  0  0
    0.4468   -0.4634   -0.9176 C   0  0  1  0  0  0  0  0  0  0  0  0
    0.3321    0.5490   -1.3223 H   0  0  0  0  0  0  0  0  0  0  0  0
    1.9618   -0.7149   -0.7973 C   0  0  0  0  0  0  0  0  0  0  0  0
    2.1535   -1.7379   -0.4566 H   0  0  0  0  0  0  0  0  0  0  0  0
    2.4558   -0.5709   -1.7635 H   0  0  0  0  0  0  0  0  0  0  0  0
    2.4162   -0.0190   -0.0855 H   0  0  0  0  0  0  0  0  0  0  0  0
   -0.1025   -1.3889   -2.0553 C   0  0  0  0  0  0  0  0  0  0  0  0
   -0.6667   -0.7501   -2.7428 H   0  0  0  0  0  0  0  0  0  0  0  0
    0.7398   -1.7868   -2.6303 H   0  0  0  0  0  0  0  0  0  0  0  0
   -1.0109   -2.5716   -1.7283 C   0  0  0  0  0  0  0  0  0  0  0  0
   -1.9959   -2.2342   -1.3982 H   0  0  0  0  0  0  0  0  0  0  0  0
   -1.1589   -3.1779   -2.6269 H   0  0  0  0  0  0  0  0  0  0  0  0
   -0.5529   -3.2076   -0.9662 H   0  0  0  0  0  0  0  0  0  0  0  0
   -0.2370    1.0395    0.9803 C   0  0  0  0  0  0  0  0  0  0  0  0
   -1.2350    1.6956    0.7004 O   0  0  0  0  0  0  0  0  0  0  0  0
    0.7623    1.6195    1.7397 N   0  0  0  0  0  0  0  0  0  0  0  0
    1.5472    1.0343    2.0107 H   0  0  0  0  0  0  0  0  0  0  0  0
    0.6982    2.9893    2.2335 C   0  0  0  0  0  0  0  0  0  0  0  0
   -0.1622    3.1171    2.8987 H   0  0  0  0  0  0  0  0  0  0  0  0
    1.6070    3.2329    2.7921 H   0  0  0  0  0  0  0  0  0  0  0  0
    0.6067    3.6930    1.3995 H   0  0  0  0  0  0  0  0  0  0  0  0
  1  2  1  0  0  0  0
  2  3  1  0  0  0  0
  2  4  1  0  0  0  0
  2  5  1  0  0  0  0
  5  6  2  0  0  0  0
  5  7  1  0  0  0  0
  7  8  1  0  0  0  0
  7  9  1  0  0  0  0
  9 10  1  0  0  0  0
  9 11  1  0  0  0  0
  9 24  1  0  0  0  0
 11 12  1  0  0  0  0
 11 13  1  0  0  0  0
 11 17  1  0  0  0  0
 13 14  1  0  0  0  0
 13 15  1  0  0  0  0
 13 16  1  0  0  0  0
 17 18  1  0  0  0  0
 17 19  1  0  0  0  0
 17 20  1  0  0  0  0
 20 21  1  0  0  0  0
 20 22  1  0  0  0  0
 20 23  1  0  0  0  0
 24 25  2  0  0  0  0
 24 26  1  0  0  0  0
 26 27  1  0  0  0  0
 26 28  1  0  0  0  0
 28 29  1  0  0  0  0
 28 30  1  0  0  0  0
 28 31  1  0  0  0  0
M  END
$$$$

  -OEChem-03222214053D

 31 30  0     1  0  0  0  0  0999 V2000
   -3.0497   -3.7789    2.0813 H   0  0  0  0  0  0  0  0  0  0  0  0
   -3.0724   -2.7936    1.6074 C   0  0  0  0  0  0  0  0  0  0  0  0
   -3.6055   -2.0999    2.2620 H   0  0  0  0  0  0  0  0  0  0  0  0
   -3.6067   -2.8717    0.6575 H   0  0  0  0  0  0  0  0  0  0  0  0
   -1.6595   -2.2967    1.3666 C   0  0  0  0  0  0  0  0  0  0  0  0
   -0.7069   -2.9826    1.7038 O   0  0  0  0  0  0  0  0  0  0  0  0
   -1.4599   -1.0618    0.7832 N   0  0  0  0  0  0  0  0  0  0  0  0
   -2.2814   -0.4861    0.6048 H   0  0  0  0  0  0  0  0  0  0  0  0
   -0.1516   -0.4362    0.5469 C   0  0  1  0  0  0  0  0  0  0  0  0
    0.5674   -0.9233    1.2133 H   0  0  0  0  0  0  0  0  0  0  0  0
    0.4384   -0.4668   -0.9142 C   0  0  1  0  0  0  0  0  0  0  0  0
    0.2859    0.5413   -1.3171 H   0  0  0  0  0  0  0  0  0  0  0  0
    1.9608   -0.6637   -0.8025 C   0  0  0  0  0  0  0  0  0  0  0  0
    2.1903   -1.6682   -0.4316 H   0  0  0  0  0  0  0  0  0  0  0  0
    2.4377   -0.5354   -1.7795 H   0  0  0  0  0  0  0  0  0  0  0  0
    2.3982    0.0693   -0.1181 H   0  0  0  0  0  0  0  0  0  0  0  0
   -0.0901   -1.3951   -2.0624 C   0  0  0  0  0  0  0  0  0  0  0  0
   -0.3844   -0.7442   -2.8924 H   0  0  0  0  0  0  0  0  0  0  0  0
    0.7394   -2.0074   -2.4313 H   0  0  0  0  0  0  0  0  0  0  0  0
   -1.2495   -2.3609   -1.8298 C   0  0  0  0  0  0  0  0  0  0  0  0
   -2.1584   -1.8248   -1.5443 H   0  0  0  0  0  0  0  0  0  0  0  0
   -1.4629   -2.9041   -2.7554 H   0  0  0  0  0  0  0  0  0  0  0  0
   -0.9880   -3.0978   -1.0669 H   0  0  0  0  0  0  0  0  0  0  0  0
   -0.2483    1.0401    0.9923 C   0  0  0  0  0  0  0  0  0  0  0  0
   -1.2502    1.6976    0.7305 O   0  0  0  0  0  0  0  0  0  0  0  0
    0.7565    1.6133    1.7498 N   0  0  0  0  0  0  0  0  0  0  0  0
    1.5425    1.0253    2.0113 H   0  0  0  0  0  0  0  0  0  0  0  0
    0.6921    2.9756    2.2641 C   0  0  0  0  0  0  0  0  0  0  0  0
   -0.1640    3.0911    2.9371 H   0  0  0  0  0  0  0  0  0  0  0  0
    1.6039    3.2140    2.8202 H   0  0  0  0  0  0  0  0  0  0  0  0
    0.5927    3.6912    1.4411 H   0  0  0  0  0  0  0  0  0  0  0  0
  1  2  1  0  0  0  0
  2  3  1  0  0  0  0
  2  4  1  0  0  0  0
  2  5  1  0  0  0  0
  5  6  2  0  0  0  0
  5  7  1  0  0  0  0
  7  8  1  0  0  0  0
  7  9  1  0  0  0  0
  9 10  1  0  0  0  0
  9 11  1  0  0  0  0
  9 24  1  0  0  0  0
 11 12  1  0  0  0  0
 11 13  1  0  0  0  0
 11 17  1  0  0  0  0
 13 14  1  0  0  0  0
 13 15  1  0  0  0  0
 13 16  1  0  0  0  0
 17 18  1  0  0  0  0
 17 19  1  0  0  0  0
 17 20  1  0  0  0  0
 20 21  1  0  0  0  0
 20 22  1  0  0  0  0
 20 23  1  0  0  0  0
 24 25  2  0  0  0  0
 24 26  1  0  0  0  0
 26 27  1  0  0  0  0
 26 28  1  0  0  0  0
 28 29  1  0  0  0  0
 28 30  1  0  0  0  0
 28 31  1  0  0  0  0
M  END
$$$$

  -OEChem-03222214053D

 31 30  0     1  0  0  0  0  0999 V2000
   -3.0941   -3.7717    2.0295 H   0  0  0  0  0  0  0  0  0  0  0  0
   -3.1070   -2.7781    1.5729 C   0  0  0  0  0  0  0  0  0  0  0  0
   -3.6169   -2.0865    2.2480 H   0  0  0  0  0  0  0  0  0  0  0  0
   -3.6580   -2.8304    0.6309 H   0  0  0  0  0  0  0  0  0  0  0  0
   -1.6898   -2.3009    1.3173 C   0  0  0  0  0  0  0  0  0  0  0  0
   -0.7434   -3.0118    1.6178 O   0  0  0  0  0  0  0  0  0  0  0  0
   -1.4799   -1.0572    0.7569 N   0  0  0  0  0  0  0  0  0  0  0  0
   -2.2948   -0.4649    0.6044 H   0  0  0  0  0  0  0  0  0  0  0  0
   -0.1648   -0.4395    0.5403 C   0  0  1  0  0  0  0  0  0  0  0  0
    0.5435   -0.9429    1.2060 H   0  0  0  0  0  0  0  0  0  0  0  0
    0.4409   -0.4660   -0.9124 C   0  0  1  0  0  0  0  0  0  0  0  0
    0.2765    0.5427   -1.3090 H   0  0  0  0  0  0  0  0  0  0  0  0
    1.9636   -0.6539   -0.8049 C   0  0  0  0  0  0  0  0  0  0  0  0
    2.2008   -1.6502   -0.4169 H   0  0  0  0  0  0  0  0  0  0  0  0
    2.4333   -0.5427   -1.7875 H   0  0  0  0  0  0  0  0  0  0  0  0
    2.4004    0.0936   -0.1359 H   0  0  0  0  0  0  0  0  0  0  0  0
   -0.0828   -1.3826   -2.0678 C   0  0  0  0  0  0  0  0  0  0  0  0
   -0.0917   -0.7783   -2.9811 H   0  0  0  0  0  0  0  0  0  0  0  0
    0.6446   -2.1851   -2.2307 H   0  0  0  0  0  0  0  0  0  0  0  0
   -1.4413   -2.0739   -1.9666 C   0  0  0  0  0  0  0  0  0  0  0  0
   -2.2280   -1.3559   -1.7177 H   0  0  0  0  0  0  0  0  0  0  0  0
   -1.4140   -2.8755   -1.2260 H   0  0  0  0  0  0  0  0  0  0  0  0
   -1.6925   -2.5270   -2.9304 H   0  0  0  0  0  0  0  0  0  0  0  0
   -0.2465    1.0304    1.0089 C   0  0  0  0  0  0  0  0  0  0  0  0
   -1.2408    1.7021    0.7548 O   0  0  0  0  0  0  0  0  0  0  0  0
    0.7602    1.5801    1.7815 N   0  0  0  0  0  0  0  0  0  0  0  0
    1.5448    0.9832    2.0270 H   0  0  0  0  0  0  0  0  0  0  0  0
    0.7138    2.9389    2.3073 C   0  0  0  0  0  0  0  0  0  0  0  0
   -0.1568    3.0682    2.9589 H   0  0  0  0  0  0  0  0  0  0  0  0
    1.6158    3.1504    2.8896 H   0  0  0  0  0  0  0  0  0  0  0  0
    0.6525    3.6639    1.4887 H   0  0  0  0  0  0  0  0  0  0  0  0
  1  2  1  0  0  0  0
  2  3  1  0  0  0  0
  2  4  1  0  0  0  0
  2  5  1  0  0  0  0
  5  6  2  0  0  0  0
  5  7  1  0  0  0  0
  7  8  1  0  0  0  0
  7  9  1  0  0  0  0
  9 10  1  0  0  0  0
  9 11  1  0  0  0  0
  9 24  1  0  0  0  0
 11 12  1  0  0  0  0
 11 13  1  0  0  0  0
 11 17  1  0  0  0  0
 13 14  1  0  0  0  0
 13 15  1  0  0  0  0
 13 16  1  0  0  0  0
 17 18  1  0  0  0  0
 17 19  1  0  0  0  0
 17 20  1  0  0  0  0
 20 21  1  0  0  0  0
 20 22  1  0  0  0  0
 20 23  1  0  0  0  0
 24 25  2  0  0  0  0
 24 26  1  0  0  0  0
 26 27  1  0  0  0  0
 26 28  1  0  0  0  0
 28 29  1  0  0  0  0
 28 30  1  0  0  0  0
 28 31  1  0  0  0  0
M  END
$$$$

  -OEChem-03222214053D

 31 30  0     1  0  0  0  0  0999 V2000
   -3.0447   -3.7966    2.0091 H   0  0  0  0  0  0  0  0  0  0  0  0
   -3.0709   -2.7916    1.5785 C   0  0  0  0  0  0  0  0  0  0  0  0
   -3.5637   -2.1184    2.2843 H   0  0  0  0  0  0  0  0  0  0  0  0
   -3.6470   -2.8208    0.6505 H   0  0  0  0  0  0  0  0  0  0  0  0
   -1.6615   -2.3055    1.2972 C   0  0  0  0  0  0  0  0  0  0  0  0
   -0.7060   -3.0177    1.5640 O   0  0  0  0  0  0  0  0  0  0  0  0
   -1.4698   -1.0549    0.7462 N   0  0  0  0  0  0  0  0  0  0  0  0
   -2.2899   -0.4635    0.6203 H   0  0  0  0  0  0  0  0  0  0  0  0
   -0.1619   -0.4278    0.5181 C   0  0  1  0  0  0  0  0  0  0  0  0
    0.5572   -0.9325    1.1714 H   0  0  0  0  0  0  0  0  0  0  0  0
    0.4173   -0.4593   -0.9421 C   0  0  1  0  0  0  0  0  0  0  0  0
    0.2424    0.5452   -1.3445 H   0  0  0  0  0  0  0  0  0  0  0  0
    1.9398   -0.6567   -0.8726 C   0  0  0  0  0  0  0  0  0  0  0  0
    2.1807   -1.6483   -0.4754 H   0  0  0  0  0  0  0  0  0  0  0  0
    2.3830   -0.5651   -1.8693 H   0  0  0  0  0  0  0  0  0  0  0  0
    2.3985    0.0986   -0.2274 H   0  0  0  0  0  0  0  0  0  0  0  0
   -0.1382   -1.3915   -2.0633 C   0  0  0  0  0  0  0  0  0  0  0  0
    0.0694   -0.9046   -3.0219 H   0  0  0  0  0  0  0  0  0  0  0  0
    0.4312   -2.3270   -2.0509 H   0  0  0  0  0  0  0  0  0  0  0  0
   -1.6152   -1.7894   -2.0575 C   0  0  0  0  0  0  0  0  0  0  0  0
   -2.2483   -0.9243   -1.8376 H   0  0  0  0  0  0  0  0  0  0  0  0
   -1.8941   -2.1741   -3.0432 H   0  0  0  0  0  0  0  0  0  0  0  0
   -1.8063   -2.5838   -1.3339 H   0  0  0  0  0  0  0  0  0  0  0  0
   -0.2347    1.0380    0.9982 C   0  0  0  0  0  0  0  0  0  0  0  0
   -1.2336    1.7108    0.7662 O   0  0  0  0  0  0  0  0  0  0  0  0
    0.7842    1.5813    1.7589 N   0  0  0  0  0  0  0  0  0  0  0  0
    1.5743    0.9838    1.9841 H   0  0  0  0  0  0  0  0  0  0  0  0
    0.7459    2.9359    2.2962 C   0  0  0  0  0  0  0  0  0  0  0  0
   -0.1119    3.0583    2.9661 H   0  0  0  0  0  0  0  0  0  0  0  0
    1.6591    3.1447    2.8619 H   0  0  0  0  0  0  0  0  0  0  0  0
    0.6670    3.6672    1.4847 H   0  0  0  0  0  0  0  0  0  0  0  0
  1  2  1  0  0  0  0
  2  3  1  0  0  0  0
  2  4  1  0  0  0  0
  2  5  1  0  0  0  0
  5  6  2  0  0  0  0
  5  7  1  0  0  0  0
  7  8  1  0  0  0  0
  7  9  1  0  0  0  0
  9 10  1  0  0  0  0
  9 11  1  0  0  0  0
  9 24  1  0  0  0  0
 11 12  1  0  0  0  0
 11 13  1  0  0  0  0
 11 17  1  0  0  0  0
 13 14  1  0  0  0  0
 13 15  1  0  0  0  0
 13 16  1  0  0  0  0
 17 18  1  0  0  0  0
 17 19  1  0  0  0  0
 17 20  1  0  0  0  0
 20 21  1  0  0  0  0
 20 22  1  0  0  0  0
 20 23  1  0  0  0  0
 24 25  2  0  0  0  0
 24 26  1  0  0  0  0
 26 27  1  0  0  0  0
 26 28  1  0  0  0  0
 28 29  1  0  0  0  0
 28 30  1  0  0  0  0
 28 31  1  0  0  0  0
M  END
$$$$

  -OEChem-03222214053D

 31 30  0     1  0  0  0  0  0999 V2000
   -2.9955   -3.8212    1.9631 H   0  0  0  0  0  0  0  0  0  0  0  0
   -3.0365   -2.8257    1.5126 C   0  0  0  0  0  0  0  0  0  0  0  0
   -3.5496   -2.1489    2.1999 H   0  0  0  0  0  0  0  0  0  0  0  0
   -3.6021   -2.8841    0.5797 H   0  0  0  0  0  0  0  0  0  0  0  0
   -1.6335   -2.3182    1.2371 C   0  0  0  0  0  0  0  0  0  0  0  0
   -0.6694   -3.0208    1.4981 O   0  0  0  0  0  0  0  0  0  0  0  0
   -1.4563   -1.0585    0.7028 N   0  0  0  0  0  0  0  0  0  0  0  0
   -2.2837   -0.4773    0.5784 H   0  0  0  0  0  0  0  0  0  0  0  0
   -0.1554   -0.4116    0.4915 C   0  0  1  0  0  0  0  0  0  0  0  0
    0.5664   -0.9146    1.1431 H   0  0  0  0  0  0  0  0  0  0  0  0
    0.4175   -0.4424   -0.9675 C   0  0  1  0  0  0  0  0  0  0  0  0
    0.2499    0.5582   -1.3823 H   0  0  0  0  0  0  0  0  0  0  0  0
    1.9368   -0.6633   -0.9074 C   0  0  0  0  0  0  0  0  0  0  0  0
    2.1652   -1.6570   -0.5080 H   0  0  0  0  0  0  0  0  0  0  0  0
    2.3756   -0.5826   -1.9070 H   0  0  0  0  0  0  0  0  0  0  0  0
    2.4108    0.0877   -0.2681 H   0  0  0  0  0  0  0  0  0  0  0  0
   -0.1646   -1.4008   -2.0457 C   0  0  0  0  0  0  0  0  0  0  0  0
    0.2265   -1.0790   -3.0166 H   0  0  0  0  0  0  0  0  0  0  0  0
    0.2151   -2.4116   -1.8624 H   0  0  0  0  0  0  0  0  0  0  0  0
   -1.6888   -1.5007   -2.1707 C   0  0  0  0  0  0  0  0  0  0  0  0
   -2.1534   -0.5223   -2.0127 H   0  0  0  0  0  0  0  0  0  0  0  0
   -1.9525   -1.8482   -3.1742 H   0  0  0  0  0  0  0  0  0  0  0  0
   -2.1015   -2.2203   -1.4613 H   0  0  0  0  0  0  0  0  0  0  0  0
   -0.2367    1.0488    0.9838 C   0  0  0  0  0  0  0  0  0  0  0  0
   -1.2386    1.7180    0.7551 O   0  0  0  0  0  0  0  0  0  0  0  0
    0.7768    1.5893    1.7538 N   0  0  0  0  0  0  0  0  0  0  0  0
    1.5654    0.9906    1.9817 H   0  0  0  0  0  0  0  0  0  0  0  0
    0.7285    2.9363    2.3092 C   0  0  0  0  0  0  0  0  0  0  0  0
   -0.1191    3.0377    2.9950 H   0  0  0  0  0  0  0  0  0  0  0  0
    1.6484    3.1513    2.8614 H   0  0  0  0  0  0  0  0  0  0  0  0
    0.6252    3.6770    1.5092 H   0  0  0  0  0  0  0  0  0  0  0  0
  1  2  1  0  0  0  0
  2  3  1  0  0  0  0
  2  4  1  0  0  0  0
  2  5  1  0  0  0  0
  5  6  2  0  0  0  0
  5  7  1  0  0  0  0
  7  8  1  0  0  0  0
  7  9  1  0  0  0  0
  9 10  1  0  0  0  0
  9 11  1  0  0  0  0
  9 24  1  0  0  0  0
 11 12  1  0  0  0  0
 11 13  1  0  0  0  0
 11 17  1  0  0  0  0
 13 14  1  0  0  0  0
 13 15  1  0  0  0  0
 13 16  1  0  0  0  0
 17 18  1  0  0  0  0
 17 19  1  0  0  0  0
 17 20  1  0  0  0  0
 20 21  1  0  0  0  0
 20 22  1  0  0  0  0
 20 23  1  0  0  0  0
 24 25  2  0  0  0  0
 24 26  1  0  0  0  0
 26 27  1  0  0  0  0
 26 28  1  0  0  0  0
 28 29  1  0  0  0  0
 28 30  1  0  0  0  0
 28 31  1  0  0  0  0
M  END
$$$$

  -OEChem-03222214053D

 31 30  0     1  0  0  0  0  0999 V2000
   -2.9730   -3.8436    1.8820 H   0  0  0  0  0  0  0  0  0  0  0  0
   -3.0150   -2.8597    1.4065 C   0  0  0  0  0  0  0  0  0  0  0  0
   -3.5732   -2.1790    2.0539 H   0  0  0  0  0  0  0  0  0  0  0  0
   -3.5363   -2.9522    0.4507 H   0  0  0  0  0  0  0  0  0  0  0  0
   -1.6122   -2.3273    1.1822 C   0  0  0  0  0  0  0  0  0  0  0  0
   -0.6458   -3.0183    1.4652 O   0  0  0  0  0  0  0  0  0  0  0  0
   -1.4368   -1.0622    0.6610 N   0  0  0  0  0  0  0  0  0  0  0  0
   -2.2678   -0.4921    0.5125 H   0  0  0  0  0  0  0  0  0  0  0  0
   -0.1392   -0.4014    0.4766 C   0  0  1  0  0  0  0  0  0  0  0  0
    0.5802   -0.9038    1.1310 H   0  0  0  0  0  0  0  0  0  0  0  0
    0.4275   -0.4313   -0.9811 C   0  0  1  0  0  0  0  0  0  0  0  0
    0.2846    0.5678   -1.4084 H   0  0  0  0  0  0  0  0  0  0  0  0
    1.9396   -0.6956   -0.9214 C   0  0  0  0  0  0  0  0  0  0  0  0
    2.1385   -1.6993   -0.5309 H   0  0  0  0  0  0  0  0  0  0  0  0
    2.3831   -0.6181   -1.9190 H   0  0  0  0  0  0  0  0  0  0  0  0
    2.4331    0.0356   -0.2740 H   0  0  0  0  0  0  0  0  0  0  0  0
   -0.1926   -1.4127   -2.0113 C   0  0  0  0  0  0  0  0  0  0  0  0
    0.3444   -1.2903   -2.9576 H   0  0  0  0  0  0  0  0  0  0  0  0
   -0.0307   -2.4424   -1.6749 H   0  0  0  0  0  0  0  0  0  0  0  0
   -1.6878   -1.2227   -2.3044 C   0  0  0  0  0  0  0  0  0  0  0  0
   -1.9436   -0.1587   -2.3201 H   0  0  0  0  0  0  0  0  0  0  0  0
   -1.9252   -1.6482   -3.2841 H   0  0  0  0  0  0  0  0  0  0  0  0
   -2.3161   -1.7308   -1.5711 H   0  0  0  0  0  0  0  0  0  0  0  0
   -0.2307    1.0557    0.9744 C   0  0  0  0  0  0  0  0  0  0  0  0
   -1.2274    1.7253    0.7260 O   0  0  0  0  0  0  0  0  0  0  0  0
    0.7691    1.5966    1.7617 N   0  0  0  0  0  0  0  0  0  0  0  0
    1.5571    1.0010    1.9986 H   0  0  0  0  0  0  0  0  0  0  0  0
    0.7138    2.9466    2.3089 C   0  0  0  0  0  0  0  0  0  0  0  0
   -0.1658    3.0649    2.9504 H   0  0  0  0  0  0  0  0  0  0  0  0
    1.6074    3.1493    2.9072 H   0  0  0  0  0  0  0  0  0  0  0  0
    0.6634    3.6847    1.5014 H   0  0  0  0  0  0  0  0  0  0  0  0
  1  2  1  0  0  0  0
  2  3  1  0  0  0  0
  2  4  1  0  0  0  0
  2  5  1  0  0  0  0
  5  6  2  0  0  0  0
  5  7  1  0  0  0  0
  7  8  1  0  0  0  0
  7  9  1  0  0  0  0
  9 10  1  0  0  0  0
  9 11  1  0  0  0  0
  9 24  1  0  0  0  0
 11 12  1  0  0  0  0
 11 13  1  0  0  0  0
 11 17  1  0  0  0  0
 13 14  1  0  0  0  0
 13 15  1  0  0  0  0
 13 16  1  0  0  0  0
 17 18  1  0  0  0  0
 17 19  1  0  0  0  0
 17 20  1  0  0  0  0
 20 21  1  0  0  0  0
 20 22  1  0  0  0  0
 20 23  1  0  0  0  0
 24 25  2  0  0  0  0
 24 26  1  0  0  0  0
 26 27  1  0  0  0  0
 26 28  1  0  0  0  0
 28 29  1  0  0  0  0
 28 30  1  0  0  0  0
 28 31  1  0  0  0  0
M  END
$$$$

  -OEChem-03222214053D

 31 30  0     1  0  0  0  0  0999 V2000
   -2.9621   -3.8841    1.7615 H   0  0  0  0  0  0  0  0  0  0  0  0
   -3.0022   -2.8816    1.3266 C   0  0  0  0  0  0  0  0  0  0  0  0
   -3.5668   -2.2290    1.9969 H   0  0  0  0  0  0  0  0  0  0  0  0
   -3.5153   -2.9354    0.3634 H   0  0  0  0  0  0  0  0  0  0  0  0
   -1.5989   -2.3384    1.1350 C   0  0  0  0  0  0  0  0  0  0  0  0
   -0.6332   -3.0233    1.4341 O   0  0  0  0  0  0  0  0  0  0  0  0
   -1.4224   -1.0706    0.6220 N   0  0  0  0  0  0  0  0  0  0  0  0
   -2.2554   -0.5063    0.4624 H   0  0  0  0  0  0  0  0  0  0  0  0
   -0.1266   -0.3969    0.4584 C   0  0  1  0  0  0  0  0  0  0  0  0
    0.5903   -0.8976    1.1172 H   0  0  0  0  0  0  0  0  0  0  0  0
    0.4420   -0.4247   -0.9970 C   0  0  1  0  0  0  0  0  0  0  0  0
    0.3133    0.5711   -1.4360 H   0  0  0  0  0  0  0  0  0  0  0  0
    1.9507   -0.7077   -0.9323 C   0  0  0  0  0  0  0  0  0  0  0  0
    2.1363   -1.7152   -0.5451 H   0  0  0  0  0  0  0  0  0  0  0  0
    2.3994   -0.6304   -1.9277 H   0  0  0  0  0  0  0  0  0  0  0  0
    2.4498    0.0155   -0.2798 H   0  0  0  0  0  0  0  0  0  0  0  0
   -0.2065   -1.4290   -1.9831 C   0  0  0  0  0  0  0  0  0  0  0  0
    0.4410   -1.5338   -2.8597 H   0  0  0  0  0  0  0  0  0  0  0  0
   -0.2763   -2.4158   -1.5139 H   0  0  0  0  0  0  0  0  0  0  0  0
   -1.5910   -0.9986   -2.4897 C   0  0  0  0  0  0  0  0  0  0  0  0
   -1.5379    0.0016   -2.9304 H   0  0  0  0  0  0  0  0  0  0  0  0
   -1.9329   -1.6962   -3.2601 H   0  0  0  0  0  0  0  0  0  0  0  0
   -2.3388   -0.9857   -1.6956 H   0  0  0  0  0  0  0  0  0  0  0  0
   -0.2298    1.0581    0.9579 C   0  0  0  0  0  0  0  0  0  0  0  0
   -1.2274    1.7231    0.7013 O   0  0  0  0  0  0  0  0  0  0  0  0
    0.7586    1.5997    1.7589 N   0  0  0  0  0  0  0  0  0  0  0  0
    1.5449    1.0052    2.0048 H   0  0  0  0  0  0  0  0  0  0  0  0
    0.6876    2.9446    2.3165 C   0  0  0  0  0  0  0  0  0  0  0  0
   -0.1949    3.0481    2.9567 H   0  0  0  0  0  0  0  0  0  0  0  0
    1.5774    3.1528    2.9184 H   0  0  0  0  0  0  0  0  0  0  0  0
    0.6308    3.6885    1.5148 H   0  0  0  0  0  0  0  0  0  0  0  0
  1  2  1  0  0  0  0
  2  3  1  0  0  0  0
  2  4  1  0  0  0  0
  2  5  1  0  0  0  0
  5  6  2  0  0  0  0
  5  7  1  0  0  0  0
  7  8  1  0  0  0  0
  7  9  1  0  0  0  0
  9 10  1  0  0  0  0
  9 11  1  0  0  0  0
  9 24  1  0  0  0  0
 11 12  1  0  0  0  0
 11 13  1  0  0  0  0
 11 17  1  0  0  0  0
 13 14  1  0  0  0  0
 13 15  1  0  0  0  0
 13 16  1  0  0  0  0
 17 18  1  0  0  0  0
 17 19  1  0  0  0  0
 17 20  1  0  0  0  0
 20 21  1  0  0  0  0
 20 22  1  0  0  0  0
 20 23  1  0  0  0  0
 24 25  2  0  0  0  0
 24 26  1  0  0  0  0
 26 27  1  0  0  0  0
 26 28  1  0  0  0  0
 28 29  1  0  0  0  0
 28 30  1  0  0  0  0
 28 31  1  0  0  0  0
M  END
$$$$

  -OEChem-03222214053D

 31 30  0     1  0  0  0  0  0999 V2000
   -2.9576   -3.9045    1.7196 H   0  0  0  0  0  0  0  0  0  0  0  0
   -2.9971   -2.9028    1.2824 C   0  0  0  0  0  0  0  0  0  0  0  0
   -3.5815   -2.2545    1.9397 H   0  0  0  0  0  0  0  0  0  0  0  0
   -3.4889   -2.9622    0.3085 H   0  0  0  0  0  0  0  0  0  0  0  0
   -1.5947   -2.3483    1.1193 C   0  0  0  0  0  0  0  0  0  0  0  0
   -0.6305   -3.0239    1.4432 O   0  0  0  0  0  0  0  0  0  0  0  0
   -1.4153   -1.0830    0.6001 N   0  0  0  0  0  0  0  0  0  0  0  0
   -2.2483   -0.5262    0.4161 H   0  0  0  0  0  0  0  0  0  0  0  0
   -0.1170   -0.4036    0.4516 C   0  0  1  0  0  0  0  0  0  0  0  0
    0.5979   -0.8997    1.1159 H   0  0  0  0  0  0  0  0  0  0  0  0
    0.4518   -0.4288   -1.0036 C   0  0  1  0  0  0  0  0  0  0  0  0
    0.3369    0.5673   -1.4462 H   0  0  0  0  0  0  0  0  0  0  0  0
    1.9579   -0.7266   -0.9361 C   0  0  0  0  0  0  0  0  0  0  0  0
    2.1329   -1.7349   -0.5464 H   0  0  0  0  0  0  0  0  0  0  0  0
    2.4078   -0.6560   -1.9315 H   0  0  0  0  0  0  0  0  0  0  0  0
    2.4634   -0.0068   -0.2850 H   0  0  0  0  0  0  0  0  0  0  0  0
   -0.2178   -1.4453   -1.9630 C   0  0  0  0  0  0  0  0  0  0  0  0
    0.5029   -1.7548   -2.7267 H   0  0  0  0  0  0  0  0  0  0  0  0
   -0.5155   -2.3544   -1.4338 H   0  0  0  0  0  0  0  0  0  0  0  0
   -1.4113   -0.8272   -2.6965 C   0  0  0  0  0  0  0  0  0  0  0  0
   -1.0892    0.0261   -3.3016 H   0  0  0  0  0  0  0  0  0  0  0  0
   -1.8678   -1.5684   -3.3594 H   0  0  0  0  0  0  0  0  0  0  0  0
   -2.1690   -0.4842   -1.9860 H   0  0  0  0  0  0  0  0  0  0  0  0
   -0.2315    1.0544    0.9396 C   0  0  0  0  0  0  0  0  0  0  0  0
   -1.2254    1.7167    0.6619 O   0  0  0  0  0  0  0  0  0  0  0  0
    0.7446    1.6022    1.7513 N   0  0  0  0  0  0  0  0  0  0  0  0
    1.5286    1.0105    2.0103 H   0  0  0  0  0  0  0  0  0  0  0  0
    0.6686    2.9528    2.2942 C   0  0  0  0  0  0  0  0  0  0  0  0
   -0.2288    3.0681    2.9112 H   0  0  0  0  0  0  0  0  0  0  0  0
    1.5446    3.1604    2.9165 H   0  0  0  0  0  0  0  0  0  0  0  0
    0.6373    3.6893    1.4843 H   0  0  0  0  0  0  0  0  0  0  0  0
  1  2  1  0  0  0  0
  2  3  1  0  0  0  0
  2  4  1  0  0  0  0
  2  5  1  0  0  0  0
  5  6  2  0  0  0  0
  5  7  1  0  0  0  0
  7  8  1  0  0  0  0
  7  9  1  0  0  0  0
  9 10  1  0  0  0  0
  9 11  1  0  0  0  0
  9 24  1  0  0  0  0
 11 12  1  0  0  0  0
 11 13  1  0  0  0  0
 11 17  1  0  0  0  0
 13 14  1  0  0  0  0
 13 15  1  0  0  0  0
 13 16  1  0  0  0  0
 17 18  1  0  0  0  0
 17 19  1  0  0  0  0
 17 20  1  0  0  0  0
 20 21  1  0  0  0  0
 20 22  1  0  0  0  0
 20 23  1  0  0  0  0
 24 25  2  0  0  0  0
 24 26  1  0  0  0  0
 26 27  1  0  0  0  0
 26 28  1  0  0  0  0
 28 29  1  0  0  0  0
 28 30  1  0  0  0  0
 28 31  1  0  0  0  0
M  END
$$$$

  -OEChem-03222214053D

 31 30  0     1  0  0  0  0  0999 V2000
   -2.9721   -3.8973    1.7548 H   0  0  0  0  0  0  0  0  0  0  0  0
   -3.0103   -2.8977    1.3127 C   0  0  0  0  0  0  0  0  0  0  0  0
   -3.5844   -2.2422    1.9722 H   0  0  0  0  0  0  0  0  0  0  0  0
   -3.5124   -2.9597    0.3441 H   0  0  0  0  0  0  0  0  0  0  0  0
   -1.6064   -2.3520    1.1319 C   0  0  0  0  0  0  0  0  0  0  0  0
   -0.6421   -3.0317    1.4473 O   0  0  0  0  0  0  0  0  0  0  0  0
   -1.4257   -1.0889    0.6070 N   0  0  0  0  0  0  0  0  0  0  0  0
   -2.2577   -0.5278    0.4318 H   0  0  0  0  0  0  0  0  0  0  0  0
   -0.1261   -0.4147    0.4494 C   0  0  1  0  0  0  0  0  0  0  0  0
    0.5891   -0.9100    1.1139 H   0  0  0  0  0  0  0  0  0  0  0  0
    0.4447   -0.4431   -1.0059 C   0  0  1  0  0  0  0  0  0  0  0  0
    0.3264    0.5564   -1.4401 H   0  0  0  0  0  0  0  0  0  0  0  0
    1.9546   -0.7222   -0.9348 C   0  0  0  0  0  0  0  0  0  0  0  0
    2.1420   -1.7272   -0.5421 H   0  0  0  0  0  0  0  0  0  0  0  0
    2.4044   -0.6479   -1.9300 H   0  0  0  0  0  0  0  0  0  0  0  0
    2.4504    0.0055   -0.2849 H   0  0  0  0  0  0  0  0  0  0  0  0
   -0.2156   -1.4582   -1.9818 C   0  0  0  0  0  0  0  0  0  0  0  0
    0.5602   -1.9610   -2.5682 H   0  0  0  0  0  0  0  0  0  0  0  0
   -0.7524   -2.2518   -1.4591 H   0  0  0  0  0  0  0  0  0  0  0  0
   -1.1427   -0.7528   -2.9731 C   0  0  0  0  0  0  0  0  0  0  0  0
   -0.5851   -0.0269   -3.5733 H   0  0  0  0  0  0  0  0  0  0  0  0
   -1.5969   -1.4842   -3.6485 H   0  0  0  0  0  0  0  0  0  0  0  0
   -1.9415   -0.2281   -2.4397 H   0  0  0  0  0  0  0  0  0  0  0  0
   -0.2373    1.0451    0.9341 C   0  0  0  0  0  0  0  0  0  0  0  0
   -1.2324    1.7072    0.6607 O   0  0  0  0  0  0  0  0  0  0  0  0
    0.7426    1.5948    1.7400 N   0  0  0  0  0  0  0  0  0  0  0  0
    1.5286    1.0041    1.9957 H   0  0  0  0  0  0  0  0  0  0  0  0
    0.6697    2.9474    2.2786 C   0  0  0  0  0  0  0  0  0  0  0  0
   -0.2239    3.0650    2.9006 H   0  0  0  0  0  0  0  0  0  0  0  0
    1.5494    3.1569    2.8948 H   0  0  0  0  0  0  0  0  0  0  0  0
    0.6331    3.6812    1.4666 H   0  0  0  0  0  0  0  0  0  0  0  0
  1  2  1  0  0  0  0
  2  3  1  0  0  0  0
  2  4  1  0  0  0  0
  2  5  1  0  0  0  0
  5  6  2  0  0  0  0
  5  7  1  0  0  0  0
  7  8  1  0  0  0  0
  7  9  1  0  0  0  0
  9 10  1  0  0  0  0
  9 11  1  0  0  0  0
  9 24  1  0  0  0  0
 11 12  1  0  0  0  0
 11 13  1  0  0  0  0
 11 17  1  0  0  0  0
 13 14  1  0  0  0  0
 13 15  1  0  0  0  0
 13 16  1  0  0  0  0
 17 18  1  0  0  0  0
 17 19  1  0  0  0  0
 17 20  1  0  0  0  0
 20 21  1  0  0  0  0
 20 22  1  0  0  0  0
 20 23  1  0  0  0  0
 24 25  2  0  0  0  0
 24 26  1  0  0  0  0
 26 27  1  0  0  0  0
 26 28  1  0  0  0  0
 28 29  1  0  0  0  0
 28 30  1  0  0  0  0
 28 31  1  0  0  0  0
M  END
$$$$

  -OEChem-03222214053D

 31 30  0     1  0  0  0  0  0999 V2000
   -2.9891   -3.8837    1.8031 H   0  0  0  0  0  0  0  0  0  0  0  0
   -3.0287   -2.8861    1.3567 C   0  0  0  0  0  0  0  0  0  0  0  0
   -3.5779   -2.2215    2.0280 H   0  0  0  0  0  0  0  0  0  0  0  0
   -3.5570   -2.9474    0.4023 H   0  0  0  0  0  0  0  0  0  0  0  0
   -1.6247   -2.3556    1.1370 C   0  0  0  0  0  0  0  0  0  0  0  0
   -0.6598   -3.0447    1.4286 O   0  0  0  0  0  0  0  0  0  0  0  0
   -1.4454   -1.0926    0.6116 N   0  0  0  0  0  0  0  0  0  0  0  0
   -2.2762   -0.5223    0.4605 H   0  0  0  0  0  0  0  0  0  0  0  0
   -0.1444   -0.4248    0.4438 C   0  0  1  0  0  0  0  0  0  0  0  0
    0.5697   -0.9225    1.1076 H   0  0  0  0  0  0  0  0  0  0  0  0
    0.4346   -0.4606   -1.0088 C   0  0  1  0  0  0  0  0  0  0  0  0
    0.2949    0.5397   -1.4348 H   0  0  0  0  0  0  0  0  0  0  0  0
    1.9499   -0.7060   -0.9423 C   0  0  0  0  0  0  0  0  0  0  0  0
    2.1618   -1.6994   -0.5330 H   0  0  0  0  0  0  0  0  0  0  0  0
    2.3901   -0.6407   -1.9425 H   0  0  0  0  0  0  0  0  0  0  0  0
    2.4337    0.0435   -0.3083 H   0  0  0  0  0  0  0  0  0  0  0  0
   -0.2069   -1.4729   -2.0049 C   0  0  0  0  0  0  0  0  0  0  0  0
    0.5524   -2.1762   -2.3624 H   0  0  0  0  0  0  0  0  0  0  0  0
   -0.9850   -2.0830   -1.5458 H   0  0  0  0  0  0  0  0  0  0  0  0
   -0.8053   -0.7543   -3.2156 C   0  0  0  0  0  0  0  0  0  0  0  0
   -0.0330   -0.1891   -3.7465 H   0  0  0  0  0  0  0  0  0  0  0  0
   -1.2394   -1.4818   -3.9080 H   0  0  0  0  0  0  0  0  0  0  0  0
   -1.5928   -0.0631   -2.8988 H   0  0  0  0  0  0  0  0  0  0  0  0
   -0.2466    1.0351    0.9314 C   0  0  0  0  0  0  0  0  0  0  0  0
   -1.2431    1.6994    0.6691 O   0  0  0  0  0  0  0  0  0  0  0  0
    0.7411    1.5812    1.7302 N   0  0  0  0  0  0  0  0  0  0  0  0
    1.5277    0.9881    1.9783 H   0  0  0  0  0  0  0  0  0  0  0  0
    0.6768    2.9337    2.2702 C   0  0  0  0  0  0  0  0  0  0  0  0
   -0.2037    3.0492    2.9109 H   0  0  0  0  0  0  0  0  0  0  0  0
    1.5690    3.1450    2.8675 H   0  0  0  0  0  0  0  0  0  0  0  0
    0.6216    3.6678    1.4595 H   0  0  0  0  0  0  0  0  0  0  0  0
  1  2  1  0  0  0  0
  2  3  1  0  0  0  0
  2  4  1  0  0  0  0
  2  5  1  0  0  0  0
  5  6  2  0  0  0  0
  5  7  1  0  0  0  0
  7  8  1  0  0  0  0
  7  9  1  0  0  0  0
  9 10  1  0  0  0  0
  9 11  1  0  0  0  0
  9 24  1  0  0  0  0
 11 12  1  0  0  0  0
 11 13  1  0  0  0  0
 11 17  1  0  0  0  0
 13 14  1  0  0  0  0
 13 15  1  0  0  0  0
 13 16  1  0  0  0  0
 17 18  1  0  0  0  0
 17 19  1  0  0  0  0
 17 20  1  0  0  0  0
 20 21  1  0  0  0  0
 20 22  1  0  0  0  0
 20 23  1  0  0  0  0
 24 25  2  0  0  0  0
 24 26  1  0  0  0  0
 26 27  1  0  0  0  0
 26 28  1  0  0  0  0
 28 29  1  0  0  0  0
 28 30  1  0  0  0  0
 28 31  1  0  0  0  0
M  END
$$$$

  -OEChem-03222214053D

 31 30  0     1  0  0  0  0  0999 V2000
   -3.0007   -3.8794    1.7988 H   0  0  0  0  0  0  0  0  0  0  0  0
   -3.0393   -2.8810    1.3539 C   0  0  0  0  0  0  0  0  0  0  0  0
   -3.5862   -2.2165    2.0272 H   0  0  0  0  0  0  0  0  0  0  0  0
   -3.5701   -2.9404    0.4006 H   0  0  0  0  0  0  0  0  0  0  0  0
   -1.6348   -2.3519    1.1326 C   0  0  0  0  0  0  0  0  0  0  0  0
   -0.6705   -3.0443    1.4186 O   0  0  0  0  0  0  0  0  0  0  0  0
   -1.4553   -1.0877    0.6104 N   0  0  0  0  0  0  0  0  0  0  0  0
   -2.2853   -0.5143    0.4676 H   0  0  0  0  0  0  0  0  0  0  0  0
   -0.1536   -0.4226    0.4409 C   0  0  1  0  0  0  0  0  0  0  0  0
    0.5589   -0.9231    1.1045 H   0  0  0  0  0  0  0  0  0  0  0  0
    0.4283   -0.4696   -1.0097 C   0  0  1  0  0  0  0  0  0  0  0  0
    0.2661    0.5263   -1.4381 H   0  0  0  0  0  0  0  0  0  0  0  0
    1.9463   -0.6967   -0.9557 C   0  0  0  0  0  0  0  0  0  0  0  0
    2.1736   -1.6784   -0.5269 H   0  0  0  0  0  0  0  0  0  0  0  0
    2.3749   -0.6499   -1.9619 H   0  0  0  0  0  0  0  0  0  0  0  0
    2.4284    0.0717   -0.3437 H   0  0  0  0  0  0  0  0  0  0  0  0
   -0.2099   -1.4859   -2.0013 C   0  0  0  0  0  0  0  0  0  0  0  0
    0.4422   -2.3579   -2.1176 H   0  0  0  0  0  0  0  0  0  0  0  0
   -1.1713   -1.8615   -1.6500 H   0  0  0  0  0  0  0  0  0  0  0  0
   -0.4636   -0.8433   -3.3669 C   0  0  0  0  0  0  0  0  0  0  0  0
    0.4723   -0.4726   -3.7962 H   0  0  0  0  0  0  0  0  0  0  0  0
   -0.8929   -1.5789   -4.0538 H   0  0  0  0  0  0  0  0  0  0  0  0
   -1.1640   -0.0072   -3.2734 H   0  0  0  0  0  0  0  0  0  0  0  0
   -0.2466    1.0370    0.9315 C   0  0  0  0  0  0  0  0  0  0  0  0
   -1.2413    1.7063    0.6750 O   0  0  0  0  0  0  0  0  0  0  0  0
    0.7468    1.5766    1.7279 N   0  0  0  0  0  0  0  0  0  0  0  0
    1.5323    0.9799    1.9707 H   0  0  0  0  0  0  0  0  0  0  0  0
    0.6914    2.9278    2.2720 C   0  0  0  0  0  0  0  0  0  0  0  0
   -0.1884    3.0477    2.9129 H   0  0  0  0  0  0  0  0  0  0  0  0
    1.5846    3.1317    2.8702 H   0  0  0  0  0  0  0  0  0  0  0  0
    0.6418    3.6643    1.4632 H   0  0  0  0  0  0  0  0  0  0  0  0
  1  2  1  0  0  0  0
  2  3  1  0  0  0  0
  2  4  1  0  0  0  0
  2  5  1  0  0  0  0
  5  6  2  0  0  0  0
  5  7  1  0  0  0  0
  7  8  1  0  0  0  0
  7  9  1  0  0  0  0
  9 10  1  0  0  0  0
  9 11  1  0  0  0  0
  9 24  1  0  0  0  0
 11 12  1  0  0  0  0
 11 13  1  0  0  0  0
 11 17  1  0  0  0  0
 13 14  1  0  0  0  0
 13 15  1  0  0  0  0
 13 16  1  0  0  0  0
 17 18  1  0  0  0  0
 17 19  1  0  0  0  0
 17 20  1  0  0  0  0
 20 21  1  0  0  0  0
 20 22  1  0  0  0  0
 20 23  1  0  0  0  0
 24 25  2  0  0  0  0
 24 26  1  0  0  0  0
 26 27  1  0  0  0  0
 26 28  1  0  0  0  0
 28 29  1  0  0  0  0
 28 30  1  0  0  0  0
 28 31  1  0  0  0  0
M  END
$$$$

  -OEChem-03222214053D

 31 30  0     1  0  0  0  0  0999 V2000
   -2.9983   -3.8787    1.7606 H   0  0  0  0  0  0  0  0  0  0  0  0
   -3.0367   -2.8774    1.3225 C   0  0  0  0  0  0  0  0  0  0  0  0
   -3.5903   -2.2192    1.9963 H   0  0  0  0  0  0  0  0  0  0  0  0
   -3.5601   -2.9318    0.3650 H   0  0  0  0  0  0  0  0  0  0  0  0
   -1.6321   -2.3434    1.1147 C   0  0  0  0  0  0  0  0  0  0  0  0
   -0.6683   -3.0345    1.4055 O   0  0  0  0  0  0  0  0  0  0  0  0
   -1.4508   -1.0778    0.5966 N   0  0  0  0  0  0  0  0  0  0  0  0
   -2.2803   -0.5045    0.4507 H   0  0  0  0  0  0  0  0  0  0  0  0
   -0.1481   -0.4122    0.4351 C   0  0  1  0  0  0  0  0  0  0  0  0
    0.5614   -0.9143    1.1007 H   0  0  0  0  0  0  0  0  0  0  0  0
    0.4343   -0.4635   -1.0140 C   0  0  1  0  0  0  0  0  0  0  0  0
    0.2693    0.5270   -1.4534 H   0  0  0  0  0  0  0  0  0  0  0  0
    1.9513   -0.7013   -0.9548 C   0  0  0  0  0  0  0  0  0  0  0  0
    2.1688   -1.6876   -0.5317 H   0  0  0  0  0  0  0  0  0  0  0  0
    2.3908   -0.6500   -1.9552 H   0  0  0  0  0  0  0  0  0  0  0  0
    2.4342    0.0589   -0.3334 H   0  0  0  0  0  0  0  0  0  0  0  0
   -0.2206   -1.4867   -1.9816 C   0  0  0  0  0  0  0  0  0  0  0  0
    0.2603   -2.4649   -1.8766 H   0  0  0  0  0  0  0  0  0  0  0  0
   -1.2815   -1.6205   -1.7605 H   0  0  0  0  0  0  0  0  0  0  0  0
   -0.1540   -1.0110   -3.4358 C   0  0  0  0  0  0  0  0  0  0  0  0
    0.8842   -0.8867   -3.7569 H   0  0  0  0  0  0  0  0  0  0  0  0
   -0.6313   -1.7456   -4.0914 H   0  0  0  0  0  0  0  0  0  0  0  0
   -0.6746   -0.0552   -3.5520 H   0  0  0  0  0  0  0  0  0  0  0  0
   -0.2389    1.0465    0.9277 C   0  0  0  0  0  0  0  0  0  0  0  0
   -1.2315    1.7182    0.6701 O   0  0  0  0  0  0  0  0  0  0  0  0
    0.7532    1.5811    1.7288 N   0  0  0  0  0  0  0  0  0  0  0  0
    1.5360    0.9813    1.9727 H   0  0  0  0  0  0  0  0  0  0  0  0
    0.6964    2.9286    2.2818 C   0  0  0  0  0  0  0  0  0  0  0  0
   -0.1869    3.0454    2.9185 H   0  0  0  0  0  0  0  0  0  0  0  0
    1.5864    3.1270    2.8867 H   0  0  0  0  0  0  0  0  0  0  0  0
    0.6522    3.6705    1.4776 H   0  0  0  0  0  0  0  0  0  0  0  0
  1  2  1  0  0  0  0
  2  3  1  0  0  0  0
  2  4  1  0  0  0  0
  2  5  1  0  0  0  0
  5  6  2  0  0  0  0
  5  7  1  0  0  0  0
  7  8  1  0  0  0  0
  7  9  1  0  0  0  0
  9 10  1  0  0  0  0
  9 11  1  0  0  0  0
  9 24  1  0  0  0  0
 11 12  1  0  0  0  0
 11 13  1  0  0  0  0
 11 17  1  0  0  0  0
 13 14  1  0  0  0  0
 13 15  1  0  0  0  0
 13 16  1  0  0  0  0
 17 18  1  0  0  0  0
 17 19  1  0  0  0  0
 17 20  1  0  0  0  0
 20 21  1  0  0  0  0
 20 22  1  0  0  0  0
 20 23  1  0  0  0  0
 24 25  2  0  0  0  0
 24 26  1  0  0  0  0
 26 27  1  0  0  0  0
 26 28  1  0  0  0  0
 28 29  1  0  0  0  0
 28 30  1  0  0  0  0
 28 31  1  0  0  0  0
M  END
$$$$

  -OEChem-03222214053D

 31 30  0     1  0  0  0  0  0999 V2000
   -2.9999   -3.8814    1.7176 H   0  0  0  0  0  0  0  0  0  0  0  0
   -3.0318   -2.8827    1.2731 C   0  0  0  0  0  0  0  0  0  0  0  0
   -3.6050   -2.2231    1.9294 H   0  0  0  0  0  0  0  0  0  0  0  0
   -3.5314   -2.9442    0.3033 H   0  0  0  0  0  0  0  0  0  0  0  0
   -1.6246   -2.3445    1.0962 C   0  0  0  0  0  0  0  0  0  0  0  0
   -0.6648   -3.0341    1.4037 O   0  0  0  0  0  0  0  0  0  0  0  0
   -1.4374   -1.0776    0.5840 N   0  0  0  0  0  0  0  0  0  0  0  0
   -2.2664   -0.5094    0.4175 H   0  0  0  0  0  0  0  0  0  0  0  0
   -0.1340   -0.4081    0.4390 C   0  0  1  0  0  0  0  0  0  0  0  0
    0.5726   -0.9128    1.1060 H   0  0  0  0  0  0  0  0  0  0  0  0
    0.4477   -0.4513   -1.0094 C   0  0  1  0  0  0  0  0  0  0  0  0
    0.2844    0.5356   -1.4573 H   0  0  0  0  0  0  0  0  0  0  0  0
    1.9648   -0.6927   -0.9398 C   0  0  0  0  0  0  0  0  0  0  0  0
    2.1760   -1.7019   -0.5714 H   0  0  0  0  0  0  0  0  0  0  0  0
    2.4252   -0.5788   -1.9248 H   0  0  0  0  0  0  0  0  0  0  0  0
    2.4364    0.0297   -0.2668 H   0  0  0  0  0  0  0  0  0  0  0  0
   -0.2312   -1.4780   -1.9513 C   0  0  0  0  0  0  0  0  0  0  0  0
    0.0511   -2.4955   -1.6608 H   0  0  0  0  0  0  0  0  0  0  0  0
   -1.3189   -1.3969   -1.8717 H   0  0  0  0  0  0  0  0  0  0  0  0
    0.1094   -1.2382   -3.4254 C   0  0  0  0  0  0  0  0  0  0  0  0
    1.1722   -1.4099   -3.6166 H   0  0  0  0  0  0  0  0  0  0  0  0
   -0.4643   -1.9246   -4.0554 H   0  0  0  0  0  0  0  0  0  0  0  0
   -0.1404   -0.2129   -3.7158 H   0  0  0  0  0  0  0  0  0  0  0  0
   -0.2299    1.0493    0.9333 C   0  0  0  0  0  0  0  0  0  0  0  0
   -1.2174    1.7232    0.6615 O   0  0  0  0  0  0  0  0  0  0  0  0
    0.7533    1.5829    1.7458 N   0  0  0  0  0  0  0  0  0  0  0  0
    1.5387    0.9863    1.9894 H   0  0  0  0  0  0  0  0  0  0  0  0
    0.7038    2.9391    2.2774 C   0  0  0  0  0  0  0  0  0  0  0  0
   -0.1967    3.0812    2.8842 H   0  0  0  0  0  0  0  0  0  0  0  0
    1.5779    3.1308    2.9072 H   0  0  0  0  0  0  0  0  0  0  0  0
    0.6980    3.6692    1.4613 H   0  0  0  0  0  0  0  0  0  0  0  0
  1  2  1  0  0  0  0
  2  3  1  0  0  0  0
  2  4  1  0  0  0  0
  2  5  1  0  0  0  0
  5  6  2  0  0  0  0
  5  7  1  0  0  0  0
  7  8  1  0  0  0  0
  7  9  1  0  0  0  0
  9 10  1  0  0  0  0
  9 11  1  0  0  0  0
  9 24  1  0  0  0  0
 11 12  1  0  0  0  0
 11 13  1  0  0  0  0
 11 17  1  0  0  0  0
 13 14  1  0  0  0  0
 13 15  1  0  0  0  0
 13 16  1  0  0  0  0
 17 18  1  0  0  0  0
 17 19  1  0  0  0  0
 17 20  1  0  0  0  0
 20 21  1  0  0  0  0
 20 22  1  0  0  0  0
 20 23  1  0  0  0  0
 24 25  2  0  0  0  0
 24 26  1  0  0  0  0
 26 27  1  0  0  0  0
 26 28  1  0  0  0  0
 28 29  1  0  0  0  0
 28 30  1  0  0  0  0
 28 31  1  0  0  0  0
M  END
$$$$

  -OEChem-03222214053D

 31 30  0     1  0  0  0  0  0999 V2000
   -2.9826   -3.8774    1.6930 H   0  0  0  0  0  0  0  0  0  0  0  0
   -3.0137   -2.8739    1.2595 C   0  0  0  0  0  0  0  0  0  0  0  0
   -3.5781   -2.2187    1.9275 H   0  0  0  0  0  0  0  0  0  0  0  0
   -3.5212   -2.9230    0.2931 H   0  0  0  0  0  0  0  0  0  0  0  0
   -1.6059   -2.3391    1.0773 C   0  0  0  0  0  0  0  0  0  0  0  0
   -0.6461   -3.0300    1.3817 O   0  0  0  0  0  0  0  0  0  0  0  0
   -1.4172   -1.0724    0.5657 N   0  0  0  0  0  0  0  0  0  0  0  0
   -2.2446   -0.4981    0.4121 H   0  0  0  0  0  0  0  0  0  0  0  0
   -0.1114   -0.4035    0.4326 C   0  0  1  0  0  0  0  0  0  0  0  0
    0.5934   -0.9002    1.1070 H   0  0  0  0  0  0  0  0  0  0  0  0
    0.4672   -0.4332   -1.0193 C   0  0  1  0  0  0  0  0  0  0  0  0
    0.5820    0.5979   -1.3722 H   0  0  0  0  0  0  0  0  0  0  0  0
    1.8692   -1.0659   -0.9750 C   0  0  0  0  0  0  0  0  0  0  0  0
    1.7999   -2.1315   -0.7324 H   0  0  0  0  0  0  0  0  0  0  0  0
    2.3807   -0.9562   -1.9351 H   0  0  0  0  0  0  0  0  0  0  0  0
    2.4867   -0.5750   -0.2165 H   0  0  0  0  0  0  0  0  0  0  0  0
   -0.4462   -1.1615   -2.0376 C   0  0  0  0  0  0  0  0  0  0  0  0
   -0.6138   -2.1942   -1.7142 H   0  0  0  0  0  0  0  0  0  0  0  0
   -1.4159   -0.6538   -2.0676 H   0  0  0  0  0  0  0  0  0  0  0  0
    0.1193   -1.1897   -3.4609 C   0  0  0  0  0  0  0  0  0  0  0  0
    1.0067   -1.8262   -3.5196 H   0  0  0  0  0  0  0  0  0  0  0  0
   -0.6301   -1.5917   -4.1494 H   0  0  0  0  0  0  0  0  0  0  0  0
    0.3839   -0.1794   -3.7884 H   0  0  0  0  0  0  0  0  0  0  0  0
   -0.2231    1.0522    0.9277 C   0  0  0  0  0  0  0  0  0  0  0  0
   -1.2132    1.7190    0.6478 O   0  0  0  0  0  0  0  0  0  0  0  0
    0.7474    1.5900    1.7525 N   0  0  0  0  0  0  0  0  0  0  0  0
    1.5322    0.9968    2.0058 H   0  0  0  0  0  0  0  0  0  0  0  0
    0.6725    2.9376    2.3031 C   0  0  0  0  0  0  0  0  0  0  0  0
   -0.2269    3.0517    2.9173 H   0  0  0  0  0  0  0  0  0  0  0  0
    1.5465    3.1393    2.9299 H   0  0  0  0  0  0  0  0  0  0  0  0
    0.6459    3.6794    1.4980 H   0  0  0  0  0  0  0  0  0  0  0  0
  1  2  1  0  0  0  0
  2  3  1  0  0  0  0
  2  4  1  0  0  0  0
  2  5  1  0  0  0  0
  5  6  2  0  0  0  0
  5  7  1  0  0  0  0
  7  8  1  0  0  0  0
  7  9  1  0  0  0  0
  9 10  1  0  0  0  0
  9 11  1  0  0  0  0
  9 24  1  0  0  0  0
 11 12  1  0  0  0  0
 11 13  1  0  0  0  0
 11 17  1  0  0  0  0
 13 14  1  0  0  0  0
 13 15  1  0  0  0  0
 13 16  1  0  0  0  0
 17 18  1  0  0  0  0
 17 19  1  0  0  0  0
 17 20  1  0  0  0  0
 20 21  1  0  0  0  0
 20 22  1  0  0  0  0
 20 23  1  0  0  0  0
 24 25  2  0  0  0  0
 24 26  1  0  0  0  0
 26 27  1  0  0  0  0
 26 28  1  0  0  0  0
 28 29  1  0  0  0  0
 28 30  1  0  0  0  0
 28 31  1  0  0  0  0
M  END
$$$$

  -OEChem-03222214053D

 31 30  0     1  0  0  0  0  0999 V2000
   -3.0000   -3.8688    1.7070 H   0  0  0  0  0  0  0  0  0  0  0  0
   -3.0263   -2.8672    1.2688 C   0  0  0  0  0  0  0  0  0  0  0  0
   -3.5914   -2.2074    1.9316 H   0  0  0  0  0  0  0  0  0  0  0  0
   -3.5306   -2.9190    0.3009 H   0  0  0  0  0  0  0  0  0  0  0  0
   -1.6160   -2.3379    1.0891 C   0  0  0  0  0  0  0  0  0  0  0  0
   -0.6595   -3.0302    1.3999 O   0  0  0  0  0  0  0  0  0  0  0  0
   -1.4213   -1.0735    0.5734 N   0  0  0  0  0  0  0  0  0  0  0  0
   -2.2464   -0.4982    0.4117 H   0  0  0  0  0  0  0  0  0  0  0  0
   -0.1132   -0.4103    0.4363 C   0  0  1  0  0  0  0  0  0  0  0  0
    0.5884   -0.9082    1.1132 H   0  0  0  0  0  0  0  0  0  0  0  0
    0.4707   -0.4354   -1.0158 C   0  0  1  0  0  0  0  0  0  0  0  0
    0.5898    0.5951   -1.3694 H   0  0  0  0  0  0  0  0  0  0  0  0
    1.8791   -1.0556   -0.9481 C   0  0  0  0  0  0  0  0  0  0  0  0
    1.8159   -2.1232   -0.7121 H   0  0  0  0  0  0  0  0  0  0  0  0
    2.4087   -0.9346   -1.8973 H   0  0  0  0  0  0  0  0  0  0  0  0
    2.4780   -0.5628   -0.1761 H   0  0  0  0  0  0  0  0  0  0  0  0
   -0.4360   -1.1578   -2.0512 C   0  0  0  0  0  0  0  0  0  0  0  0
   -0.7943   -2.1046   -1.6367 H   0  0  0  0  0  0  0  0  0  0  0  0
   -1.3075   -0.5268   -2.2545 H   0  0  0  0  0  0  0  0  0  0  0  0
    0.2552   -1.5060   -3.3738 C   0  0  0  0  0  0  0  0  0  0  0  0
    1.0237   -2.2710   -3.2282 H   0  0  0  0  0  0  0  0  0  0  0  0
   -0.4797   -1.8979   -4.0836 H   0  0  0  0  0  0  0  0  0  0  0  0
    0.7165   -0.6149   -3.8106 H   0  0  0  0  0  0  0  0  0  0  0  0
   -0.2220    1.0471    0.9282 C   0  0  0  0  0  0  0  0  0  0  0  0
   -1.2093    1.7167    0.6451 O   0  0  0  0  0  0  0  0  0  0  0  0
    0.7502    1.5851    1.7509 N   0  0  0  0  0  0  0  0  0  0  0  0
    1.5337    0.9908    2.0059 H   0  0  0  0  0  0  0  0  0  0  0  0
    0.6798    2.9351    2.2959 C   0  0  0  0  0  0  0  0  0  0  0  0
   -0.2219    3.0567    2.9053 H   0  0  0  0  0  0  0  0  0  0  0  0
    1.5517    3.1341    2.9262 H   0  0  0  0  0  0  0  0  0  0  0  0
    0.6614    3.6736    1.4876 H   0  0  0  0  0  0  0  0  0  0  0  0
  1  2  1  0  0  0  0
  2  3  1  0  0  0  0
  2  4  1  0  0  0  0
  2  5  1  0  0  0  0
  5  6  2  0  0  0  0
  5  7  1  0  0  0  0
  7  8  1  0  0  0  0
  7  9  1  0  0  0  0
  9 10  1  0  0  0  0
  9 11  1  0  0  0  0
  9 24  1  0  0  0  0
 11 12  1  0  0  0  0
 11 13  1  0  0  0  0
 11 17  1  0  0  0  0
 13 14  1  0  0  0  0
 13 15  1  0  0  0  0
 13 16  1  0  0  0  0
 17 18  1  0  0  0  0
 17 19  1  0  0  0  0
 17 20  1  0  0  0  0
 20 21  1  0  0  0  0
 20 22  1  0  0  0  0
 20 23  1  0  0  0  0
 24 25  2  0  0  0  0
 24 26  1  0  0  0  0
 26 27  1  0  0  0  0
 26 28  1  0  0  0  0
 28 29  1  0  0  0  0
 28 30  1  0  0  0  0
 28 31  1  0  0  0  0
M  END
$$$$

  -OEChem-03222214053D

 31 30  0     1  0  0  0  0  0999 V2000
   -3.0230   -3.8507    1.7485 H   0  0  0  0  0  0  0  0  0  0  0  0
   -3.0459   -2.8510    1.3059 C   0  0  0  0  0  0  0  0  0  0  0  0
   -3.5930   -2.1823    1.9749 H   0  0  0  0  0  0  0  0  0  0  0  0
   -3.5664   -2.9017    0.3466 H   0  0  0  0  0  0  0  0  0  0  0  0
   -1.6334   -2.3369    1.1013 C   0  0  0  0  0  0  0  0  0  0  0  0
   -0.6792   -3.0373    1.4010 O   0  0  0  0  0  0  0  0  0  0  0  0
   -1.4346   -1.0744    0.5825 N   0  0  0  0  0  0  0  0  0  0  0  0
   -2.2572   -0.4929    0.4289 H   0  0  0  0  0  0  0  0  0  0  0  0
   -0.1240   -0.4197    0.4357 C   0  0  1  0  0  0  0  0  0  0  0  0
    0.5737   -0.9199    1.1154 H   0  0  0  0  0  0  0  0  0  0  0  0
    0.4696   -0.4446   -1.0154 C   0  0  1  0  0  0  0  0  0  0  0  0
    0.5891    0.5872   -1.3649 H   0  0  0  0  0  0  0  0  0  0  0  0
    1.8893   -1.0386   -0.9166 C   0  0  0  0  0  0  0  0  0  0  0  0
    1.8431   -2.1014   -0.6564 H   0  0  0  0  0  0  0  0  0  0  0  0
    2.4302   -0.9281   -1.8608 H   0  0  0  0  0  0  0  0  0  0  0  0
    2.4690   -0.5183   -0.1478 H   0  0  0  0  0  0  0  0  0  0  0  0
   -0.4149   -1.1600   -2.0852 C   0  0  0  0  0  0  0  0  0  0  0  0
   -0.9858   -1.9721   -1.6307 H   0  0  0  0  0  0  0  0  0  0  0  0
   -1.1322   -0.4359   -2.4846 H   0  0  0  0  0  0  0  0  0  0  0  0
    0.3452   -1.8189   -3.2424 C   0  0  0  0  0  0  0  0  0  0  0  0
    0.9714   -2.6423   -2.8857 H   0  0  0  0  0  0  0  0  0  0  0  0
   -0.3662   -2.2261   -3.9674 H   0  0  0  0  0  0  0  0  0  0  0  0
    0.9747   -1.0852   -3.7552 H   0  0  0  0  0  0  0  0  0  0  0  0
   -0.2258    1.0384    0.9277 C   0  0  0  0  0  0  0  0  0  0  0  0
   -1.2140    1.7097    0.6515 O   0  0  0  0  0  0  0  0  0  0  0  0
    0.7520    1.5751    1.7448 N   0  0  0  0  0  0  0  0  0  0  0  0
    1.5339    0.9785    1.9993 H   0  0  0  0  0  0  0  0  0  0  0  0
    0.6842    2.9241    2.2931 C   0  0  0  0  0  0  0  0  0  0  0  0
   -0.2084    3.0402    2.9167 H   0  0  0  0  0  0  0  0  0  0  0  0
    1.5651    3.1269    2.9096 H   0  0  0  0  0  0  0  0  0  0  0  0
    0.6491    3.6639    1.4865 H   0  0  0  0  0  0  0  0  0  0  0  0
  1  2  1  0  0  0  0
  2  3  1  0  0  0  0
  2  4  1  0  0  0  0
  2  5  1  0  0  0  0
  5  6  2  0  0  0  0
  5  7  1  0  0  0  0
  7  8  1  0  0  0  0
  7  9  1  0  0  0  0
  9 10  1  0  0  0  0
  9 11  1  0  0  0  0
  9 24  1  0  0  0  0
 11 12  1  0  0  0  0
 11 13  1  0  0  0  0
 11 17  1  0  0  0  0
 13 14  1  0  0  0  0
 13 15  1  0  0  0  0
 13 16  1  0  0  0  0
 17 18  1  0  0  0  0
 17 19  1  0  0  0  0
 17 20  1  0  0  0  0
 20 21  1  0  0  0  0
 20 22  1  0  0  0  0
 20 23  1  0  0  0  0
 24 25  2  0  0  0  0
 24 26  1  0  0  0  0
 26 27  1  0  0  0  0
 26 28  1  0  0  0  0
 28 29  1  0  0  0  0
 28 30  1  0  0  0  0
 28 31  1  0  0  0  0
M  END
$$$$

  -OEChem-03222214053D

 31 30  0     1  0  0  0  0  0999 V2000
   -3.0438   -3.8436    1.7640 H   0  0  0  0  0  0  0  0  0  0  0  0
   -3.0635   -2.8430    1.3229 C   0  0  0  0  0  0  0  0  0  0  0  0
   -3.6101   -2.1737    1.9918 H   0  0  0  0  0  0  0  0  0  0  0  0
   -3.5826   -2.8914    0.3626 H   0  0  0  0  0  0  0  0  0  0  0  0
   -1.6494   -2.3318    1.1212 C   0  0  0  0  0  0  0  0  0  0  0  0
   -0.6974   -3.0343    1.4235 O   0  0  0  0  0  0  0  0  0  0  0  0
   -1.4477   -1.0711    0.5990 N   0  0  0  0  0  0  0  0  0  0  0  0
   -2.2686   -0.4871    0.4463 H   0  0  0  0  0  0  0  0  0  0  0  0
   -0.1355   -0.4236    0.4409 C   0  0  1  0  0  0  0  0  0  0  0  0
    0.5607   -0.9250    1.1213 H   0  0  0  0  0  0  0  0  0  0  0  0
    0.4653   -0.4579   -1.0088 C   0  0  1  0  0  0  0  0  0  0  0  0
    0.5676    0.5765   -1.3561 H   0  0  0  0  0  0  0  0  0  0  0  0
    1.9020   -1.0073   -0.8969 C   0  0  0  0  0  0  0  0  0  0  0  0
    1.8908   -2.0601   -0.5964 H   0  0  0  0  0  0  0  0  0  0  0  0
    2.4342   -0.9139   -1.8478 H   0  0  0  0  0  0  0  0  0  0  0  0
    2.4692   -0.4425   -0.1504 H   0  0  0  0  0  0  0  0  0  0  0  0
   -0.3969   -1.1731   -2.1053 C   0  0  0  0  0  0  0  0  0  0  0  0
   -1.1893   -1.7768   -1.6631 H   0  0  0  0  0  0  0  0  0  0  0  0
   -0.8887   -0.4016   -2.7064 H   0  0  0  0  0  0  0  0  0  0  0  0
    0.3523   -2.1257   -3.0459 C   0  0  0  0  0  0  0  0  0  0  0  0
    0.8054   -2.9515   -2.4891 H   0  0  0  0  0  0  0  0  0  0  0  0
   -0.3462   -2.5518   -3.7725 H   0  0  0  0  0  0  0  0  0  0  0  0
    1.1316   -1.5928   -3.5987 H   0  0  0  0  0  0  0  0  0  0  0  0
   -0.2287    1.0356    0.9318 C   0  0  0  0  0  0  0  0  0  0  0  0
   -1.2162    1.7105    0.6620 O   0  0  0  0  0  0  0  0  0  0  0  0
    0.7573    1.5693    1.7411 N   0  0  0  0  0  0  0  0  0  0  0  0
    1.5360    0.9679    1.9939 H   0  0  0  0  0  0  0  0  0  0  0  0
    0.6955    2.9160    2.2954 C   0  0  0  0  0  0  0  0  0  0  0  0
   -0.1960    3.0324    2.9206 H   0  0  0  0  0  0  0  0  0  0  0  0
    1.5778    3.1120    2.9122 H   0  0  0  0  0  0  0  0  0  0  0  0
    0.6628    3.6597    1.4923 H   0  0  0  0  0  0  0  0  0  0  0  0
  1  2  1  0  0  0  0
  2  3  1  0  0  0  0
  2  4  1  0  0  0  0
  2  5  1  0  0  0  0
  5  6  2  0  0  0  0
  5  7  1  0  0  0  0
  7  8  1  0  0  0  0
  7  9  1  0  0  0  0
  9 10  1  0  0  0  0
  9 11  1  0  0  0  0
  9 24  1  0  0  0  0
 11 12  1  0  0  0  0
 11 13  1  0  0  0  0
 11 17  1  0  0  0  0
 13 14  1  0  0  0  0
 13 15  1  0  0  0  0
 13 16  1  0  0  0  0
 17 18  1  0  0  0  0
 17 19  1  0  0  0  0
 17 20  1  0  0  0  0
 20 21  1  0  0  0  0
 20 22  1  0  0  0  0
 20 23  1  0  0  0  0
 24 25  2  0  0  0  0
 24 26  1  0  0  0  0
 26 27  1  0  0  0  0
 26 28  1  0  0  0  0
 28 29  1  0  0  0  0
 28 30  1  0  0  0  0
 28 31  1  0  0  0  0
M  END
$$$$

  -OEChem-03222214053D

 31 30  0     1  0  0  0  0  0999 V2000
   -3.0550   -3.8373    1.7677 H   0  0  0  0  0  0  0  0  0  0  0  0
   -3.0738   -2.8379    1.3243 C   0  0  0  0  0  0  0  0  0  0  0  0
   -3.6186   -2.1667    1.9925 H   0  0  0  0  0  0  0  0  0  0  0  0
   -3.5940   -2.8876    0.3648 H   0  0  0  0  0  0  0  0  0  0  0  0
   -1.6592   -2.3296    1.1197 C   0  0  0  0  0  0  0  0  0  0  0  0
   -0.7082   -3.0353    1.4173 O   0  0  0  0  0  0  0  0  0  0  0  0
   -1.4559   -1.0678    0.6015 N   0  0  0  0  0  0  0  0  0  0  0  0
   -2.2757   -0.4810    0.4541 H   0  0  0  0  0  0  0  0  0  0  0  0
   -0.1426   -0.4224    0.4464 C   0  0  1  0  0  0  0  0  0  0  0  0
    0.5514   -0.9270    1.1265 H   0  0  0  0  0  0  0  0  0  0  0  0
    0.4640   -0.4694   -0.9996 C   0  0  1  0  0  0  0  0  0  0  0  0
    0.5370    0.5679   -1.3464 H   0  0  0  0  0  0  0  0  0  0  0  0
    1.9166   -0.9738   -0.8978 C   0  0  0  0  0  0  0  0  0  0  0  0
    1.9453   -2.0189   -0.5730 H   0  0  0  0  0  0  0  0  0  0  0  0
    2.4270   -0.8855   -1.8613 H   0  0  0  0  0  0  0  0  0  0  0  0
    2.4766   -0.3746   -0.1730 H   0  0  0  0  0  0  0  0  0  0  0  0
   -0.3862   -1.1898   -2.1025 C   0  0  0  0  0  0  0  0  0  0  0  0
   -1.3568   -1.5185   -1.7316 H   0  0  0  0  0  0  0  0  0  0  0  0
   -0.6003   -0.4528   -2.8834 H   0  0  0  0  0  0  0  0  0  0  0  0
    0.2711   -2.3967   -2.7840 C   0  0  0  0  0  0  0  0  0  0  0  0
    0.5135   -3.1697   -2.0481 H   0  0  0  0  0  0  0  0  0  0  0  0
   -0.4192   -2.8284   -3.5149 H   0  0  0  0  0  0  0  0  0  0  0  0
    1.1822   -2.1047   -3.3141 H   0  0  0  0  0  0  0  0  0  0  0  0
   -0.2293    1.0365    0.9405 C   0  0  0  0  0  0  0  0  0  0  0  0
   -1.2138    1.7158    0.6711 O   0  0  0  0  0  0  0  0  0  0  0  0
    0.7583    1.5655    1.7509 N   0  0  0  0  0  0  0  0  0  0  0  0
    1.5348    0.9610    2.0033 H   0  0  0  0  0  0  0  0  0  0  0  0
    0.7029    2.9134    2.3031 C   0  0  0  0  0  0  0  0  0  0  0  0
   -0.1869    3.0347    2.9298 H   0  0  0  0  0  0  0  0  0  0  0  0
    1.5873    3.1074    2.9175 H   0  0  0  0  0  0  0  0  0  0  0  0
    0.6716    3.6555    1.4984 H   0  0  0  0  0  0  0  0  0  0  0  0
  1  2  1  0  0  0  0
  2  3  1  0  0  0  0
  2  4  1  0  0  0  0
  2  5  1  0  0  0  0
  5  6  2  0  0  0  0
  5  7  1  0  0  0  0
  7  8  1  0  0  0  0
  7  9  1  0  0  0  0
  9 10  1  0  0  0  0
  9 11  1  0  0  0  0
  9 24  1  0  0  0  0
 11 12  1  0  0  0  0
 11 13  1  0  0  0  0
 11 17  1  0  0  0  0
 13 14  1  0  0  0  0
 13 15  1  0  0  0  0
 13 16  1  0  0  0  0
 17 18  1  0  0  0  0
 17 19  1  0  0  0  0
 17 20  1  0  0  0  0
 20 21  1  0  0  0  0
 20 22  1  0  0  0  0
 20 23  1  0  0  0  0
 24 25  2  0  0  0  0
 24 26  1  0  0  0  0
 26 27  1  0  0  0  0
 26 28  1  0  0  0  0
 28 29  1  0  0  0  0
 28 30  1  0  0  0  0
 28 31  1  0  0  0  0
M  END
$$$$

  -OEChem-03222214053D

 31 30  0     1  0  0  0  0  0999 V2000
   -3.0493   -3.8427    1.7272 H   0  0  0  0  0  0  0  0  0  0  0  0
   -3.0663   -2.8402    1.2906 C   0  0  0  0  0  0  0  0  0  0  0  0
   -3.6271   -2.1769    1.9534 H   0  0  0  0  0  0  0  0  0  0  0  0
   -3.5688   -2.8861    0.3215 H   0  0  0  0  0  0  0  0  0  0  0  0
   -1.6514   -2.3225    1.1145 C   0  0  0  0  0  0  0  0  0  0  0  0
   -0.7017   -3.0227    1.4294 O   0  0  0  0  0  0  0  0  0  0  0  0
   -1.4469   -1.0603    0.5982 N   0  0  0  0  0  0  0  0  0  0  0  0
   -2.2672   -0.4791    0.4339 H   0  0  0  0  0  0  0  0  0  0  0  0
   -0.1341   -0.4119    0.4528 C   0  0  1  0  0  0  0  0  0  0  0  0
    0.5605   -0.9158    1.1325 H   0  0  0  0  0  0  0  0  0  0  0  0
    0.4692   -0.4691   -0.9909 C   0  0  1  0  0  0  0  0  0  0  0  0
    0.5257    0.5669   -1.3441 H   0  0  0  0  0  0  0  0  0  0  0  0
    1.9241   -0.9651   -0.9173 C   0  0  0  0  0  0  0  0  0  0  0  0
    1.9693   -1.9935   -0.5447 H   0  0  0  0  0  0  0  0  0  0  0  0
    2.3934   -0.9245   -1.9049 H   0  0  0  0  0  0  0  0  0  0  0  0
    2.5070   -0.3302   -0.2431 H   0  0  0  0  0  0  0  0  0  0  0  0
   -0.3898   -1.1968   -2.0741 C   0  0  0  0  0  0  0  0  0  0  0  0
   -1.4448   -1.2489   -1.7992 H   0  0  0  0  0  0  0  0  0  0  0  0
   -0.3539   -0.5827   -2.9799 H   0  0  0  0  0  0  0  0  0  0  0  0
    0.0971   -2.5943   -2.4757 C   0  0  0  0  0  0  0  0  0  0  0  0
    0.1404   -3.2487   -1.5992 H   0  0  0  0  0  0  0  0  0  0  0  0
   -0.5965   -3.0340   -3.1985 H   0  0  0  0  0  0  0  0  0  0  0  0
    1.0863   -2.5534   -2.9406 H   0  0  0  0  0  0  0  0  0  0  0  0
   -0.2225    1.0470    0.9453 C   0  0  0  0  0  0  0  0  0  0  0  0
   -1.2049    1.7270    0.6697 O   0  0  0  0  0  0  0  0  0  0  0  0
    0.7611    1.5744    1.7615 N   0  0  0  0  0  0  0  0  0  0  0  0
    1.5340    0.9678    2.0199 H   0  0  0  0  0  0  0  0  0  0  0  0
    0.7001    2.9189    2.3210 C   0  0  0  0  0  0  0  0  0  0  0  0
   -0.1959    3.0365    2.9396 H   0  0  0  0  0  0  0  0  0  0  0  0
    1.5782    3.1088    2.9454 H   0  0  0  0  0  0  0  0  0  0  0  0
    0.6768    3.6661    1.5208 H   0  0  0  0  0  0  0  0  0  0  0  0
  1  2  1  0  0  0  0
  2  3  1  0  0  0  0
  2  4  1  0  0  0  0
  2  5  1  0  0  0  0
  5  6  2  0  0  0  0
  5  7  1  0  0  0  0
  7  8  1  0  0  0  0
  7  9  1  0  0  0  0
  9 10  1  0  0  0  0
  9 11  1  0  0  0  0
  9 24  1  0  0  0  0
 11 12  1  0  0  0  0
 11 13  1  0  0  0  0
 11 17  1  0  0  0  0
 13 14  1  0  0  0  0
 13 15  1  0  0  0  0
 13 16  1  0  0  0  0
 17 18  1  0  0  0  0
 17 19  1  0  0  0  0
 17 20  1  0  0  0  0
 20 21  1  0  0  0  0
 20 22  1  0  0  0  0
 20 23  1  0  0  0  0
 24 25  2  0  0  0  0
 24 26  1  0  0  0  0
 26 27  1  0  0  0  0
 26 28  1  0  0  0  0
 28 29  1  0  0  0  0
 28 30  1  0  0  0  0
 28 31  1  0  0  0  0
M  END
$$$$

  -OEChem-03222214053D

 31 30  0     1  0  0  0  0  0999 V2000
   -3.0457   -3.8492    1.7190 H   0  0  0  0  0  0  0  0  0  0  0  0
   -3.0563   -2.8518    1.2705 C   0  0  0  0  0  0  0  0  0  0  0  0
   -3.6411   -2.1848    1.9085 H   0  0  0  0  0  0  0  0  0  0  0  0
   -3.5293   -2.9122    0.2873 H   0  0  0  0  0  0  0  0  0  0  0  0
   -1.6404   -2.3257    1.1312 C   0  0  0  0  0  0  0  0  0  0  0  0
   -0.6965   -3.0115    1.4921 O   0  0  0  0  0  0  0  0  0  0  0  0
   -1.4296   -1.0676    0.6075 N   0  0  0  0  0  0  0  0  0  0  0  0
   -2.2489   -0.4960    0.4086 H   0  0  0  0  0  0  0  0  0  0  0  0
   -0.1164   -0.4165    0.4720 C   0  0  1  0  0  0  0  0  0  0  0  0
    0.5816   -0.9158    1.1516 H   0  0  0  0  0  0  0  0  0  0  0  0
    0.4800   -0.4592   -0.9740 C   0  0  1  0  0  0  0  0  0  0  0  0
    0.5493    0.5778   -1.3224 H   0  0  0  0  0  0  0  0  0  0  0  0
    1.9215   -0.9925   -0.9264 C   0  0  0  0  0  0  0  0  0  0  0  0
    1.9503   -2.0091   -0.5210 H   0  0  0  0  0  0  0  0  0  0  0  0
    2.3584   -1.0011   -1.9299 H   0  0  0  0  0  0  0  0  0  0  0  0
    2.5413   -0.3523   -0.2911 H   0  0  0  0  0  0  0  0  0  0  0  0
   -0.3883   -1.1740   -2.0484 C   0  0  0  0  0  0  0  0  0  0  0  0
   -1.4523   -0.9969   -1.8702 H   0  0  0  0  0  0  0  0  0  0  0  0
   -0.1639   -0.7127   -3.0156 H   0  0  0  0  0  0  0  0  0  0  0  0
   -0.1295   -2.6781   -2.2021 C   0  0  0  0  0  0  0  0  0  0  0  0
   -0.2507   -3.1920   -1.2448 H   0  0  0  0  0  0  0  0  0  0  0  0
   -0.8410   -3.1053   -2.9149 H   0  0  0  0  0  0  0  0  0  0  0  0
    0.8800   -2.8684   -2.5776 H   0  0  0  0  0  0  0  0  0  0  0  0
   -0.2189    1.0451    0.9536 C   0  0  0  0  0  0  0  0  0  0  0  0
   -1.1975    1.7211    0.6557 O   0  0  0  0  0  0  0  0  0  0  0  0
    0.7524    1.5820    1.7779 N   0  0  0  0  0  0  0  0  0  0  0  0
    1.5237    0.9801    2.0515 H   0  0  0  0  0  0  0  0  0  0  0  0
    0.6881    2.9363    2.3128 C   0  0  0  0  0  0  0  0  0  0  0  0
   -0.2122    3.0654    2.9227 H   0  0  0  0  0  0  0  0  0  0  0  0
    1.5622    3.1375    2.9397 H   0  0  0  0  0  0  0  0  0  0  0  0
    0.6708    3.6687    1.4988 H   0  0  0  0  0  0  0  0  0  0  0  0
  1  2  1  0  0  0  0
  2  3  1  0  0  0  0
  2  4  1  0  0  0  0
  2  5  1  0  0  0  0
  5  6  2  0  0  0  0
  5  7  1  0  0  0  0
  7  8  1  0  0  0  0
  7  9  1  0  0  0  0
  9 10  1  0  0  0  0
  9 11  1  0  0  0  0
  9 24  1  0  0  0  0
 11 12  1  0  0  0  0
 11 13  1  0  0  0  0
 11 17  1  0  0  0  0
 13 14  1  0  0  0  0
 13 15  1  0  0  0  0
 13 16  1  0  0  0  0
 17 18  1  0  0  0  0
 17 19  1  0  0  0  0
 17 20  1  0  0  0  0
 20 21  1  0  0  0  0
 20 22  1  0  0  0  0
 20 23  1  0  0  0  0
 24 25  2  0  0  0  0
 24 26  1  0  0  0  0
 26 27  1  0  0  0  0
 26 28  1  0  0  0  0
 28 29  1  0  0  0  0
 28 30  1  0  0  0  0
 28 31  1  0  0  0  0
M  END
$$$$

  -OEChem-03222214053D

 31 30  0     1  0  0  0  0  0999 V2000
   -3.0466   -3.8453    1.7853 H   0  0  0  0  0  0  0  0  0  0  0  0
   -3.0507   -2.8538    1.3242 C   0  0  0  0  0  0  0  0  0  0  0  0
   -3.6503   -2.1803    1.9413 H   0  0  0  0  0  0  0  0  0  0  0  0
   -3.5032   -2.9289    0.3325 H   0  0  0  0  0  0  0  0  0  0  0  0
   -1.6338   -2.3251    1.2075 C   0  0  0  0  0  0  0  0  0  0  0  0
   -0.6967   -2.9936    1.6161 O   0  0  0  0  0  0  0  0  0  0  0  0
   -1.4129   -1.0814    0.6534 N   0  0  0  0  0  0  0  0  0  0  0  0
   -2.2290   -0.5198    0.4160 H   0  0  0  0  0  0  0  0  0  0  0  0
   -0.0978   -0.4366    0.5039 C   0  0  1  0  0  0  0  0  0  0  0  0
    0.6091   -0.9228    1.1840 H   0  0  0  0  0  0  0  0  0  0  0  0
    0.4896   -0.4548   -0.9494 C   0  0  1  0  0  0  0  0  0  0  0  0
    0.5947    0.5849   -1.2801 H   0  0  0  0  0  0  0  0  0  0  0  0
    1.9068   -1.0479   -0.9134 C   0  0  0  0  0  0  0  0  0  0  0  0
    1.8928   -2.0695   -0.5198 H   0  0  0  0  0  0  0  0  0  0  0  0
    2.3396   -1.0662   -1.9186 H   0  0  0  0  0  0  0  0  0  0  0  0
    2.5558   -0.4415   -0.2740 H   0  0  0  0  0  0  0  0  0  0  0  0
   -0.3590   -1.1376   -2.0546 C   0  0  0  0  0  0  0  0  0  0  0  0
   -1.3872   -0.7684   -1.9859 H   0  0  0  0  0  0  0  0  0  0  0  0
    0.0262   -0.8180   -3.0282 H   0  0  0  0  0  0  0  0  0  0  0  0
   -0.3821   -2.6730   -2.0467 C   0  0  0  0  0  0  0  0  0  0  0  0
   -0.6780   -3.0746   -1.0798 H   0  0  0  0  0  0  0  0  0  0  0  0
   -1.0917   -3.0336   -2.7972 H   0  0  0  0  0  0  0  0  0  0  0  0
    0.6052   -3.0731   -2.2954 H   0  0  0  0  0  0  0  0  0  0  0  0
   -0.2205    1.0338    0.9568 C   0  0  0  0  0  0  0  0  0  0  0  0
   -1.2010    1.6968    0.6354 O   0  0  0  0  0  0  0  0  0  0  0  0
    0.7407    1.5971    1.7756 N   0  0  0  0  0  0  0  0  0  0  0  0
    1.5133    1.0068    2.0701 H   0  0  0  0  0  0  0  0  0  0  0  0
    0.6597    2.9612    2.2830 C   0  0  0  0  0  0  0  0  0  0  0  0
   -0.2519    3.0965    2.8746 H   0  0  0  0  0  0  0  0  0  0  0  0
    1.5214    3.1795    2.9212 H   0  0  0  0  0  0  0  0  0  0  0  0
    0.6526    3.6782    1.4553 H   0  0  0  0  0  0  0  0  0  0  0  0
  1  2  1  0  0  0  0
  2  3  1  0  0  0  0
  2  4  1  0  0  0  0
  2  5  1  0  0  0  0
  5  6  2  0  0  0  0
  5  7  1  0  0  0  0
  7  8  1  0  0  0  0
  7  9  1  0  0  0  0
  9 10  1  0  0  0  0
  9 11  1  0  0  0  0
  9 24  1  0  0  0  0
 11 12  1  0  0  0  0
 11 13  1  0  0  0  0
 11 17  1  0  0  0  0
 13 14  1  0  0  0  0
 13 15  1  0  0  0  0
 13 16  1  0  0  0  0
 17 18  1  0  0  0  0
 17 19  1  0  0  0  0
 17 20  1  0  0  0  0
 20 21  1  0  0  0  0
 20 22  1  0  0  0  0
 20 23  1  0  0  0  0
 24 25  2  0  0  0  0
 24 26  1  0  0  0  0
 26 27  1  0  0  0  0
 26 28  1  0  0  0  0
 28 29  1  0  0  0  0
 28 30  1  0  0  0  0
 28 31  1  0  0  0  0
M  END
$$$$

  -OEChem-03222214053D

 31 30  0     1  0  0  0  0  0999 V2000
   -3.0001   -3.8460    1.8722 H   0  0  0  0  0  0  0  0  0  0  0  0
   -3.0262   -2.8388    1.4471 C   0  0  0  0  0  0  0  0  0  0  0  0
   -3.5576   -2.1784    2.1366 H   0  0  0  0  0  0  0  0  0  0  0  0
   -3.5642   -2.8713    0.4967 H   0  0  0  0  0  0  0  0  0  0  0  0
   -1.6148   -2.3283    1.2264 C   0  0  0  0  0  0  0  0  0  0  0  0
   -0.6600   -3.0148    1.5560 O   0  0  0  0  0  0  0  0  0  0  0  0
   -1.4182   -1.0812    0.6691 N   0  0  0  0  0  0  0  0  0  0  0  0
   -2.2404   -0.5052    0.4948 H   0  0  0  0  0  0  0  0  0  0  0  0
   -0.1081   -0.4358    0.5010 C   0  0  1  0  0  0  0  0  0  0  0  0
    0.6044   -0.9186    1.1776 H   0  0  0  0  0  0  0  0  0  0  0  0
    0.4744   -0.4523   -0.9531 C   0  0  1  0  0  0  0  0  0  0  0  0
    0.5923    0.5874   -1.2795 H   0  0  0  0  0  0  0  0  0  0  0  0
    1.8892   -1.0548   -0.9085 C   0  0  0  0  0  0  0  0  0  0  0  0
    1.8695   -2.0772   -0.5185 H   0  0  0  0  0  0  0  0  0  0  0  0
    2.3328   -1.0721   -1.9088 H   0  0  0  0  0  0  0  0  0  0  0  0
    2.5358   -0.4540   -0.2613 H   0  0  0  0  0  0  0  0  0  0  0  0
   -0.3478   -1.1296   -2.0842 C   0  0  0  0  0  0  0  0  0  0  0  0
   -1.2880   -0.5823   -2.2071 H   0  0  0  0  0  0  0  0  0  0  0  0
    0.2131   -1.0069   -3.0166 H   0  0  0  0  0  0  0  0  0  0  0  0
   -0.6787   -2.6220   -1.9381 C   0  0  0  0  0  0  0  0  0  0  0  0
   -1.5851   -2.7704   -1.3509 H   0  0  0  0  0  0  0  0  0  0  0  0
   -0.8614   -3.0527   -2.9272 H   0  0  0  0  0  0  0  0  0  0  0  0
    0.1423   -3.1736   -1.4732 H   0  0  0  0  0  0  0  0  0  0  0  0
   -0.2288    1.0333    0.9587 C   0  0  0  0  0  0  0  0  0  0  0  0
   -1.2221    1.6898    0.6643 O   0  0  0  0  0  0  0  0  0  0  0  0
    0.7423    1.5984    1.7645 N   0  0  0  0  0  0  0  0  0  0  0  0
    1.5281    1.0143    2.0353 H   0  0  0  0  0  0  0  0  0  0  0  0
    0.6614    2.9591    2.2806 C   0  0  0  0  0  0  0  0  0  0  0  0
   -0.2377    3.0841    2.8933 H   0  0  0  0  0  0  0  0  0  0  0  0
    1.5354    3.1810    2.9003 H   0  0  0  0  0  0  0  0  0  0  0  0
    0.6301    3.6798    1.4568 H   0  0  0  0  0  0  0  0  0  0  0  0
  1  2  1  0  0  0  0
  2  3  1  0  0  0  0
  2  4  1  0  0  0  0
  2  5  1  0  0  0  0
  5  6  2  0  0  0  0
  5  7  1  0  0  0  0
  7  8  1  0  0  0  0
  7  9  1  0  0  0  0
  9 10  1  0  0  0  0
  9 11  1  0  0  0  0
  9 24  1  0  0  0  0
 11 12  1  0  0  0  0
 11 13  1  0  0  0  0
 11 17  1  0  0  0  0
 13 14  1  0  0  0  0
 13 15  1  0  0  0  0
 13 16  1  0  0  0  0
 17 18  1  0  0  0  0
 17 19  1  0  0  0  0
 17 20  1  0  0  0  0
 20 21  1  0  0  0  0
 20 22  1  0  0  0  0
 20 23  1  0  0  0  0
 24 25  2  0  0  0  0
 24 26  1  0  0  0  0
 26 27  1  0  0  0  0
 26 28  1  0  0  0  0
 28 29  1  0  0  0  0
 28 30  1  0  0  0  0
 28 31  1  0  0  0  0
M  END
$$$$

  -OEChem-03222214053D

 31 30  0     1  0  0  0  0  0999 V2000
   -3.0050   -3.8238    1.9465 H   0  0  0  0  0  0  0  0  0  0  0  0
   -3.0319   -2.8256    1.5008 C   0  0  0  0  0  0  0  0  0  0  0  0
   -3.5640   -2.1518    2.1767 H   0  0  0  0  0  0  0  0  0  0  0  0
   -3.5703   -2.8784    0.5515 H   0  0  0  0  0  0  0  0  0  0  0  0
   -1.6212   -2.3181    1.2690 C   0  0  0  0  0  0  0  0  0  0  0  0
   -0.6656   -3.0034    1.5985 O   0  0  0  0  0  0  0  0  0  0  0  0
   -1.4269   -1.0738    0.7039 N   0  0  0  0  0  0  0  0  0  0  0  0
   -2.2499   -0.4990    0.5294 H   0  0  0  0  0  0  0  0  0  0  0  0
   -0.1184   -0.4327    0.5154 C   0  0  1  0  0  0  0  0  0  0  0  0
    0.5955   -0.9110    1.1939 H   0  0  0  0  0  0  0  0  0  0  0  0
    0.4684   -0.4437   -0.9418 C   0  0  1  0  0  0  0  0  0  0  0  0
    0.6269    0.5950   -1.2539 H   0  0  0  0  0  0  0  0  0  0  0  0
    1.8588   -1.1007   -0.8749 C   0  0  0  0  0  0  0  0  0  0  0  0
    1.7777   -2.1469   -0.5628 H   0  0  0  0  0  0  0  0  0  0  0  0
    2.3524   -1.0671   -1.8512 H   0  0  0  0  0  0  0  0  0  0  0  0
    2.4974   -0.5736   -0.1591 H   0  0  0  0  0  0  0  0  0  0  0  0
   -0.3145   -1.1070   -2.1132 C   0  0  0  0  0  0  0  0  0  0  0  0
   -1.1197   -0.4250   -2.4052 H   0  0  0  0  0  0  0  0  0  0  0  0
    0.3574   -1.1823   -2.9744 H   0  0  0  0  0  0  0  0  0  0  0  0
   -0.9468   -2.4852   -1.8909 C   0  0  0  0  0  0  0  0  0  0  0  0
   -1.9303   -2.3981   -1.4256 H   0  0  0  0  0  0  0  0  0  0  0  0
   -1.0886   -2.9824   -2.8552 H   0  0  0  0  0  0  0  0  0  0  0  0
   -0.3031   -3.1175   -1.2725 H   0  0  0  0  0  0  0  0  0  0  0  0
   -0.2377    1.0376    0.9702 C   0  0  0  0  0  0  0  0  0  0  0  0
   -1.2342    1.6925    0.6829 O   0  0  0  0  0  0  0  0  0  0  0  0
    0.7419    1.6067    1.7628 N   0  0  0  0  0  0  0  0  0  0  0  0
    1.5295    1.0233    2.0298 H   0  0  0  0  0  0  0  0  0  0  0  0
    0.6612    2.9660    2.2828 C   0  0  0  0  0  0  0  0  0  0  0  0
   -0.2273    3.0838    2.9120 H   0  0  0  0  0  0  0  0  0  0  0  0
    1.5450    3.1929    2.8868 H   0  0  0  0  0  0  0  0  0  0  0  0
    0.6096    3.6880    1.4610 H   0  0  0  0  0  0  0  0  0  0  0  0
  1  2  1  0  0  0  0
  2  3  1  0  0  0  0
  2  4  1  0  0  0  0
  2  5  1  0  0  0  0
  5  6  2  0  0  0  0
  5  7  1  0  0  0  0
  7  8  1  0  0  0  0
  7  9  1  0  0  0  0
  9 10  1  0  0  0  0
  9 11  1  0  0  0  0
  9 24  1  0  0  0  0
 11 12  1  0  0  0  0
 11 13  1  0  0  0  0
 11 17  1  0  0  0  0
 13 14  1  0  0  0  0
 13 15  1  0  0  0  0
 13 16  1  0  0  0  0
 17 18  1  0  0  0  0
 17 19  1  0  0  0  0
 17 20  1  0  0  0  0
 20 21  1  0  0  0  0
 20 22  1  0  0  0  0
 20 23  1  0  0  0  0
 24 25  2  0  0  0  0
 24 26  1  0  0  0  0
 26 27  1  0  0  0  0
 26 28  1  0  0  0  0
 28 29  1  0  0  0  0
 28 30  1  0  0  0  0
 28 31  1  0  0  0  0
M  END
$$$$

  -OEChem-03222214053D

 31 30  0     1  0  0  0  0  0999 V2000
   -2.9631   -3.8199    2.0652 H   0  0  0  0  0  0  0  0  0  0  0  0
   -3.0056   -2.8334    1.5954 C   0  0  0  0  0  0  0  0  0  0  0  0
   -3.5302   -2.1470    2.2644 H   0  0  0  0  0  0  0  0  0  0  0  0
   -3.5609   -2.9131    0.6578 H   0  0  0  0  0  0  0  0  0  0  0  0
   -1.6031   -2.3223    1.3244 C   0  0  0  0  0  0  0  0  0  0  0  0
   -0.6368   -3.0074    1.6219 O   0  0  0  0  0  0  0  0  0  0  0  0
   -1.4276   -1.0768    0.7561 N   0  0  0  0  0  0  0  0  0  0  0  0
   -2.2568   -0.5039    0.6066 H   0  0  0  0  0  0  0  0  0  0  0  0
   -0.1285   -0.4320    0.5261 C   0  0  1  0  0  0  0  0  0  0  0  0
    0.6001   -0.9070    1.1910 H   0  0  0  0  0  0  0  0  0  0  0  0
    0.4379   -0.4338   -0.9437 C   0  0  1  0  0  0  0  0  0  0  0  0
    0.6039    0.6072   -1.2442 H   0  0  0  0  0  0  0  0  0  0  0  0
    1.8266   -1.0974   -0.8808 C   0  0  0  0  0  0  0  0  0  0  0  0
    1.7323   -2.1564   -0.6175 H   0  0  0  0  0  0  0  0  0  0  0  0
    2.3400   -1.0224   -1.8446 H   0  0  0  0  0  0  0  0  0  0  0  0
    2.4560   -0.6057   -0.1325 H   0  0  0  0  0  0  0  0  0  0  0  0
   -0.3271   -1.0886   -2.1398 C   0  0  0  0  0  0  0  0  0  0  0  0
   -0.9568   -0.3094   -2.5816 H   0  0  0  0  0  0  0  0  0  0  0  0
    0.3966   -1.3706   -2.9114 H   0  0  0  0  0  0  0  0  0  0  0  0
   -1.2384   -2.2940   -1.9009 C   0  0  0  0  0  0  0  0  0  0  0  0
   -2.1883   -1.9912   -1.4546 H   0  0  0  0  0  0  0  0  0  0  0  0
   -1.4678   -2.7733   -2.8574 H   0  0  0  0  0  0  0  0  0  0  0  0
   -0.7432   -3.0312   -1.2623 H   0  0  0  0  0  0  0  0  0  0  0  0
   -0.2429    1.0364    0.9886 C   0  0  0  0  0  0  0  0  0  0  0  0
   -1.2519    1.6856    0.7335 O   0  0  0  0  0  0  0  0  0  0  0  0
    0.7568    1.6114    1.7514 N   0  0  0  0  0  0  0  0  0  0  0  0
    1.5540    1.0318    1.9976 H   0  0  0  0  0  0  0  0  0  0  0  0
    0.6831    2.9704    2.2731 C   0  0  0  0  0  0  0  0  0  0  0  0
   -0.1753    3.0765    2.9449 H   0  0  0  0  0  0  0  0  0  0  0  0
    1.5922    3.2109    2.8327 H   0  0  0  0  0  0  0  0  0  0  0  0
    0.5815    3.6901    1.4539 H   0  0  0  0  0  0  0  0  0  0  0  0
  1  2  1  0  0  0  0
  2  3  1  0  0  0  0
  2  4  1  0  0  0  0
  2  5  1  0  0  0  0
  5  6  2  0  0  0  0
  5  7  1  0  0  0  0
  7  8  1  0  0  0  0
  7  9  1  0  0  0  0
  9 10  1  0  0  0  0
  9 11  1  0  0  0  0
  9 24  1  0  0  0  0
 11 12  1  0  0  0  0
 11 13  1  0  0  0  0
 11 17  1  0  0  0  0
 13 14  1  0  0  0  0
 13 15  1  0  0  0  0
 13 16  1  0  0  0  0
 17 18  1  0  0  0  0
 17 19  1  0  0  0  0
 17 20  1  0  0  0  0
 20 21  1  0  0  0  0
 20 22  1  0  0  0  0
 20 23  1  0  0  0  0
 24 25  2  0  0  0  0
 24 26  1  0  0  0  0
 26 27  1  0  0  0  0
 26 28  1  0  0  0  0
 28 29  1  0  0  0  0
 28 30  1  0  0  0  0
 28 31  1  0  0  0  0
M  END
$$$$

  -OEChem-03222214053D

 31 30  0     1  0  0  0  0  0999 V2000
   -2.9533   -3.8233    2.1059 H   0  0  0  0  0  0  0  0  0  0  0  0
   -3.0022   -2.8391    1.6317 C   0  0  0  0  0  0  0  0  0  0  0  0
   -3.5233   -2.1508    2.3016 H   0  0  0  0  0  0  0  0  0  0  0  0
   -3.5641   -2.9249    0.6985 H   0  0  0  0  0  0  0  0  0  0  0  0
   -1.6037   -2.3252    1.3467 C   0  0  0  0  0  0  0  0  0  0  0  0
   -0.6333   -3.0148    1.6193 O   0  0  0  0  0  0  0  0  0  0  0  0
   -1.4365   -1.0761    0.7847 N   0  0  0  0  0  0  0  0  0  0  0  0
   -2.2677   -0.5017    0.6526 H   0  0  0  0  0  0  0  0  0  0  0  0
   -0.1414   -0.4321    0.5340 C   0  0  1  0  0  0  0  0  0  0  0  0
    0.5936   -0.9118    1.1882 H   0  0  0  0  0  0  0  0  0  0  0  0
    0.4159   -0.4314   -0.9416 C   0  0  1  0  0  0  0  0  0  0  0  0
    0.5642    0.6147   -1.2339 H   0  0  0  0  0  0  0  0  0  0  0  0
    1.8201   -1.0626   -0.8859 C   0  0  0  0  0  0  0  0  0  0  0  0
    1.7505   -2.1268   -0.6362 H   0  0  0  0  0  0  0  0  0  0  0  0
    2.3302   -0.9620   -1.8493 H   0  0  0  0  0  0  0  0  0  0  0  0
    2.4388   -0.5661   -0.1317 H   0  0  0  0  0  0  0  0  0  0  0  0
   -0.3386   -1.0802   -2.1542 C   0  0  0  0  0  0  0  0  0  0  0  0
   -0.7436   -0.2553   -2.7497 H   0  0  0  0  0  0  0  0  0  0  0  0
    0.3852   -1.5924   -2.7964 H   0  0  0  0  0  0  0  0  0  0  0  0
   -1.4980   -2.0517   -1.9357 C   0  0  0  0  0  0  0  0  0  0  0  0
   -2.3635   -1.5436   -1.5028 H   0  0  0  0  0  0  0  0  0  0  0  0
   -1.8107   -2.4685   -2.8978 H   0  0  0  0  0  0  0  0  0  0  0  0
   -1.1882   -2.8817   -1.2949 H   0  0  0  0  0  0  0  0  0  0  0  0
   -0.2464    1.0328    1.0102 C   0  0  0  0  0  0  0  0  0  0  0  0
   -1.2592    1.6847    0.7784 O   0  0  0  0  0  0  0  0  0  0  0  0
    0.7679    1.6016    1.7582 N   0  0  0  0  0  0  0  0  0  0  0  0
    1.5718    1.0216    1.9803 H   0  0  0  0  0  0  0  0  0  0  0  0
    0.7084    2.9594    2.2850 C   0  0  0  0  0  0  0  0  0  0  0  0
   -0.1508    3.0745    2.9542 H   0  0  0  0  0  0  0  0  0  0  0  0
    1.6182    3.1867    2.8487 H   0  0  0  0  0  0  0  0  0  0  0  0
    0.6183    3.6829    1.4679 H   0  0  0  0  0  0  0  0  0  0  0  0
  1  2  1  0  0  0  0
  2  3  1  0  0  0  0
  2  4  1  0  0  0  0
  2  5  1  0  0  0  0
  5  6  2  0  0  0  0
  5  7  1  0  0  0  0
  7  8  1  0  0  0  0
  7  9  1  0  0  0  0
  9 10  1  0  0  0  0
  9 11  1  0  0  0  0
  9 24  1  0  0  0  0
 11 12  1  0  0  0  0
 11 13  1  0  0  0  0
 11 17  1  0  0  0  0
 13 14  1  0  0  0  0
 13 15  1  0  0  0  0
 13 16  1  0  0  0  0
 17 18  1  0  0  0  0
 17 19  1  0  0  0  0
 17 20  1  0  0  0  0
 20 21  1  0  0  0  0
 20 22  1  0  0  0  0
 20 23  1  0  0  0  0
 24 25  2  0  0  0  0
 24 26  1  0  0  0  0
 26 27  1  0  0  0  0
 26 28  1  0  0  0  0
 28 29  1  0  0  0  0
 28 30  1  0  0  0  0
 28 31  1  0  0  0  0
M  END
$$$$

  -OEChem-03222214053D

 31 30  0     1  0  0  0  0  0999 V2000
   -2.9460   -3.8508    2.0726 H   0  0  0  0  0  0  0  0  0  0  0  0
   -2.9995   -2.8530    1.6286 C   0  0  0  0  0  0  0  0  0  0  0  0
   -3.4989   -2.1813    2.3310 H   0  0  0  0  0  0  0  0  0  0  0  0
   -3.5858   -2.9078    0.7082 H   0  0  0  0  0  0  0  0  0  0  0  0
   -1.6045   -2.3401    1.3243 C   0  0  0  0  0  0  0  0  0  0  0  0
   -0.6314   -3.0364    1.5685 O   0  0  0  0  0  0  0  0  0  0  0  0
   -1.4440   -1.0819    0.7813 N   0  0  0  0  0  0  0  0  0  0  0  0
   -2.2762   -0.5041    0.6729 H   0  0  0  0  0  0  0  0  0  0  0  0
   -0.1524   -0.4320    0.5289 C   0  0  1  0  0  0  0  0  0  0  0  0
    0.5875   -0.9205    1.1711 H   0  0  0  0  0  0  0  0  0  0  0  0
    0.4012   -0.4212   -0.9474 C   0  0  1  0  0  0  0  0  0  0  0  0
    0.5101    0.6328   -1.2279 H   0  0  0  0  0  0  0  0  0  0  0  0
    1.8271   -1.0000   -0.9118 C   0  0  0  0  0  0  0  0  0  0  0  0
    1.8010   -2.0634   -0.6508 H   0  0  0  0  0  0  0  0  0  0  0  0
    2.3124   -0.8912   -1.8871 H   0  0  0  0  0  0  0  0  0  0  0  0
    2.4402   -0.4738   -0.1734 H   0  0  0  0  0  0  0  0  0  0  0  0
   -0.3465   -1.0634   -2.1689 C   0  0  0  0  0  0  0  0  0  0  0  0
   -0.4969   -0.2655   -2.9037 H   0  0  0  0  0  0  0  0  0  0  0  0
    0.3116   -1.7987   -2.6437 H   0  0  0  0  0  0  0  0  0  0  0  0
   -1.6970   -1.7580   -1.9977 C   0  0  0  0  0  0  0  0  0  0  0  0
   -2.4391   -1.0732   -1.5777 H   0  0  0  0  0  0  0  0  0  0  0  0
   -2.0638   -2.0889   -2.9740 H   0  0  0  0  0  0  0  0  0  0  0  0
   -1.5992   -2.6426   -1.3637 H   0  0  0  0  0  0  0  0  0  0  0  0
   -0.2520    1.0255    1.0286 C   0  0  0  0  0  0  0  0  0  0  0  0
   -1.2689    1.6791    0.8212 O   0  0  0  0  0  0  0  0  0  0  0  0
    0.7702    1.5819    1.7752 N   0  0  0  0  0  0  0  0  0  0  0  0
    1.5749    0.9972    1.9813 H   0  0  0  0  0  0  0  0  0  0  0  0
    0.7112    2.9260    2.3359 C   0  0  0  0  0  0  0  0  0  0  0  0
   -0.1376    3.0181    3.0216 H   0  0  0  0  0  0  0  0  0  0  0  0
    1.6287    3.1451    2.8903 H   0  0  0  0  0  0  0  0  0  0  0  0
    0.6033    3.6691    1.5389 H   0  0  0  0  0  0  0  0  0  0  0  0
  1  2  1  0  0  0  0
  2  3  1  0  0  0  0
  2  4  1  0  0  0  0
  2  5  1  0  0  0  0
  5  6  2  0  0  0  0
  5  7  1  0  0  0  0
  7  8  1  0  0  0  0
  7  9  1  0  0  0  0
  9 10  1  0  0  0  0
  9 11  1  0  0  0  0
  9 24  1  0  0  0  0
 11 12  1  0  0  0  0
 11 13  1  0  0  0  0
 11 17  1  0  0  0  0
 13 14  1  0  0  0  0
 13 15  1  0  0  0  0
 13 16  1  0  0  0  0
 17 18  1  0  0  0  0
 17 19  1  0  0  0  0
 17 20  1  0  0  0  0
 20 21  1  0  0  0  0
 20 22  1  0  0  0  0
 20 23  1  0  0  0  0
 24 25  2  0  0  0  0
 24 26  1  0  0  0  0
 26 27  1  0  0  0  0
 26 28  1  0  0  0  0
 28 29  1  0  0  0  0
 28 30  1  0  0  0  0
 28 31  1  0  0  0  0
M  END
$$$$

  -OEChem-03222214053D

 31 30  0     1  0  0  0  0  0999 V2000
   -2.9457   -3.8504    2.0491 H   0  0  0  0  0  0  0  0  0  0  0  0
   -3.0000   -2.8416    1.6305 C   0  0  0  0  0  0  0  0  0  0  0  0
   -3.4762   -2.1824    2.3603 H   0  0  0  0  0  0  0  0  0  0  0  0
   -3.6077   -2.8692    0.7229 H   0  0  0  0  0  0  0  0  0  0  0  0
   -1.6075   -2.3338    1.3069 C   0  0  0  0  0  0  0  0  0  0  0  0
   -0.6344   -3.0371    1.5302 O   0  0  0  0  0  0  0  0  0  0  0  0
   -1.4490   -1.0722    0.7716 N   0  0  0  0  0  0  0  0  0  0  0  0
   -2.2798   -0.4896    0.6794 H   0  0  0  0  0  0  0  0  0  0  0  0
   -0.1566   -0.4253    0.5167 C   0  0  1  0  0  0  0  0  0  0  0  0
    0.5850   -0.9205    1.1518 H   0  0  0  0  0  0  0  0  0  0  0  0
    0.3857   -0.4278   -0.9612 C   0  0  1  0  0  0  0  0  0  0  0  0
    0.4717    0.6264   -1.2492 H   0  0  0  0  0  0  0  0  0  0  0  0
    1.8169   -0.9901   -0.9494 C   0  0  0  0  0  0  0  0  0  0  0  0
    1.8113   -2.0453   -0.6554 H   0  0  0  0  0  0  0  0  0  0  0  0
    2.2707   -0.9071   -1.9423 H   0  0  0  0  0  0  0  0  0  0  0  0
    2.4435   -0.4346   -0.2446 H   0  0  0  0  0  0  0  0  0  0  0  0
   -0.3768   -1.0774   -2.1649 C   0  0  0  0  0  0  0  0  0  0  0  0
   -0.2834   -0.3910   -3.0130 H   0  0  0  0  0  0  0  0  0  0  0  0
    0.1391   -2.0001   -2.4509 H   0  0  0  0  0  0  0  0  0  0  0  0
   -1.8551   -1.4490   -2.0417 C   0  0  0  0  0  0  0  0  0  0  0  0
   -2.4344   -0.6111   -1.6419 H   0  0  0  0  0  0  0  0  0  0  0  0
   -2.2536   -1.6953   -3.0305 H   0  0  0  0  0  0  0  0  0  0  0  0
   -1.9855   -2.3295   -1.4084 H   0  0  0  0  0  0  0  0  0  0  0  0
   -0.2397    1.0305    1.0236 C   0  0  0  0  0  0  0  0  0  0  0  0
   -1.2530    1.6928    0.8270 O   0  0  0  0  0  0  0  0  0  0  0  0
    0.7920    1.5757    1.7654 N   0  0  0  0  0  0  0  0  0  0  0  0
    1.5962    0.9859    1.9586 H   0  0  0  0  0  0  0  0  0  0  0  0
    0.7517    2.9216    2.3237 C   0  0  0  0  0  0  0  0  0  0  0  0
   -0.0828    3.0204    3.0259 H   0  0  0  0  0  0  0  0  0  0  0  0
    1.6813    3.1371    2.8590 H   0  0  0  0  0  0  0  0  0  0  0  0
    0.6321    3.6633    1.5269 H   0  0  0  0  0  0  0  0  0  0  0  0
  1  2  1  0  0  0  0
  2  3  1  0  0  0  0
  2  4  1  0  0  0  0
  2  5  1  0  0  0  0
  5  6  2  0  0  0  0
  5  7  1  0  0  0  0
  7  8  1  0  0  0  0
  7  9  1  0  0  0  0
  9 10  1  0  0  0  0
  9 11  1  0  0  0  0
  9 24  1  0  0  0  0
 11 12  1  0  0  0  0
 11 13  1  0  0  0  0
 11 17  1  0  0  0  0
 13 14  1  0  0  0  0
 13 15  1  0  0  0  0
 13 16  1  0  0  0  0
 17 18  1  0  0  0  0
 17 19  1  0  0  0  0
 17 20  1  0  0  0  0
 20 21  1  0  0  0  0
 20 22  1  0  0  0  0
 20 23  1  0  0  0  0
 24 25  2  0  0  0  0
 24 26  1  0  0  0  0
 26 27  1  0  0  0  0
 26 28  1  0  0  0  0
 28 29  1  0  0  0  0
 28 30  1  0  0  0  0
 28 31  1  0  0  0  0
M  END
$$$$

  -OEChem-03222214053D

 31 30  0     1  0  0  0  0  0999 V2000
   -2.9476   -3.8447    2.0020 H   0  0  0  0  0  0  0  0  0  0  0  0
   -3.0022   -2.8519    1.5467 C   0  0  0  0  0  0  0  0  0  0  0  0
   -3.5139   -2.1760    2.2362 H   0  0  0  0  0  0  0  0  0  0  0  0
   -3.5778   -2.9206    0.6207 H   0  0  0  0  0  0  0  0  0  0  0  0
   -1.6068   -2.3338    1.2526 C   0  0  0  0  0  0  0  0  0  0  0  0
   -0.6346   -3.0345    1.4874 O   0  0  0  0  0  0  0  0  0  0  0  0
   -1.4440   -1.0670    0.7316 N   0  0  0  0  0  0  0  0  0  0  0  0
   -2.2760   -0.4886    0.6250 H   0  0  0  0  0  0  0  0  0  0  0  0
   -0.1503   -0.4140    0.5010 C   0  0  1  0  0  0  0  0  0  0  0  0
    0.5863   -0.9135    1.1386 H   0  0  0  0  0  0  0  0  0  0  0  0
    0.3955   -0.4208   -0.9722 C   0  0  1  0  0  0  0  0  0  0  0  0
    0.4810    0.6310   -1.2681 H   0  0  0  0  0  0  0  0  0  0  0  0
    1.8203   -0.9959   -0.9708 C   0  0  0  0  0  0  0  0  0  0  0  0
    1.8091   -2.0466   -0.6617 H   0  0  0  0  0  0  0  0  0  0  0  0
    2.2607   -0.9322   -1.9711 H   0  0  0  0  0  0  0  0  0  0  0  0
    2.4605   -0.4359   -0.2819 H   0  0  0  0  0  0  0  0  0  0  0  0
   -0.3836   -1.0808   -2.1522 C   0  0  0  0  0  0  0  0  0  0  0  0
   -0.0870   -0.5598   -3.0688 H   0  0  0  0  0  0  0  0  0  0  0  0
   -0.0529   -2.1200   -2.2543 H   0  0  0  0  0  0  0  0  0  0  0  0
   -1.9143   -1.1166   -2.1103 C   0  0  0  0  0  0  0  0  0  0  0  0
   -2.3124   -0.1651   -1.7439 H   0  0  0  0  0  0  0  0  0  0  0  0
   -2.3038   -1.2847   -3.1189 H   0  0  0  0  0  0  0  0  0  0  0  0
   -2.2756   -1.9341   -1.4825 H   0  0  0  0  0  0  0  0  0  0  0  0
   -0.2353    1.0381    1.0167 C   0  0  0  0  0  0  0  0  0  0  0  0
   -1.2459    1.7029    0.8148 O   0  0  0  0  0  0  0  0  0  0  0  0
    0.7886    1.5754    1.7748 N   0  0  0  0  0  0  0  0  0  0  0  0
    1.5872    0.9809    1.9764 H   0  0  0  0  0  0  0  0  0  0  0  0
    0.7386    2.9124    2.3535 C   0  0  0  0  0  0  0  0  0  0  0  0
   -0.0975    2.9949    3.0560 H   0  0  0  0  0  0  0  0  0  0  0  0
    1.6664    3.1262    2.8930 H   0  0  0  0  0  0  0  0  0  0  0  0
    0.6148    3.6657    1.5683 H   0  0  0  0  0  0  0  0  0  0  0  0
  1  2  1  0  0  0  0
  2  3  1  0  0  0  0
  2  4  1  0  0  0  0
  2  5  1  0  0  0  0
  5  6  2  0  0  0  0
  5  7  1  0  0  0  0
  7  8  1  0  0  0  0
  7  9  1  0  0  0  0
  9 10  1  0  0  0  0
  9 11  1  0  0  0  0
  9 24  1  0  0  0  0
 11 12  1  0  0  0  0
 11 13  1  0  0  0  0
 11 17  1  0  0  0  0
 13 14  1  0  0  0  0
 13 15  1  0  0  0  0
 13 16  1  0  0  0  0
 17 18  1  0  0  0  0
 17 19  1  0  0  0  0
 17 20  1  0  0  0  0
 20 21  1  0  0  0  0
 20 22  1  0  0  0  0
 20 23  1  0  0  0  0
 24 25  2  0  0  0  0
 24 26  1  0  0  0  0
 26 27  1  0  0  0  0
 26 28  1  0  0  0  0
 28 29  1  0  0  0  0
 28 30  1  0  0  0  0
 28 31  1  0  0  0  0
M  END
$$$$

  -OEChem-03222214053D

 31 30  0     1  0  0  0  0  0999 V2000
   -2.9410   -3.8617    1.9009 H   0  0  0  0  0  0  0  0  0  0  0  0
   -2.9922   -2.8670    1.4498 C   0  0  0  0  0  0  0  0  0  0  0  0
   -3.5298   -2.1998    2.1278 H   0  0  0  0  0  0  0  0  0  0  0  0
   -3.5394   -2.9353    0.5066 H   0  0  0  0  0  0  0  0  0  0  0  0
   -1.5940   -2.3342    1.1995 C   0  0  0  0  0  0  0  0  0  0  0  0
   -0.6220   -3.0268    1.4580 O   0  0  0  0  0  0  0  0  0  0  0  0
   -1.4287   -1.0657    0.6849 N   0  0  0  0  0  0  0  0  0  0  0  0
   -2.2622   -0.4937    0.5587 H   0  0  0  0  0  0  0  0  0  0  0  0
   -0.1352   -0.4027    0.4836 C   0  0  1  0  0  0  0  0  0  0  0  0
    0.5963   -0.8992    1.1295 H   0  0  0  0  0  0  0  0  0  0  0  0
    0.4129   -0.4172   -0.9847 C   0  0  1  0  0  0  0  0  0  0  0  0
    0.5151    0.6283   -1.2976 H   0  0  0  0  0  0  0  0  0  0  0  0
    1.8221   -1.0287   -0.9840 C   0  0  0  0  0  0  0  0  0  0  0  0
    1.7858   -2.0763   -0.6668 H   0  0  0  0  0  0  0  0  0  0  0  0
    2.2611   -0.9840   -1.9856 H   0  0  0  0  0  0  0  0  0  0  0  0
    2.4781   -0.4799   -0.3013 H   0  0  0  0  0  0  0  0  0  0  0  0
   -0.3983   -1.0987   -2.1233 C   0  0  0  0  0  0  0  0  0  0  0  0
    0.0431   -0.7869   -3.0755 H   0  0  0  0  0  0  0  0  0  0  0  0
   -0.2778   -2.1848   -2.0497 H   0  0  0  0  0  0  0  0  0  0  0  0
   -1.9027   -0.8034   -2.1846 C   0  0  0  0  0  0  0  0  0  0  0  0
   -2.1033    0.2330   -1.8946 H   0  0  0  0  0  0  0  0  0  0  0  0
   -2.2632   -0.9501   -3.2072 H   0  0  0  0  0  0  0  0  0  0  0  0
   -2.4727   -1.4770   -1.5412 H   0  0  0  0  0  0  0  0  0  0  0  0
   -0.2311    1.0492    0.9964 C   0  0  0  0  0  0  0  0  0  0  0  0
   -1.2381    1.7124    0.7728 O   0  0  0  0  0  0  0  0  0  0  0  0
    0.7764    1.5894    1.7743 N   0  0  0  0  0  0  0  0  0  0  0  0
    1.5725    0.9974    1.9925 H   0  0  0  0  0  0  0  0  0  0  0  0
    0.7119    2.9274    2.3493 C   0  0  0  0  0  0  0  0  0  0  0  0
   -0.1455    3.0131    3.0252 H   0  0  0  0  0  0  0  0  0  0  0  0
    1.6225    3.1400    2.9176 H   0  0  0  0  0  0  0  0  0  0  0  0
    0.6144    3.6793    1.5591 H   0  0  0  0  0  0  0  0  0  0  0  0
  1  2  1  0  0  0  0
  2  3  1  0  0  0  0
  2  4  1  0  0  0  0
  2  5  1  0  0  0  0
  5  6  2  0  0  0  0
  5  7  1  0  0  0  0
  7  8  1  0  0  0  0
  7  9  1  0  0  0  0
  9 10  1  0  0  0  0
  9 11  1  0  0  0  0
  9 24  1  0  0  0  0
 11 12  1  0  0  0  0
 11 13  1  0  0  0  0
 11 17  1  0  0  0  0
 13 14  1  0  0  0  0
 13 15  1  0  0  0  0
 13 16  1  0  0  0  0
 17 18  1  0  0  0  0
 17 19  1  0  0  0  0
 17 20  1  0  0  0  0
 20 21  1  0  0  0  0
 20 22  1  0  0  0  0
 20 23  1  0  0  0  0
 24 25  2  0  0  0  0
 24 26  1  0  0  0  0
 26 27  1  0  0  0  0
 26 28  1  0  0  0  0
 28 29  1  0  0  0  0
 28 30  1  0  0  0  0
 28 31  1  0  0  0  0
M  END
$$$$

  -OEChem-03222214053D

 31 30  0     1  0  0  0  0  0999 V2000
   -2.9332   -3.8950    1.7887 H   0  0  0  0  0  0  0  0  0  0  0  0
   -2.9797   -2.8917    1.3562 C   0  0  0  0  0  0  0  0  0  0  0  0
   -3.5406   -2.2419    2.0324 H   0  0  0  0  0  0  0  0  0  0  0  0
   -3.5004   -2.9448    0.3971 H   0  0  0  0  0  0  0  0  0  0  0  0
   -1.5800   -2.3437    1.1538 C   0  0  0  0  0  0  0  0  0  0  0  0
   -0.6089   -3.0275    1.4379 O   0  0  0  0  0  0  0  0  0  0  0  0
   -1.4127   -1.0736    0.6445 N   0  0  0  0  0  0  0  0  0  0  0  0
   -2.2478   -0.5099    0.4951 H   0  0  0  0  0  0  0  0  0  0  0  0
   -0.1200   -0.3995    0.4717 C   0  0  1  0  0  0  0  0  0  0  0  0
    0.6074   -0.8925    1.1248 H   0  0  0  0  0  0  0  0  0  0  0  0
    0.4298   -0.4107   -0.9926 C   0  0  1  0  0  0  0  0  0  0  0  0
    0.5570    0.6288   -1.3157 H   0  0  0  0  0  0  0  0  0  0  0  0
    1.8209   -1.0626   -0.9899 C   0  0  0  0  0  0  0  0  0  0  0  0
    1.7525   -2.1107   -0.6790 H   0  0  0  0  0  0  0  0  0  0  0  0
    2.2665   -1.0251   -1.9890 H   0  0  0  0  0  0  0  0  0  0  0  0
    2.4897   -0.5370   -0.3012 H   0  0  0  0  0  0  0  0  0  0  0  0
   -0.4157   -1.1062   -2.0916 C   0  0  0  0  0  0  0  0  0  0  0  0
    0.1247   -1.0247   -3.0403 H   0  0  0  0  0  0  0  0  0  0  0  0
   -0.5119   -2.1724   -1.8609 H   0  0  0  0  0  0  0  0  0  0  0  0
   -1.8190   -0.5175   -2.3052 C   0  0  0  0  0  0  0  0  0  0  0  0
   -1.7784    0.5764   -2.3001 H   0  0  0  0  0  0  0  0  0  0  0  0
   -2.2070   -0.8426   -3.2753 H   0  0  0  0  0  0  0  0  0  0  0  0
   -2.5289   -0.8466   -1.5450 H   0  0  0  0  0  0  0  0  0  0  0  0
   -0.2316    1.0517    0.9816 C   0  0  0  0  0  0  0  0  0  0  0  0
   -1.2335    1.7133    0.7319 O   0  0  0  0  0  0  0  0  0  0  0  0
    0.7586    1.5951    1.7791 N   0  0  0  0  0  0  0  0  0  0  0  0
    1.5545    1.0072    2.0091 H   0  0  0  0  0  0  0  0  0  0  0  0
    0.6887    2.9407    2.3348 C   0  0  0  0  0  0  0  0  0  0  0  0
   -0.1975    3.0481    2.9691 H   0  0  0  0  0  0  0  0  0  0  0  0
    1.5752    3.1455    2.9425 H   0  0  0  0  0  0  0  0  0  0  0  0
    0.6403    3.6837    1.5319 H   0  0  0  0  0  0  0  0  0  0  0  0
  1  2  1  0  0  0  0
  2  3  1  0  0  0  0
  2  4  1  0  0  0  0
  2  5  1  0  0  0  0
  5  6  2  0  0  0  0
  5  7  1  0  0  0  0
  7  8  1  0  0  0  0
  7  9  1  0  0  0  0
  9 10  1  0  0  0  0
  9 11  1  0  0  0  0
  9 24  1  0  0  0  0
 11 12  1  0  0  0  0
 11 13  1  0  0  0  0
 11 17  1  0  0  0  0
 13 14  1  0  0  0  0
 13 15  1  0  0  0  0
 13 16  1  0  0  0  0
 17 18  1  0  0  0  0
 17 19  1  0  0  0  0
 17 20  1  0  0  0  0
 20 21  1  0  0  0  0
 20 22  1  0  0  0  0
 20 23  1  0  0  0  0
 24 25  2  0  0  0  0
 24 26  1  0  0  0  0
 26 27  1  0  0  0  0
 26 28  1  0  0  0  0
 28 29  1  0  0  0  0
 28 30  1  0  0  0  0
 28 31  1  0  0  0  0
M  END
$$$$

  -OEChem-03222214053D

 31 30  0     1  0  0  0  0  0999 V2000
   -2.9354   -3.9058    1.7319 H   0  0  0  0  0  0  0  0  0  0  0  0
   -2.9792   -2.9006    1.3034 C   0  0  0  0  0  0  0  0  0  0  0  0
   -3.5423   -2.2533    1.9802 H   0  0  0  0  0  0  0  0  0  0  0  0
   -3.4962   -2.9491    0.3421 H   0  0  0  0  0  0  0  0  0  0  0  0
   -1.5779   -2.3536    1.1090 C   0  0  0  0  0  0  0  0  0  0  0  0
   -0.6088   -3.0354    1.4040 O   0  0  0  0  0  0  0  0  0  0  0  0
   -1.4060   -1.0843    0.5993 N   0  0  0  0  0  0  0  0  0  0  0  0
   -2.2406   -0.5214    0.4440 H   0  0  0  0  0  0  0  0  0  0  0  0
   -0.1103   -0.4030    0.4491 C   0  0  1  0  0  0  0  0  0  0  0  0
    0.6109   -0.8924    1.1119 H   0  0  0  0  0  0  0  0  0  0  0  0
    0.4537   -0.4115   -1.0097 C   0  0  1  0  0  0  0  0  0  0  0  0
    0.5989    0.6224   -1.3430 H   0  0  0  0  0  0  0  0  0  0  0  0
    1.8343   -1.0851   -0.9979 C   0  0  0  0  0  0  0  0  0  0  0  0
    1.7459   -2.1347   -0.6976 H   0  0  0  0  0  0  0  0  0  0  0  0
    2.2910   -1.0441   -1.9917 H   0  0  0  0  0  0  0  0  0  0  0  0
    2.5040   -0.5760   -0.2978 H   0  0  0  0  0  0  0  0  0  0  0  0
   -0.4191   -1.1227   -2.0724 C   0  0  0  0  0  0  0  0  0  0  0  0
    0.1759   -1.2893   -2.9763 H   0  0  0  0  0  0  0  0  0  0  0  0
   -0.7333   -2.1071   -1.7115 H   0  0  0  0  0  0  0  0  0  0  0  0
   -1.6442   -0.2920   -2.4734 C   0  0  0  0  0  0  0  0  0  0  0  0
   -1.3295    0.6701   -2.8893 H   0  0  0  0  0  0  0  0  0  0  0  0
   -2.2212   -0.8251   -3.2348 H   0  0  0  0  0  0  0  0  0  0  0  0
   -2.2989   -0.0993   -1.6204 H   0  0  0  0  0  0  0  0  0  0  0  0
   -0.2372    1.0487    0.9524 C   0  0  0  0  0  0  0  0  0  0  0  0
   -1.2406    1.7026    0.6893 O   0  0  0  0  0  0  0  0  0  0  0  0
    0.7359    1.5974    1.7668 N   0  0  0  0  0  0  0  0  0  0  0  0
    1.5321    1.0147    2.0086 H   0  0  0  0  0  0  0  0  0  0  0  0
    0.6458    2.9397    2.3278 C   0  0  0  0  0  0  0  0  0  0  0  0
   -0.2452    3.0329    2.9576 H   0  0  0  0  0  0  0  0  0  0  0  0
    1.5264    3.1537    2.9411 H   0  0  0  0  0  0  0  0  0  0  0  0
    0.5924    3.6861    1.5282 H   0  0  0  0  0  0  0  0  0  0  0  0
  1  2  1  0  0  0  0
  2  3  1  0  0  0  0
  2  4  1  0  0  0  0
  2  5  1  0  0  0  0
  5  6  2  0  0  0  0
  5  7  1  0  0  0  0
  7  8  1  0  0  0  0
  7  9  1  0  0  0  0
  9 10  1  0  0  0  0
  9 11  1  0  0  0  0
  9 24  1  0  0  0  0
 11 12  1  0  0  0  0
 11 13  1  0  0  0  0
 11 17  1  0  0  0  0
 13 14  1  0  0  0  0
 13 15  1  0  0  0  0
 13 16  1  0  0  0  0
 17 18  1  0  0  0  0
 17 19  1  0  0  0  0
 17 20  1  0  0  0  0
 20 21  1  0  0  0  0
 20 22  1  0  0  0  0
 20 23  1  0  0  0  0
 24 25  2  0  0  0  0
 24 26  1  0  0  0  0
 26 27  1  0  0  0  0
 26 28  1  0  0  0  0
 28 29  1  0  0  0  0
 28 30  1  0  0  0  0
 28 31  1  0  0  0  0
M  END
$$$$

  -OEChem-03222214053D

 31 30  0     1  0  0  0  0  0999 V2000
   -2.9322   -3.9149    1.7357 H   0  0  0  0  0  0  0  0  0  0  0  0
   -2.9791   -2.9127    1.3006 C   0  0  0  0  0  0  0  0  0  0  0  0
   -3.5505   -2.2647    1.9697 H   0  0  0  0  0  0  0  0  0  0  0  0
   -3.4896   -2.9708    0.3363 H   0  0  0  0  0  0  0  0  0  0  0  0
   -1.5795   -2.3586    1.1114 C   0  0  0  0  0  0  0  0  0  0  0  0
   -0.6089   -3.0359    1.4121 O   0  0  0  0  0  0  0  0  0  0  0  0
   -1.4094   -1.0912    0.5947 N   0  0  0  0  0  0  0  0  0  0  0  0
   -2.2445   -0.5309    0.4317 H   0  0  0  0  0  0  0  0  0  0  0  0
   -0.1131   -0.4100    0.4436 C   0  0  1  0  0  0  0  0  0  0  0  0
    0.6075   -0.8955    1.1097 H   0  0  0  0  0  0  0  0  0  0  0  0
    0.4518   -0.4166   -1.0152 C   0  0  1  0  0  0  0  0  0  0  0  0
    0.6133    0.6159   -1.3461 H   0  0  0  0  0  0  0  0  0  0  0  0
    1.8277   -1.1019   -0.9923 C   0  0  0  0  0  0  0  0  0  0  0  0
    1.7283   -2.1515   -0.6950 H   0  0  0  0  0  0  0  0  0  0  0  0
    2.2950   -1.0629   -1.9813 H   0  0  0  0  0  0  0  0  0  0  0  0
    2.4955   -0.6001   -0.2851 H   0  0  0  0  0  0  0  0  0  0  0  0
   -0.4278   -1.1320   -2.0740 C   0  0  0  0  0  0  0  0  0  0  0  0
    0.2091   -1.5103   -2.8801 H   0  0  0  0  0  0  0  0  0  0  0  0
   -0.9442   -2.0023   -1.6611 H   0  0  0  0  0  0  0  0  0  0  0  0
   -1.4199   -0.1573   -2.7113 C   0  0  0  0  0  0  0  0  0  0  0  0
   -0.8910    0.6626   -3.2071 H   0  0  0  0  0  0  0  0  0  0  0  0
   -2.0301   -0.6764   -3.4564 H   0  0  0  0  0  0  0  0  0  0  0  0
   -2.0842    0.2651   -1.9511 H   0  0  0  0  0  0  0  0  0  0  0  0
   -0.2428    1.0443    0.9394 C   0  0  0  0  0  0  0  0  0  0  0  0
   -1.2424    1.6990    0.6642 O   0  0  0  0  0  0  0  0  0  0  0  0
    0.7277    1.5986    1.7534 N   0  0  0  0  0  0  0  0  0  0  0  0
    1.5213    1.0164    2.0049 H   0  0  0  0  0  0  0  0  0  0  0  0
    0.6392    2.9478    2.2978 C   0  0  0  0  0  0  0  0  0  0  0  0
   -0.2575    3.0534    2.9175 H   0  0  0  0  0  0  0  0  0  0  0  0
    1.5148    3.1638    2.9174 H   0  0  0  0  0  0  0  0  0  0  0  0
    0.5977    3.6849    1.4890 H   0  0  0  0  0  0  0  0  0  0  0  0
  1  2  1  0  0  0  0
  2  3  1  0  0  0  0
  2  4  1  0  0  0  0
  2  5  1  0  0  0  0
  5  6  2  0  0  0  0
  5  7  1  0  0  0  0
  7  8  1  0  0  0  0
  7  9  1  0  0  0  0
  9 10  1  0  0  0  0
  9 11  1  0  0  0  0
  9 24  1  0  0  0  0
 11 12  1  0  0  0  0
 11 13  1  0  0  0  0
 11 17  1  0  0  0  0
 13 14  1  0  0  0  0
 13 15  1  0  0  0  0
 13 16  1  0  0  0  0
 17 18  1  0  0  0  0
 17 19  1  0  0  0  0
 17 20  1  0  0  0  0
 20 21  1  0  0  0  0
 20 22  1  0  0  0  0
 20 23  1  0  0  0  0
 24 25  2  0  0  0  0
 24 26  1  0  0  0  0
 26 27  1  0  0  0  0
 26 28  1  0  0  0  0
 28 29  1  0  0  0  0
 28 30  1  0  0  0  0
 28 31  1  0  0  0  0
M  END
$$$$

  -OEChem-03222214053D

 31 30  0     1  0  0  0  0  0999 V2000
   -2.9403   -3.9068    1.7749 H   0  0  0  0  0  0  0  0  0  0  0  0
   -2.9882   -2.9040    1.3413 C   0  0  0  0  0  0  0  0  0  0  0  0
   -3.5413   -2.2521    2.0219 H   0  0  0  0  0  0  0  0  0  0  0  0
   -3.5182   -2.9574    0.3873 H   0  0  0  0  0  0  0  0  0  0  0  0
   -1.5888   -2.3597    1.1257 C   0  0  0  0  0  0  0  0  0  0  0  0
   -0.6174   -3.0411    1.4145 O   0  0  0  0  0  0  0  0  0  0  0  0
   -1.4209   -1.0940    0.6044 N   0  0  0  0  0  0  0  0  0  0  0  0
   -2.2556   -0.5291    0.4554 H   0  0  0  0  0  0  0  0  0  0  0  0
   -0.1249   -0.4178    0.4382 C   0  0  1  0  0  0  0  0  0  0  0  0
    0.5979   -0.9025    1.1026 H   0  0  0  0  0  0  0  0  0  0  0  0
    0.4391   -0.4285   -1.0229 C   0  0  1  0  0  0  0  0  0  0  0  0
    0.5982    0.6069   -1.3457 H   0  0  0  0  0  0  0  0  0  0  0  0
    1.8233   -1.0972   -0.9928 C   0  0  0  0  0  0  0  0  0  0  0  0
    1.7351   -2.1471   -0.6936 H   0  0  0  0  0  0  0  0  0  0  0  0
    2.2930   -1.0537   -1.9805 H   0  0  0  0  0  0  0  0  0  0  0  0
    2.4819   -0.5856   -0.2841 H   0  0  0  0  0  0  0  0  0  0  0  0
   -0.4278   -1.1427   -2.1022 C   0  0  0  0  0  0  0  0  0  0  0  0
    0.2146   -1.7469   -2.7512 H   0  0  0  0  0  0  0  0  0  0  0  0
   -1.1547   -1.8367   -1.6772 H   0  0  0  0  0  0  0  0  0  0  0  0
   -1.1363   -0.1229   -2.9948 C   0  0  0  0  0  0  0  0  0  0  0  0
   -0.4082    0.5139   -3.5068 H   0  0  0  0  0  0  0  0  0  0  0  0
   -1.7372   -0.6377   -3.7506 H   0  0  0  0  0  0  0  0  0  0  0  0
   -1.7983    0.5110   -2.3961 H   0  0  0  0  0  0  0  0  0  0  0  0
   -0.2496    1.0375    0.9335 C   0  0  0  0  0  0  0  0  0  0  0  0
   -1.2532    1.6906    0.6693 O   0  0  0  0  0  0  0  0  0  0  0  0
    0.7286    1.5931    1.7375 N   0  0  0  0  0  0  0  0  0  0  0  0
    1.5222    1.0096    1.9858 H   0  0  0  0  0  0  0  0  0  0  0  0
    0.6394    2.9381    2.2924 C   0  0  0  0  0  0  0  0  0  0  0  0
   -0.2439    3.0311    2.9330 H   0  0  0  0  0  0  0  0  0  0  0  0
    1.5268    3.1591    2.8935 H   0  0  0  0  0  0  0  0  0  0  0  0
    0.5726    3.6800    1.4897 H   0  0  0  0  0  0  0  0  0  0  0  0
  1  2  1  0  0  0  0
  2  3  1  0  0  0  0
  2  4  1  0  0  0  0
  2  5  1  0  0  0  0
  5  6  2  0  0  0  0
  5  7  1  0  0  0  0
  7  8  1  0  0  0  0
  7  9  1  0  0  0  0
  9 10  1  0  0  0  0
  9 11  1  0  0  0  0
  9 24  1  0  0  0  0
 11 12  1  0  0  0  0
 11 13  1  0  0  0  0
 11 17  1  0  0  0  0
 13 14  1  0  0  0  0
 13 15  1  0  0  0  0
 13 16  1  0  0  0  0
 17 18  1  0  0  0  0
 17 19  1  0  0  0  0
 17 20  1  0  0  0  0
 20 21  1  0  0  0  0
 20 22  1  0  0  0  0
 20 23  1  0  0  0  0
 24 25  2  0  0  0  0
 24 26  1  0  0  0  0
 26 27  1  0  0  0  0
 26 28  1  0  0  0  0
 28 29  1  0  0  0  0
 28 30  1  0  0  0  0
 28 31  1  0  0  0  0
M  END
$$$$

  -OEChem-03222214053D

 31 30  0     1  0  0  0  0  0999 V2000
   -2.9545   -3.8998    1.8030 H   0  0  0  0  0  0  0  0  0  0  0  0
   -3.0033   -2.8979    1.3674 C   0  0  0  0  0  0  0  0  0  0  0  0
   -3.5456   -2.2420    2.0527 H   0  0  0  0  0  0  0  0  0  0  0  0
   -3.5439   -2.9511    0.4193 H   0  0  0  0  0  0  0  0  0  0  0  0
   -1.6041   -2.3605    1.1343 C   0  0  0  0  0  0  0  0  0  0  0  0
   -0.6326   -3.0462    1.4117 O   0  0  0  0  0  0  0  0  0  0  0  0
   -1.4366   -1.0950    0.6129 N   0  0  0  0  0  0  0  0  0  0  0  0
   -2.2706   -0.5251    0.4788 H   0  0  0  0  0  0  0  0  0  0  0  0
   -0.1400   -0.4234    0.4354 C   0  0  1  0  0  0  0  0  0  0  0  0
    0.5839   -0.9106    1.0967 H   0  0  0  0  0  0  0  0  0  0  0  0
    0.4261   -0.4424   -1.0255 C   0  0  1  0  0  0  0  0  0  0  0  0
    0.5611    0.5986   -1.3418 H   0  0  0  0  0  0  0  0  0  0  0  0
    1.8255   -1.0776   -1.0045 C   0  0  0  0  0  0  0  0  0  0  0  0
    1.7678   -2.1245   -0.6876 H   0  0  0  0  0  0  0  0  0  0  0  0
    2.2778   -1.0389   -2.0006 H   0  0  0  0  0  0  0  0  0  0  0  0
    2.4816   -0.5394   -0.3135 H   0  0  0  0  0  0  0  0  0  0  0  0
   -0.4287   -1.1574   -2.1173 C   0  0  0  0  0  0  0  0  0  0  0  0
    0.1380   -1.9832   -2.5602 H   0  0  0  0  0  0  0  0  0  0  0  0
   -1.3439   -1.5985   -1.7218 H   0  0  0  0  0  0  0  0  0  0  0  0
   -0.8181   -0.1831   -3.2307 C   0  0  0  0  0  0  0  0  0  0  0  0
    0.0752    0.2256   -3.7133 H   0  0  0  0  0  0  0  0  0  0  0  0
   -1.4165   -0.6974   -3.9888 H   0  0  0  0  0  0  0  0  0  0  0  0
   -1.4089    0.6442   -2.8243 H   0  0  0  0  0  0  0  0  0  0  0  0
   -0.2565    1.0317    0.9338 C   0  0  0  0  0  0  0  0  0  0  0  0
   -1.2624    1.6867    0.6832 O   0  0  0  0  0  0  0  0  0  0  0  0
    0.7304    1.5829    1.7298 N   0  0  0  0  0  0  0  0  0  0  0  0
    1.5261    0.9974    1.9669 H   0  0  0  0  0  0  0  0  0  0  0  0
    0.6500    2.9269    2.2884 C   0  0  0  0  0  0  0  0  0  0  0  0
   -0.2289    3.0216    2.9348 H   0  0  0  0  0  0  0  0  0  0  0  0
    1.5423    3.1425    2.8840 H   0  0  0  0  0  0  0  0  0  0  0  0
    0.5805    3.6713    1.4882 H   0  0  0  0  0  0  0  0  0  0  0  0
  1  2  1  0  0  0  0
  2  3  1  0  0  0  0
  2  4  1  0  0  0  0
  2  5  1  0  0  0  0
  5  6  2  0  0  0  0
  5  7  1  0  0  0  0
  7  8  1  0  0  0  0
  7  9  1  0  0  0  0
  9 10  1  0  0  0  0
  9 11  1  0  0  0  0
  9 24  1  0  0  0  0
 11 12  1  0  0  0  0
 11 13  1  0  0  0  0
 11 17  1  0  0  0  0
 13 14  1  0  0  0  0
 13 15  1  0  0  0  0
 13 16  1  0  0  0  0
 17 18  1  0  0  0  0
 17 19  1  0  0  0  0
 17 20  1  0  0  0  0
 20 21  1  0  0  0  0
 20 22  1  0  0  0  0
 20 23  1  0  0  0  0
 24 25  2  0  0  0  0
 24 26  1  0  0  0  0
 26 27  1  0  0  0  0
 26 28  1  0  0  0  0
 28 29  1  0  0  0  0
 28 30  1  0  0  0  0
 28 31  1  0  0  0  0
M  END
$$$$

  -OEChem-03222214053D

 31 30  0     1  0  0  0  0  0999 V2000
   -2.9671   -3.8969    1.7874 H   0  0  0  0  0  0  0  0  0  0  0  0
   -3.0142   -2.8935    1.3549 C   0  0  0  0  0  0  0  0  0  0  0  0
   -3.5582   -2.2396    2.0408 H   0  0  0  0  0  0  0  0  0  0  0  0
   -3.5528   -2.9440    0.4056 H   0  0  0  0  0  0  0  0  0  0  0  0
   -1.6138   -2.3564    1.1265 C   0  0  0  0  0  0  0  0  0  0  0  0
   -0.6440   -3.0453    1.4027 O   0  0  0  0  0  0  0  0  0  0  0  0
   -1.4431   -1.0896    0.6088 N   0  0  0  0  0  0  0  0  0  0  0  0
   -2.2757   -0.5172    0.4771 H   0  0  0  0  0  0  0  0  0  0  0  0
   -0.1444   -0.4201    0.4349 C   0  0  1  0  0  0  0  0  0  0  0  0
    0.5773   -0.9112    1.0957 H   0  0  0  0  0  0  0  0  0  0  0  0
    0.4223   -0.4495   -1.0241 C   0  0  1  0  0  0  0  0  0  0  0  0
    0.5353    0.5927   -1.3439 H   0  0  0  0  0  0  0  0  0  0  0  0
    1.8282   -1.0678   -1.0166 C   0  0  0  0  0  0  0  0  0  0  0  0
    1.7883   -2.1081   -0.6763 H   0  0  0  0  0  0  0  0  0  0  0  0
    2.2609   -1.0469   -2.0219 H   0  0  0  0  0  0  0  0  0  0  0  0
    2.4900   -0.5073   -0.3491 H   0  0  0  0  0  0  0  0  0  0  0  0
   -0.4366   -1.1691   -2.1050 C   0  0  0  0  0  0  0  0  0  0  0  0
   -0.0248   -2.1602   -2.3229 H   0  0  0  0  0  0  0  0  0  0  0  0
   -1.4666   -1.3183   -1.7785 H   0  0  0  0  0  0  0  0  0  0  0  0
   -0.5142   -0.3398   -3.3889 C   0  0  0  0  0  0  0  0  0  0  0  0
    0.4874   -0.1652   -3.7938 H   0  0  0  0  0  0  0  0  0  0  0  0
   -1.1054   -0.8691   -4.1422 H   0  0  0  0  0  0  0  0  0  0  0  0
   -0.9888    0.6271   -3.1938 H   0  0  0  0  0  0  0  0  0  0  0  0
   -0.2518    1.0350    0.9352 C   0  0  0  0  0  0  0  0  0  0  0  0
   -1.2543    1.6954    0.6858 O   0  0  0  0  0  0  0  0  0  0  0  0
    0.7382    1.5798    1.7320 N   0  0  0  0  0  0  0  0  0  0  0  0
    1.5320    0.9908    1.9667 H   0  0  0  0  0  0  0  0  0  0  0  0
    0.6657    2.9242    2.2909 C   0  0  0  0  0  0  0  0  0  0  0  0
   -0.2125    3.0237    2.9375 H   0  0  0  0  0  0  0  0  0  0  0  0
    1.5590    3.1350    2.8868 H   0  0  0  0  0  0  0  0  0  0  0  0
    0.6006    3.6686    1.4902 H   0  0  0  0  0  0  0  0  0  0  0  0
  1  2  1  0  0  0  0
  2  3  1  0  0  0  0
  2  4  1  0  0  0  0
  2  5  1  0  0  0  0
  5  6  2  0  0  0  0
  5  7  1  0  0  0  0
  7  8  1  0  0  0  0
  7  9  1  0  0  0  0
  9 10  1  0  0  0  0
  9 11  1  0  0  0  0
  9 24  1  0  0  0  0
 11 12  1  0  0  0  0
 11 13  1  0  0  0  0
 11 17  1  0  0  0  0
 13 14  1  0  0  0  0
 13 15  1  0  0  0  0
 13 16  1  0  0  0  0
 17 18  1  0  0  0  0
 17 19  1  0  0  0  0
 17 20  1  0  0  0  0
 20 21  1  0  0  0  0
 20 22  1  0  0  0  0
 20 23  1  0  0  0  0
 24 25  2  0  0  0  0
 24 26  1  0  0  0  0
 26 27  1  0  0  0  0
 26 28  1  0  0  0  0
 28 29  1  0  0  0  0
 28 30  1  0  0  0  0
 28 31  1  0  0  0  0
M  END
$$$$

  -OEChem-03222214053D

 31 30  0     1  0  0  0  0  0999 V2000
   -2.9666   -3.8930    1.7520 H   0  0  0  0  0  0  0  0  0  0  0  0
   -3.0110   -2.8910    1.3163 C   0  0  0  0  0  0  0  0  0  0  0  0
   -3.5644   -2.2366    1.9940 H   0  0  0  0  0  0  0  0  0  0  0  0
   -3.5385   -2.9451    0.3609 H   0  0  0  0  0  0  0  0  0  0  0  0
   -1.6098   -2.3506    1.1034 C   0  0  0  0  0  0  0  0  0  0  0  0
   -0.6414   -3.0386    1.3863 O   0  0  0  0  0  0  0  0  0  0  0  0
   -1.4366   -1.0820    0.5914 N   0  0  0  0  0  0  0  0  0  0  0  0
   -2.2686   -0.5104    0.4535 H   0  0  0  0  0  0  0  0  0  0  0  0
   -0.1363   -0.4108    0.4334 C   0  0  1  0  0  0  0  0  0  0  0  0
    0.5805   -0.9045    1.0978 H   0  0  0  0  0  0  0  0  0  0  0  0
    0.4324   -0.4436   -1.0232 C   0  0  1  0  0  0  0  0  0  0  0  0
    0.5423    0.5954   -1.3548 H   0  0  0  0  0  0  0  0  0  0  0  0
    1.8333   -1.0746   -1.0097 C   0  0  0  0  0  0  0  0  0  0  0  0
    1.7812   -2.1164   -0.6758 H   0  0  0  0  0  0  0  0  0  0  0  0
    2.2784   -1.0526   -2.0087 H   0  0  0  0  0  0  0  0  0  0  0  0
    2.4933   -0.5243   -0.3323 H   0  0  0  0  0  0  0  0  0  0  0  0
   -0.4466   -1.1686   -2.0775 C   0  0  0  0  0  0  0  0  0  0  0  0
   -0.2281   -2.2417   -2.0839 H   0  0  0  0  0  0  0  0  0  0  0  0
   -1.5079   -1.0492   -1.8458 H   0  0  0  0  0  0  0  0  0  0  0  0
   -0.2579   -0.5727   -3.4756 C   0  0  0  0  0  0  0  0  0  0  0  0
    0.7795   -0.6782   -3.8058 H   0  0  0  0  0  0  0  0  0  0  0  0
   -0.9018   -1.0913   -4.1925 H   0  0  0  0  0  0  0  0  0  0  0  0
   -0.5219    0.4895   -3.4802 H   0  0  0  0  0  0  0  0  0  0  0  0
   -0.2426    1.0438    0.9352 C   0  0  0  0  0  0  0  0  0  0  0  0
   -1.2408    1.7080    0.6788 O   0  0  0  0  0  0  0  0  0  0  0  0
    0.7423    1.5835    1.7419 N   0  0  0  0  0  0  0  0  0  0  0  0
    1.5337    0.9924    1.9791 H   0  0  0  0  0  0  0  0  0  0  0  0
    0.6743    2.9299    2.2963 C   0  0  0  0  0  0  0  0  0  0  0  0
   -0.2145    3.0409    2.9262 H   0  0  0  0  0  0  0  0  0  0  0  0
    1.5585    3.1325    2.9082 H   0  0  0  0  0  0  0  0  0  0  0  0
    0.6324    3.6729    1.4931 H   0  0  0  0  0  0  0  0  0  0  0  0
  1  2  1  0  0  0  0
  2  3  1  0  0  0  0
  2  4  1  0  0  0  0
  2  5  1  0  0  0  0
  5  6  2  0  0  0  0
  5  7  1  0  0  0  0
  7  8  1  0  0  0  0
  7  9  1  0  0  0  0
  9 10  1  0  0  0  0
  9 11  1  0  0  0  0
  9 24  1  0  0  0  0
 11 12  1  0  0  0  0
 11 13  1  0  0  0  0
 11 17  1  0  0  0  0
 13 14  1  0  0  0  0
 13 15  1  0  0  0  0
 13 16  1  0  0  0  0
 17 18  1  0  0  0  0
 17 19  1  0  0  0  0
 17 20  1  0  0  0  0
 20 21  1  0  0  0  0
 20 22  1  0  0  0  0
 20 23  1  0  0  0  0
 24 25  2  0  0  0  0
 24 26  1  0  0  0  0
 26 27  1  0  0  0  0
 26 28  1  0  0  0  0
 28 29  1  0  0  0  0
 28 30  1  0  0  0  0
 28 31  1  0  0  0  0
M  END
$$$$

  -OEChem-03222214053D

 31 30  0     1  0  0  0  0  0999 V2000
   -2.9751   -3.8829    1.7022 H   0  0  0  0  0  0  0  0  0  0  0  0
   -3.0105   -2.8768    1.2749 C   0  0  0  0  0  0  0  0  0  0  0  0
   -3.5703   -2.2262    1.9510 H   0  0  0  0  0  0  0  0  0  0  0  0
   -3.5259   -2.9203    0.3124 H   0  0  0  0  0  0  0  0  0  0  0  0
   -1.6048   -2.3396    1.0842 C   0  0  0  0  0  0  0  0  0  0  0  0
   -0.6419   -3.0289    1.3820 O   0  0  0  0  0  0  0  0  0  0  0  0
   -1.4217   -1.0721    0.5733 N   0  0  0  0  0  0  0  0  0  0  0  0
   -2.2512   -0.4993    0.4254 H   0  0  0  0  0  0  0  0  0  0  0  0
   -0.1186   -0.4014    0.4298 C   0  0  1  0  0  0  0  0  0  0  0  0
    0.5915   -0.8972    1.0994 H   0  0  0  0  0  0  0  0  0  0  0  0
    0.4540   -0.4375   -1.0242 C   0  0  1  0  0  0  0  0  0  0  0  0
    0.5617    0.5964   -1.3716 H   0  0  0  0  0  0  0  0  0  0  0  0
    1.8559   -1.0695   -0.9971 C   0  0  0  0  0  0  0  0  0  0  0  0
    1.7954   -2.1250   -0.7114 H   0  0  0  0  0  0  0  0  0  0  0  0
    2.3365   -1.0007   -1.9766 H   0  0  0  0  0  0  0  0  0  0  0  0
    2.4945   -0.5498   -0.2761 H   0  0  0  0  0  0  0  0  0  0  0  0
   -0.4496   -1.1694   -2.0485 C   0  0  0  0  0  0  0  0  0  0  0  0
   -0.4273   -2.2489   -1.8651 H   0  0  0  0  0  0  0  0  0  0  0  0
   -1.4832   -0.8293   -1.9322 H   0  0  0  0  0  0  0  0  0  0  0  0
   -0.0549   -0.8794   -3.4997 C   0  0  0  0  0  0  0  0  0  0  0  0
    0.9339   -1.2866   -3.7276 H   0  0  0  0  0  0  0  0  0  0  0  0
   -0.7771   -1.3406   -4.1802 H   0  0  0  0  0  0  0  0  0  0  0  0
   -0.0446    0.1989   -3.6867 H   0  0  0  0  0  0  0  0  0  0  0  0
   -0.2276    1.0537    0.9281 C   0  0  0  0  0  0  0  0  0  0  0  0
   -1.2227    1.7185    0.6617 O   0  0  0  0  0  0  0  0  0  0  0  0
    0.7494    1.5919    1.7451 N   0  0  0  0  0  0  0  0  0  0  0  0
    1.5346    0.9978    1.9950 H   0  0  0  0  0  0  0  0  0  0  0  0
    0.6700    2.9329    2.3110 C   0  0  0  0  0  0  0  0  0  0  0  0
   -0.2239    3.0332    2.9357 H   0  0  0  0  0  0  0  0  0  0  0  0
    1.5488    3.1345    2.9311 H   0  0  0  0  0  0  0  0  0  0  0  0
    0.6295    3.6830    1.5143 H   0  0  0  0  0  0  0  0  0  0  0  0
  1  2  1  0  0  0  0
  2  3  1  0  0  0  0
  2  4  1  0  0  0  0
  2  5  1  0  0  0  0
  5  6  2  0  0  0  0
  5  7  1  0  0  0  0
  7  8  1  0  0  0  0
  7  9  1  0  0  0  0
  9 10  1  0  0  0  0
  9 11  1  0  0  0  0
  9 24  1  0  0  0  0
 11 12  1  0  0  0  0
 11 13  1  0  0  0  0
 11 17  1  0  0  0  0
 13 14  1  0  0  0  0
 13 15  1  0  0  0  0
 13 16  1  0  0  0  0
 17 18  1  0  0  0  0
 17 19  1  0  0  0  0
 17 20  1  0  0  0  0
 20 21  1  0  0  0  0
 20 22  1  0  0  0  0
 20 23  1  0  0  0  0
 24 25  2  0  0  0  0
 24 26  1  0  0  0  0
 26 27  1  0  0  0  0
 26 28  1  0  0  0  0
 28 29  1  0  0  0  0
 28 30  1  0  0  0  0
 28 31  1  0  0  0  0
M  END
$$$$

  -OEChem-03222214053D

 31 30  0     1  0  0  0  0  0999 V2000
   -2.9669   -3.8839    1.6886 H   0  0  0  0  0  0  0  0  0  0  0  0
   -2.9961   -2.8819    1.2515 C   0  0  0  0  0  0  0  0  0  0  0  0
   -3.5682   -2.2258    1.9119 H   0  0  0  0  0  0  0  0  0  0  0  0
   -3.4947   -2.9350    0.2807 H   0  0  0  0  0  0  0  0  0  0  0  0
   -1.5875   -2.3451    1.0806 C   0  0  0  0  0  0  0  0  0  0  0  0
   -0.6293   -3.0312    1.4002 O   0  0  0  0  0  0  0  0  0  0  0  0
   -1.3957   -1.0812    0.5643 N   0  0  0  0  0  0  0  0  0  0  0  0
   -2.2218   -0.5088    0.3971 H   0  0  0  0  0  0  0  0  0  0  0  0
   -0.0890   -0.4138    0.4381 C   0  0  1  0  0  0  0  0  0  0  0  0
    0.6229   -0.8990    1.1133 H   0  0  0  0  0  0  0  0  0  0  0  0
    0.4806   -0.4262   -1.0164 C   0  0  1  0  0  0  0  0  0  0  0  0
    0.8709    0.5693   -1.2560 H   0  0  0  0  0  0  0  0  0  0  0  0
    1.6640   -1.4105   -1.0614 C   0  0  0  0  0  0  0  0  0  0  0  0
    1.3146   -2.4370   -0.9086 H   0  0  0  0  0  0  0  0  0  0  0  0
    2.1862   -1.3561   -2.0203 H   0  0  0  0  0  0  0  0  0  0  0  0
    2.3921   -1.1717   -0.2802 H   0  0  0  0  0  0  0  0  0  0  0  0
   -0.5791   -0.7931   -2.0870 C   0  0  0  0  0  0  0  0  0  0  0  0
   -0.9955   -1.7842   -1.8799 H   0  0  0  0  0  0  0  0  0  0  0  0
   -1.3957   -0.0654   -2.0338 H   0  0  0  0  0  0  0  0  0  0  0  0
   -0.0313   -0.8053   -3.5175 C   0  0  0  0  0  0  0  0  0  0  0  0
    0.6698   -1.6315   -3.6653 H   0  0  0  0  0  0  0  0  0  0  0  0
   -0.8542   -0.9302   -4.2277 H   0  0  0  0  0  0  0  0  0  0  0  0
    0.4776    0.1375   -3.7406 H   0  0  0  0  0  0  0  0  0  0  0  0
   -0.2200    1.0424    0.9287 C   0  0  0  0  0  0  0  0  0  0  0  0
   -1.2104    1.7020    0.6325 O   0  0  0  0  0  0  0  0  0  0  0  0
    0.7360    1.5920    1.7628 N   0  0  0  0  0  0  0  0  0  0  0  0
    1.5245    1.0078    2.0257 H   0  0  0  0  0  0  0  0  0  0  0  0
    0.6467    2.9434    2.3018 C   0  0  0  0  0  0  0  0  0  0  0  0
   -0.2643    3.0595    2.8983 H   0  0  0  0  0  0  0  0  0  0  0  0
    1.5082    3.1523    2.9434 H   0  0  0  0  0  0  0  0  0  0  0  0
    0.6333    3.6788    1.4904 H   0  0  0  0  0  0  0  0  0  0  0  0
  1  2  1  0  0  0  0
  2  3  1  0  0  0  0
  2  4  1  0  0  0  0
  2  5  1  0  0  0  0
  5  6  2  0  0  0  0
  5  7  1  0  0  0  0
  7  8  1  0  0  0  0
  7  9  1  0  0  0  0
  9 10  1  0  0  0  0
  9 11  1  0  0  0  0
  9 24  1  0  0  0  0
 11 12  1  0  0  0  0
 11 13  1  0  0  0  0
 11 17  1  0  0  0  0
 13 14  1  0  0  0  0
 13 15  1  0  0  0  0
 13 16  1  0  0  0  0
 17 18  1  0  0  0  0
 17 19  1  0  0  0  0
 17 20  1  0  0  0  0
 20 21  1  0  0  0  0
 20 22  1  0  0  0  0
 20 23  1  0  0  0  0
 24 25  2  0  0  0  0
 24 26  1  0  0  0  0
 26 27  1  0  0  0  0
 26 28  1  0  0  0  0
 28 29  1  0  0  0  0
 28 30  1  0  0  0  0
 28 31  1  0  0  0  0
M  END
$$$$

  -OEChem-03222214053D

 31 30  0     1  0  0  0  0  0999 V2000
   -2.9754   -3.8771    1.7232 H   0  0  0  0  0  0  0  0  0  0  0  0
   -3.0051   -2.8775    1.2807 C   0  0  0  0  0  0  0  0  0  0  0  0
   -3.5692   -2.2161    1.9428 H   0  0  0  0  0  0  0  0  0  0  0  0
   -3.5126   -2.9348    0.3147 H   0  0  0  0  0  0  0  0  0  0  0  0
   -1.5965   -2.3462    1.0945 C   0  0  0  0  0  0  0  0  0  0  0  0
   -0.6382   -3.0351    1.4076 O   0  0  0  0  0  0  0  0  0  0  0  0
   -1.4045   -1.0835    0.5748 N   0  0  0  0  0  0  0  0  0  0  0  0
   -2.2294   -0.5070    0.4156 H   0  0  0  0  0  0  0  0  0  0  0  0
   -0.0963   -0.4219    0.4407 C   0  0  1  0  0  0  0  0  0  0  0  0
    0.6132   -0.9062    1.1191 H   0  0  0  0  0  0  0  0  0  0  0  0
    0.4799   -0.4281   -1.0145 C   0  0  1  0  0  0  0  0  0  0  0  0
    0.8789    0.5649   -1.2503 H   0  0  0  0  0  0  0  0  0  0  0  0
    1.6692   -1.4087   -1.0341 C   0  0  0  0  0  0  0  0  0  0  0  0
    1.3184   -2.4375   -0.9007 H   0  0  0  0  0  0  0  0  0  0  0  0
    2.2202   -1.3423   -1.9764 H   0  0  0  0  0  0  0  0  0  0  0  0
    2.3752   -1.1758   -0.2310 H   0  0  0  0  0  0  0  0  0  0  0  0
   -0.5656   -0.7868   -2.1104 C   0  0  0  0  0  0  0  0  0  0  0  0
   -1.1566   -1.6551   -1.8066 H   0  0  0  0  0  0  0  0  0  0  0  0
   -1.2498    0.0602   -2.2265 H   0  0  0  0  0  0  0  0  0  0  0  0
    0.0337   -1.1444   -3.4749 C   0  0  0  0  0  0  0  0  0  0  0  0
    0.5723   -2.0958   -3.4325 H   0  0  0  0  0  0  0  0  0  0  0  0
   -0.7654   -1.2428   -4.2158 H   0  0  0  0  0  0  0  0  0  0  0  0
    0.7198   -0.3599   -3.8088 H   0  0  0  0  0  0  0  0  0  0  0  0
   -0.2245    1.0347    0.9310 C   0  0  0  0  0  0  0  0  0  0  0  0
   -1.2142    1.6957    0.6356 O   0  0  0  0  0  0  0  0  0  0  0  0
    0.7349    1.5849    1.7608 N   0  0  0  0  0  0  0  0  0  0  0  0
    1.5237    1.0005    2.0222 H   0  0  0  0  0  0  0  0  0  0  0  0
    0.6513    2.9395    2.2928 C   0  0  0  0  0  0  0  0  0  0  0  0
   -0.2551    3.0597    2.8955 H   0  0  0  0  0  0  0  0  0  0  0  0
    1.5182    3.1514    2.9261 H   0  0  0  0  0  0  0  0  0  0  0  0
    0.6320    3.6704    1.4775 H   0  0  0  0  0  0  0  0  0  0  0  0
  1  2  1  0  0  0  0
  2  3  1  0  0  0  0
  2  4  1  0  0  0  0
  2  5  1  0  0  0  0
  5  6  2  0  0  0  0
  5  7  1  0  0  0  0
  7  8  1  0  0  0  0
  7  9  1  0  0  0  0
  9 10  1  0  0  0  0
  9 11  1  0  0  0  0
  9 24  1  0  0  0  0
 11 12  1  0  0  0  0
 11 13  1  0  0  0  0
 11 17  1  0  0  0  0
 13 14  1  0  0  0  0
 13 15  1  0  0  0  0
 13 16  1  0  0  0  0
 17 18  1  0  0  0  0
 17 19  1  0  0  0  0
 17 20  1  0  0  0  0
 20 21  1  0  0  0  0
 20 22  1  0  0  0  0
 20 23  1  0  0  0  0
 24 25  2  0  0  0  0
 24 26  1  0  0  0  0
 26 27  1  0  0  0  0
 26 28  1  0  0  0  0
 28 29  1  0  0  0  0
 28 30  1  0  0  0  0
 28 31  1  0  0  0  0
M  END
$$$$

  -OEChem-03222214053D

 31 30  0     1  0  0  0  0  0999 V2000
   -2.9920   -3.8715    1.7554 H   0  0  0  0  0  0  0  0  0  0  0  0
   -3.0201   -2.8740    1.3079 C   0  0  0  0  0  0  0  0  0  0  0  0
   -3.5808   -2.2076    1.9677 H   0  0  0  0  0  0  0  0  0  0  0  0
   -3.5300   -2.9350    0.3434 H   0  0  0  0  0  0  0  0  0  0  0  0
   -1.6104   -2.3477    1.1158 C   0  0  0  0  0  0  0  0  0  0  0  0
   -0.6532   -3.0395    1.4261 O   0  0  0  0  0  0  0  0  0  0  0  0
   -1.4166   -1.0866    0.5929 N   0  0  0  0  0  0  0  0  0  0  0  0
   -2.2403   -0.5073    0.4371 H   0  0  0  0  0  0  0  0  0  0  0  0
   -0.1073   -0.4314    0.4467 C   0  0  1  0  0  0  0  0  0  0  0  0
    0.6005   -0.9166    1.1263 H   0  0  0  0  0  0  0  0  0  0  0  0
    0.4749   -0.4342   -1.0092 C   0  0  1  0  0  0  0  0  0  0  0  0
    0.8735    0.5605   -1.2390 H   0  0  0  0  0  0  0  0  0  0  0  0
    1.6819   -1.3957   -1.0014 C   0  0  0  0  0  0  0  0  0  0  0  0
    1.3489   -2.4270   -0.8427 H   0  0  0  0  0  0  0  0  0  0  0  0
    2.2372   -1.3427   -1.9421 H   0  0  0  0  0  0  0  0  0  0  0  0
    2.3809   -1.1311   -0.2020 H   0  0  0  0  0  0  0  0  0  0  0  0
   -0.5499   -0.7856   -2.1370 C   0  0  0  0  0  0  0  0  0  0  0  0
   -1.3182   -1.4696   -1.7730 H   0  0  0  0  0  0  0  0  0  0  0  0
   -1.0547    0.1377   -2.4393 H   0  0  0  0  0  0  0  0  0  0  0  0
    0.0315   -1.4740   -3.3780 C   0  0  0  0  0  0  0  0  0  0  0  0
    0.4174   -2.4683   -3.1337 H   0  0  0  0  0  0  0  0  0  0  0  0
   -0.7499   -1.5925   -4.1349 H   0  0  0  0  0  0  0  0  0  0  0  0
    0.8372   -0.8719   -3.8093 H   0  0  0  0  0  0  0  0  0  0  0  0
   -0.2298    1.0255    0.9372 C   0  0  0  0  0  0  0  0  0  0  0  0
   -1.2192    1.6890    0.6464 O   0  0  0  0  0  0  0  0  0  0  0  0
    0.7366    1.5746    1.7595 N   0  0  0  0  0  0  0  0  0  0  0  0
    1.5256    0.9887    2.0170 H   0  0  0  0  0  0  0  0  0  0  0  0
    0.6621    2.9324    2.2848 C   0  0  0  0  0  0  0  0  0  0  0  0
   -0.2429    3.0617    2.8879 H   0  0  0  0  0  0  0  0  0  0  0  0
    1.5308    3.1421    2.9163 H   0  0  0  0  0  0  0  0  0  0  0  0
    0.6468    3.6589    1.4656 H   0  0  0  0  0  0  0  0  0  0  0  0
  1  2  1  0  0  0  0
  2  3  1  0  0  0  0
  2  4  1  0  0  0  0
  2  5  1  0  0  0  0
  5  6  2  0  0  0  0
  5  7  1  0  0  0  0
  7  8  1  0  0  0  0
  7  9  1  0  0  0  0
  9 10  1  0  0  0  0
  9 11  1  0  0  0  0
  9 24  1  0  0  0  0
 11 12  1  0  0  0  0
 11 13  1  0  0  0  0
 11 17  1  0  0  0  0
 13 14  1  0  0  0  0
 13 15  1  0  0  0  0
 13 16  1  0  0  0  0
 17 18  1  0  0  0  0
 17 19  1  0  0  0  0
 17 20  1  0  0  0  0
 20 21  1  0  0  0  0
 20 22  1  0  0  0  0
 20 23  1  0  0  0  0
 24 25  2  0  0  0  0
 24 26  1  0  0  0  0
 26 27  1  0  0  0  0
 26 28  1  0  0  0  0
 28 29  1  0  0  0  0
 28 30  1  0  0  0  0
 28 31  1  0  0  0  0
M  END
$$$$

  -OEChem-03222214053D

 31 30  0     1  0  0  0  0  0999 V2000
   -3.0116   -3.8571    1.7750 H   0  0  0  0  0  0  0  0  0  0  0  0
   -3.0346   -2.8583    1.3300 C   0  0  0  0  0  0  0  0  0  0  0  0
   -3.5838   -2.1886    1.9963 H   0  0  0  0  0  0  0  0  0  0  0  0
   -3.5535   -2.9119    0.3698 H   0  0  0  0  0  0  0  0  0  0  0  0
   -1.6224   -2.3428    1.1263 C   0  0  0  0  0  0  0  0  0  0  0  0
   -0.6675   -3.0399    1.4320 O   0  0  0  0  0  0  0  0  0  0  0  0
   -1.4246   -1.0836    0.6009 N   0  0  0  0  0  0  0  0  0  0  0  0
   -2.2464   -0.5001    0.4503 H   0  0  0  0  0  0  0  0  0  0  0  0
   -0.1141   -0.4334    0.4473 C   0  0  1  0  0  0  0  0  0  0  0  0
    0.5917   -0.9200    1.1281 H   0  0  0  0  0  0  0  0  0  0  0  0
    0.4732   -0.4465   -1.0077 C   0  0  1  0  0  0  0  0  0  0  0  0
    0.8559    0.5546   -1.2370 H   0  0  0  0  0  0  0  0  0  0  0  0
    1.7079   -1.3716   -0.9820 C   0  0  0  0  0  0  0  0  0  0  0  0
    1.4109   -2.4060   -0.7795 H   0  0  0  0  0  0  0  0  0  0  0  0
    2.2491   -1.3351   -1.9315 H   0  0  0  0  0  0  0  0  0  0  0  0
    2.4068   -1.0562   -0.2009 H   0  0  0  0  0  0  0  0  0  0  0  0
   -0.5347   -0.8014   -2.1562 C   0  0  0  0  0  0  0  0  0  0  0  0
   -1.4630   -1.2199   -1.7682 H   0  0  0  0  0  0  0  0  0  0  0  0
   -0.8065    0.1328   -2.6583 H   0  0  0  0  0  0  0  0  0  0  0  0
   -0.0467   -1.7953   -3.2183 C   0  0  0  0  0  0  0  0  0  0  0  0
    0.1802   -2.7682   -2.7716 H   0  0  0  0  0  0  0  0  0  0  0  0
   -0.8273   -1.9431   -3.9708 H   0  0  0  0  0  0  0  0  0  0  0  0
    0.8442   -1.4146   -3.7265 H   0  0  0  0  0  0  0  0  0  0  0  0
   -0.2305    1.0248    0.9364 C   0  0  0  0  0  0  0  0  0  0  0  0
   -1.2229    1.6882    0.6560 O   0  0  0  0  0  0  0  0  0  0  0  0
    0.7417    1.5717    1.7534 N   0  0  0  0  0  0  0  0  0  0  0  0
    1.5277    0.9819    2.0112 H   0  0  0  0  0  0  0  0  0  0  0  0
    0.6624    2.9212    2.2989 C   0  0  0  0  0  0  0  0  0  0  0  0
   -0.2357    3.0336    2.9156 H   0  0  0  0  0  0  0  0  0  0  0  0
    1.5375    3.1293    2.9223 H   0  0  0  0  0  0  0  0  0  0  0  0
    0.6296    3.6594    1.4906 H   0  0  0  0  0  0  0  0  0  0  0  0
  1  2  1  0  0  0  0
  2  3  1  0  0  0  0
  2  4  1  0  0  0  0
  2  5  1  0  0  0  0
  5  6  2  0  0  0  0
  5  7  1  0  0  0  0
  7  8  1  0  0  0  0
  7  9  1  0  0  0  0
  9 10  1  0  0  0  0
  9 11  1  0  0  0  0
  9 24  1  0  0  0  0
 11 12  1  0  0  0  0
 11 13  1  0  0  0  0
 11 17  1  0  0  0  0
 13 14  1  0  0  0  0
 13 15  1  0  0  0  0
 13 16  1  0  0  0  0
 17 18  1  0  0  0  0
 17 19  1  0  0  0  0
 17 20  1  0  0  0  0
 20 21  1  0  0  0  0
 20 22  1  0  0  0  0
 20 23  1  0  0  0  0
 24 25  2  0  0  0  0
 24 26  1  0  0  0  0
 26 27  1  0  0  0  0
 26 28  1  0  0  0  0
 28 29  1  0  0  0  0
 28 30  1  0  0  0  0
 28 31  1  0  0  0  0
M  END
$$$$

  -OEChem-03222214053D

 31 30  0     1  0  0  0  0  0999 V2000
   -3.0126   -3.8585    1.7530 H   0  0  0  0  0  0  0  0  0  0  0  0
   -3.0358   -2.8579    1.3123 C   0  0  0  0  0  0  0  0  0  0  0  0
   -3.5918   -2.1929    1.9775 H   0  0  0  0  0  0  0  0  0  0  0  0
   -3.5469   -2.9087    0.3479 H   0  0  0  0  0  0  0  0  0  0  0  0
   -1.6239   -2.3380    1.1217 C   0  0  0  0  0  0  0  0  0  0  0  0
   -0.6697   -3.0343    1.4316 O   0  0  0  0  0  0  0  0  0  0  0  0
   -1.4257   -1.0775    0.5999 N   0  0  0  0  0  0  0  0  0  0  0  0
   -2.2474   -0.4962    0.4417 H   0  0  0  0  0  0  0  0  0  0  0  0
   -0.1144   -0.4270    0.4544 C   0  0  1  0  0  0  0  0  0  0  0  0
    0.5900   -0.9160    1.1350 H   0  0  0  0  0  0  0  0  0  0  0  0
    0.4726   -0.4553   -0.9981 C   0  0  1  0  0  0  0  0  0  0  0  0
    0.8297    0.5546   -1.2303 H   0  0  0  0  0  0  0  0  0  0  0  0
    1.7306   -1.3461   -0.9805 C   0  0  0  0  0  0  0  0  0  0  0  0
    1.4705   -2.3824   -0.7415 H   0  0  0  0  0  0  0  0  0  0  0  0
    2.2422   -1.3196   -1.9468 H   0  0  0  0  0  0  0  0  0  0  0  0
    2.4387   -0.9892   -0.2262 H   0  0  0  0  0  0  0  0  0  0  0  0
   -0.5359   -0.8193   -2.1421 C   0  0  0  0  0  0  0  0  0  0  0  0
   -1.5584   -0.9185   -1.7760 H   0  0  0  0  0  0  0  0  0  0  0  0
   -0.5558    0.0295   -2.8336 H   0  0  0  0  0  0  0  0  0  0  0  0
   -0.2116   -2.0662   -2.9748 C   0  0  0  0  0  0  0  0  0  0  0  0
   -0.1714   -2.9551   -2.3378 H   0  0  0  0  0  0  0  0  0  0  0  0
   -0.9922   -2.2209   -3.7256 H   0  0  0  0  0  0  0  0  0  0  0  0
    0.7411   -1.9550   -3.5001 H   0  0  0  0  0  0  0  0  0  0  0  0
   -0.2274    1.0311    0.9446 C   0  0  0  0  0  0  0  0  0  0  0  0
   -1.2155    1.6988    0.6593 O   0  0  0  0  0  0  0  0  0  0  0  0
    0.7435    1.5736    1.7662 N   0  0  0  0  0  0  0  0  0  0  0  0
    1.5263    0.9805    2.0258 H   0  0  0  0  0  0  0  0  0  0  0  0
    0.6680    2.9234    2.3113 C   0  0  0  0  0  0  0  0  0  0  0  0
   -0.2300    3.0386    2.9274 H   0  0  0  0  0  0  0  0  0  0  0  0
    1.5434    3.1287    2.9350 H   0  0  0  0  0  0  0  0  0  0  0  0
    0.6386    3.6616    1.5030 H   0  0  0  0  0  0  0  0  0  0  0  0
  1  2  1  0  0  0  0
  2  3  1  0  0  0  0
  2  4  1  0  0  0  0
  2  5  1  0  0  0  0
  5  6  2  0  0  0  0
  5  7  1  0  0  0  0
  7  8  1  0  0  0  0
  7  9  1  0  0  0  0
  9 10  1  0  0  0  0
  9 11  1  0  0  0  0
  9 24  1  0  0  0  0
 11 12  1  0  0  0  0
 11 13  1  0  0  0  0
 11 17  1  0  0  0  0
 13 14  1  0  0  0  0
 13 15  1  0  0  0  0
 13 16  1  0  0  0  0
 17 18  1  0  0  0  0
 17 19  1  0  0  0  0
 17 20  1  0  0  0  0
 20 21  1  0  0  0  0
 20 22  1  0  0  0  0
 20 23  1  0  0  0  0
 24 25  2  0  0  0  0
 24 26  1  0  0  0  0
 26 27  1  0  0  0  0
 26 28  1  0  0  0  0
 28 29  1  0  0  0  0
 28 30  1  0  0  0  0
 28 31  1  0  0  0  0
M  END
$$$$

  -OEChem-03222214053D

 31 30  0     1  0  0  0  0  0999 V2000
   -3.0123   -3.8564    1.7250 H   0  0  0  0  0  0  0  0  0  0  0  0
   -3.0332   -2.8559    1.2840 C   0  0  0  0  0  0  0  0  0  0  0  0
   -3.5970   -2.1918    1.9437 H   0  0  0  0  0  0  0  0  0  0  0  0
   -3.5351   -2.9082    0.3149 H   0  0  0  0  0  0  0  0  0  0  0  0
   -1.6204   -2.3335    1.1067 C   0  0  0  0  0  0  0  0  0  0  0  0
   -0.6683   -3.0287    1.4249 O   0  0  0  0  0  0  0  0  0  0  0  0
   -1.4185   -1.0720    0.5889 N   0  0  0  0  0  0  0  0  0  0  0  0
   -2.2396   -0.4917    0.4243 H   0  0  0  0  0  0  0  0  0  0  0  0
   -0.1062   -0.4187    0.4585 C   0  0  1  0  0  0  0  0  0  0  0  0
    0.5969   -0.9099    1.1392 H   0  0  0  0  0  0  0  0  0  0  0  0
    0.4802   -0.4561   -0.9904 C   0  0  1  0  0  0  0  0  0  0  0  0
    0.8221    0.5577   -1.2283 H   0  0  0  0  0  0  0  0  0  0  0  0
    1.7427   -1.3368   -0.9970 C   0  0  0  0  0  0  0  0  0  0  0  0
    1.5021   -2.3682   -0.7190 H   0  0  0  0  0  0  0  0  0  0  0  0
    2.2087   -1.3343   -1.9869 H   0  0  0  0  0  0  0  0  0  0  0  0
    2.4767   -0.9532   -0.2818 H   0  0  0  0  0  0  0  0  0  0  0  0
   -0.5386   -0.8267   -2.1142 C   0  0  0  0  0  0  0  0  0  0  0  0
   -1.5686   -0.6397   -1.8010 H   0  0  0  0  0  0  0  0  0  0  0  0
   -0.3584   -0.1422   -2.9496 H   0  0  0  0  0  0  0  0  0  0  0  0
   -0.4253   -2.2463   -2.6842 C   0  0  0  0  0  0  0  0  0  0  0  0
   -0.5348   -2.9880   -1.8869 H   0  0  0  0  0  0  0  0  0  0  0  0
   -1.2179   -2.4138   -3.4196 H   0  0  0  0  0  0  0  0  0  0  0  0
    0.5355   -2.3986   -3.1841 H   0  0  0  0  0  0  0  0  0  0  0  0
   -0.2209    1.0393    0.9483 C   0  0  0  0  0  0  0  0  0  0  0  0
   -1.2061    1.7081    0.6556 O   0  0  0  0  0  0  0  0  0  0  0  0
    0.7434    1.5792    1.7792 N   0  0  0  0  0  0  0  0  0  0  0  0
    1.5232    0.9848    2.0448 H   0  0  0  0  0  0  0  0  0  0  0  0
    0.6646    2.9283    2.3256 C   0  0  0  0  0  0  0  0  0  0  0  0
   -0.2383    3.0432    2.9347 H   0  0  0  0  0  0  0  0  0  0  0  0
    1.5353    3.1322    2.9563 H   0  0  0  0  0  0  0  0  0  0  0  0
    0.6420    3.6678    1.5182 H   0  0  0  0  0  0  0  0  0  0  0  0
  1  2  1  0  0  0  0
  2  3  1  0  0  0  0
  2  4  1  0  0  0  0
  2  5  1  0  0  0  0
  5  6  2  0  0  0  0
  5  7  1  0  0  0  0
  7  8  1  0  0  0  0
  7  9  1  0  0  0  0
  9 10  1  0  0  0  0
  9 11  1  0  0  0  0
  9 24  1  0  0  0  0
 11 12  1  0  0  0  0
 11 13  1  0  0  0  0
 11 17  1  0  0  0  0
 13 14  1  0  0  0  0
 13 15  1  0  0  0  0
 13 16  1  0  0  0  0
 17 18  1  0  0  0  0
 17 19  1  0  0  0  0
 17 20  1  0  0  0  0
 20 21  1  0  0  0  0
 20 22  1  0  0  0  0
 20 23  1  0  0  0  0
 24 25  2  0  0  0  0
 24 26  1  0  0  0  0
 26 27  1  0  0  0  0
 26 28  1  0  0  0  0
 28 29  1  0  0  0  0
 28 30  1  0  0  0  0
 28 31  1  0  0  0  0
M  END
$$$$

  -OEChem-03222214053D

 31 30  0     1  0  0  0  0  0999 V2000
   -3.0107   -3.8646    1.7134 H   0  0  0  0  0  0  0  0  0  0  0  0
   -3.0270   -2.8645    1.2711 C   0  0  0  0  0  0  0  0  0  0  0  0
   -3.6105   -2.2030    1.9160 H   0  0  0  0  0  0  0  0  0  0  0  0
   -3.5048   -2.9212    0.2900 H   0  0  0  0  0  0  0  0  0  0  0  0
   -1.6134   -2.3334    1.1272 C   0  0  0  0  0  0  0  0  0  0  0  0
   -0.6650   -3.0196    1.4747 O   0  0  0  0  0  0  0  0  0  0  0  0
   -1.4070   -1.0757    0.6015 N   0  0  0  0  0  0  0  0  0  0  0  0
   -2.2275   -0.5041    0.4072 H   0  0  0  0  0  0  0  0  0  0  0  0
   -0.0945   -0.4213    0.4744 C   0  0  1  0  0  0  0  0  0  0  0  0
    0.6126   -0.9089    1.1533 H   0  0  0  0  0  0  0  0  0  0  0  0
    0.4874   -0.4499   -0.9755 C   0  0  1  0  0  0  0  0  0  0  0  0
    0.8370    0.5617   -1.2115 H   0  0  0  0  0  0  0  0  0  0  0  0
    1.7313   -1.3533   -1.0093 C   0  0  0  0  0  0  0  0  0  0  0  0
    1.4841   -2.3722   -0.6932 H   0  0  0  0  0  0  0  0  0  0  0  0
    2.1508   -1.3888   -2.0195 H   0  0  0  0  0  0  0  0  0  0  0  0
    2.5014   -0.9636   -0.3363 H   0  0  0  0  0  0  0  0  0  0  0  0
   -0.5328   -0.8132   -2.0918 C   0  0  0  0  0  0  0  0  0  0  0  0
   -1.5174   -0.4031   -1.8475 H   0  0  0  0  0  0  0  0  0  0  0  0
   -0.2126   -0.3123   -3.0111 H   0  0  0  0  0  0  0  0  0  0  0  0
   -0.6622   -2.3082   -2.4177 C   0  0  0  0  0  0  0  0  0  0  0  0
   -0.8985   -2.8863   -1.5210 H   0  0  0  0  0  0  0  0  0  0  0  0
   -1.4647   -2.4596   -3.1458 H   0  0  0  0  0  0  0  0  0  0  0  0
    0.2639   -2.6976   -2.8506 H   0  0  0  0  0  0  0  0  0  0  0  0
   -0.2174    1.0395    0.9541 C   0  0  0  0  0  0  0  0  0  0  0  0
   -1.1990    1.7061    0.6445 O   0  0  0  0  0  0  0  0  0  0  0  0
    0.7399    1.5872    1.7880 N   0  0  0  0  0  0  0  0  0  0  0  0
    1.5180    0.9955    2.0650 H   0  0  0  0  0  0  0  0  0  0  0  0
    0.6585    2.9423    2.3189 C   0  0  0  0  0  0  0  0  0  0  0  0
   -0.2568    3.0699    2.9063 H   0  0  0  0  0  0  0  0  0  0  0  0
    1.5159    3.1468    2.9672 H   0  0  0  0  0  0  0  0  0  0  0  0
    0.6588    3.6735    1.5036 H   0  0  0  0  0  0  0  0  0  0  0  0
  1  2  1  0  0  0  0
  2  3  1  0  0  0  0
  2  4  1  0  0  0  0
  2  5  1  0  0  0  0
  5  6  2  0  0  0  0
  5  7  1  0  0  0  0
  7  8  1  0  0  0  0
  7  9  1  0  0  0  0
  9 10  1  0  0  0  0
  9 11  1  0  0  0  0
  9 24  1  0  0  0  0
 11 12  1  0  0  0  0
 11 13  1  0  0  0  0
 11 17  1  0  0  0  0
 13 14  1  0  0  0  0
 13 15  1  0  0  0  0
 13 16  1  0  0  0  0
 17 18  1  0  0  0  0
 17 19  1  0  0  0  0
 17 20  1  0  0  0  0
 20 21  1  0  0  0  0
 20 22  1  0  0  0  0
 20 23  1  0  0  0  0
 24 25  2  0  0  0  0
 24 26  1  0  0  0  0
 26 27  1  0  0  0  0
 26 28  1  0  0  0  0
 28 29  1  0  0  0  0
 28 30  1  0  0  0  0
 28 31  1  0  0  0  0
M  END
$$$$

  -OEChem-03222214053D

 31 30  0     1  0  0  0  0  0999 V2000
   -2.9974   -3.8592    1.8169 H   0  0  0  0  0  0  0  0  0  0  0  0
   -3.0183   -2.8576    1.3785 C   0  0  0  0  0  0  0  0  0  0  0  0
   -3.5743   -2.1929    2.0439 H   0  0  0  0  0  0  0  0  0  0  0  0
   -3.5282   -2.9061    0.4133 H   0  0  0  0  0  0  0  0  0  0  0  0
   -1.6051   -2.3391    1.1911 C   0  0  0  0  0  0  0  0  0  0  0  0
   -0.6527   -3.0251    1.5283 O   0  0  0  0  0  0  0  0  0  0  0  0
   -1.4038   -1.0898    0.6420 N   0  0  0  0  0  0  0  0  0  0  0  0
   -2.2251   -0.5157    0.4572 H   0  0  0  0  0  0  0  0  0  0  0  0
   -0.0929   -0.4412    0.4921 C   0  0  1  0  0  0  0  0  0  0  0  0
    0.6224   -0.9178    1.1705 H   0  0  0  0  0  0  0  0  0  0  0  0
    0.4894   -0.4469   -0.9598 C   0  0  1  0  0  0  0  0  0  0  0  0
    0.8688    0.5583   -1.1761 H   0  0  0  0  0  0  0  0  0  0  0  0
    1.7021   -1.3902   -1.0009 C   0  0  0  0  0  0  0  0  0  0  0  0
    1.4206   -2.4012   -0.6886 H   0  0  0  0  0  0  0  0  0  0  0  0
    2.1170   -1.4381   -2.0126 H   0  0  0  0  0  0  0  0  0  0  0  0
    2.4868   -1.0299   -0.3286 H   0  0  0  0  0  0  0  0  0  0  0  0
   -0.4899   -0.7877   -2.1167 C   0  0  0  0  0  0  0  0  0  0  0  0
   -1.3969   -0.1881   -1.9874 H   0  0  0  0  0  0  0  0  0  0  0  0
   -0.0273   -0.4648   -3.0550 H   0  0  0  0  0  0  0  0  0  0  0  0
   -0.8980   -2.2603   -2.2897 C   0  0  0  0  0  0  0  0  0  0  0  0
   -1.3787   -2.6652   -1.4013 H   0  0  0  0  0  0  0  0  0  0  0  0
   -1.6039   -2.3469   -3.1210 H   0  0  0  0  0  0  0  0  0  0  0  0
   -0.0266   -2.8787   -2.5232 H   0  0  0  0  0  0  0  0  0  0  0  0
   -0.2297    1.0246    0.9553 C   0  0  0  0  0  0  0  0  0  0  0  0
   -1.2199    1.6785    0.6449 O   0  0  0  0  0  0  0  0  0  0  0  0
    0.7270    1.5916    1.7771 N   0  0  0  0  0  0  0  0  0  0  0  0
    1.5118    1.0104    2.0574 H   0  0  0  0  0  0  0  0  0  0  0  0
    0.6329    2.9504    2.2964 C   0  0  0  0  0  0  0  0  0  0  0  0
   -0.2788    3.0716    2.8907 H   0  0  0  0  0  0  0  0  0  0  0  0
    1.4935    3.1714    2.9351 H   0  0  0  0  0  0  0  0  0  0  0  0
    0.6174    3.6744    1.4749 H   0  0  0  0  0  0  0  0  0  0  0  0
  1  2  1  0  0  0  0
  2  3  1  0  0  0  0
  2  4  1  0  0  0  0
  2  5  1  0  0  0  0
  5  6  2  0  0  0  0
  5  7  1  0  0  0  0
  7  8  1  0  0  0  0
  7  9  1  0  0  0  0
  9 10  1  0  0  0  0
  9 11  1  0  0  0  0
  9 24  1  0  0  0  0
 11 12  1  0  0  0  0
 11 13  1  0  0  0  0
 11 17  1  0  0  0  0
 13 14  1  0  0  0  0
 13 15  1  0  0  0  0
 13 16  1  0  0  0  0
 17 18  1  0  0  0  0
 17 19  1  0  0  0  0
 17 20  1  0  0  0  0
 20 21  1  0  0  0  0
 20 22  1  0  0  0  0
 20 23  1  0  0  0  0
 24 25  2  0  0  0  0
 24 26  1  0  0  0  0
 26 27  1  0  0  0  0
 26 28  1  0  0  0  0
 28 29  1  0  0  0  0
 28 30  1  0  0  0  0
 28 31  1  0  0  0  0
M  END
$$$$

  -OEChem-03222214053D

 31 30  0     1  0  0  0  0  0999 V2000
   -2.9458   -3.8742    1.8879 H   0  0  0  0  0  0  0  0  0  0  0  0
   -2.9868   -2.8721    1.4519 C   0  0  0  0  0  0  0  0  0  0  0  0
   -3.5210   -2.2108    2.1383 H   0  0  0  0  0  0  0  0  0  0  0  0
   -3.5319   -2.9219    0.5064 H   0  0  0  0  0  0  0  0  0  0  0  0
   -1.5833   -2.3473    1.2143 C   0  0  0  0  0  0  0  0  0  0  0  0
   -0.6180   -3.0331    1.5132 O   0  0  0  0  0  0  0  0  0  0  0  0
   -1.4040   -1.0916    0.6713 N   0  0  0  0  0  0  0  0  0  0  0  0
   -2.2319   -0.5186    0.5155 H   0  0  0  0  0  0  0  0  0  0  0  0
   -0.1014   -0.4363    0.4993 C   0  0  1  0  0  0  0  0  0  0  0  0
    0.6249   -0.9113    1.1668 H   0  0  0  0  0  0  0  0  0  0  0  0
    0.4647   -0.4345   -0.9591 C   0  0  1  0  0  0  0  0  0  0  0  0
    0.8548    0.5673   -1.1713 H   0  0  0  0  0  0  0  0  0  0  0  0
    1.6698   -1.3903   -1.0053 C   0  0  0  0  0  0  0  0  0  0  0  0
    1.3815   -2.4002   -0.6974 H   0  0  0  0  0  0  0  0  0  0  0  0
    2.0866   -1.4395   -2.0161 H   0  0  0  0  0  0  0  0  0  0  0  0
    2.4580   -1.0405   -0.3314 H   0  0  0  0  0  0  0  0  0  0  0  0
   -0.4937   -0.7738   -2.1363 C   0  0  0  0  0  0  0  0  0  0  0  0
   -1.2748   -0.0073   -2.1721 H   0  0  0  0  0  0  0  0  0  0  0  0
    0.0817   -0.6823   -3.0633 H   0  0  0  0  0  0  0  0  0  0  0  0
   -1.1801   -2.1489   -2.1559 C   0  0  0  0  0  0  0  0  0  0  0  0
   -2.0617   -2.1664   -1.5134 H   0  0  0  0  0  0  0  0  0  0  0  0
   -1.5180   -2.3692   -3.1730 H   0  0  0  0  0  0  0  0  0  0  0  0
   -0.4960   -2.9433   -1.8465 H   0  0  0  0  0  0  0  0  0  0  0  0
   -0.2348    1.0253    0.9767 C   0  0  0  0  0  0  0  0  0  0  0  0
   -1.2342    1.6767    0.6918 O   0  0  0  0  0  0  0  0  0  0  0  0
    0.7354    1.5921    1.7825 N   0  0  0  0  0  0  0  0  0  0  0  0
    1.5325    1.0160    2.0371 H   0  0  0  0  0  0  0  0  0  0  0  0
    0.6505    2.9513    2.3026 C   0  0  0  0  0  0  0  0  0  0  0  0
   -0.2553    3.0759    2.9054 H   0  0  0  0  0  0  0  0  0  0  0  0
    1.5176    3.1693    2.9336 H   0  0  0  0  0  0  0  0  0  0  0  0
    0.6296    3.6749    1.4809 H   0  0  0  0  0  0  0  0  0  0  0  0
  1  2  1  0  0  0  0
  2  3  1  0  0  0  0
  2  4  1  0  0  0  0
  2  5  1  0  0  0  0
  5  6  2  0  0  0  0
  5  7  1  0  0  0  0
  7  8  1  0  0  0  0
  7  9  1  0  0  0  0
  9 10  1  0  0  0  0
  9 11  1  0  0  0  0
  9 24  1  0  0  0  0
 11 12  1  0  0  0  0
 11 13  1  0  0  0  0
 11 17  1  0  0  0  0
 13 14  1  0  0  0  0
 13 15  1  0  0  0  0
 13 16  1  0  0  0  0
 17 18  1  0  0  0  0
 17 19  1  0  0  0  0
 17 20  1  0  0  0  0
 20 21  1  0  0  0  0
 20 22  1  0  0  0  0
 20 23  1  0  0  0  0
 24 25  2  0  0  0  0
 24 26  1  0  0  0  0
 26 27  1  0  0  0  0
 26 28  1  0  0  0  0
 28 29  1  0  0  0  0
 28 30  1  0  0  0  0
 28 31  1  0  0  0  0
M  END
$$$$

  -OEChem-03222214053D

 31 30  0     1  0  0  0  0  0999 V2000
   -2.9175   -3.8578    1.9920 H   0  0  0  0  0  0  0  0  0  0  0  0
   -2.9671   -2.8724    1.5203 C   0  0  0  0  0  0  0  0  0  0  0  0
   -3.5039   -2.1907    2.1843 H   0  0  0  0  0  0  0  0  0  0  0  0
   -3.5140   -2.9594    0.5784 H   0  0  0  0  0  0  0  0  0  0  0  0
   -1.5684   -2.3463    1.2598 C   0  0  0  0  0  0  0  0  0  0  0  0
   -0.5969   -3.0302    1.5428 O   0  0  0  0  0  0  0  0  0  0  0  0
   -1.4016   -1.0912    0.7129 N   0  0  0  0  0  0  0  0  0  0  0  0
   -2.2343   -0.5205    0.5734 H   0  0  0  0  0  0  0  0  0  0  0  0
   -0.1061   -0.4336    0.5073 C   0  0  1  0  0  0  0  0  0  0  0  0
    0.6311   -0.9037    1.1662 H   0  0  0  0  0  0  0  0  0  0  0  0
    0.4484   -0.4188   -0.9600 C   0  0  1  0  0  0  0  0  0  0  0  0
    0.8667    0.5744   -1.1595 H   0  0  0  0  0  0  0  0  0  0  0  0
    1.6254   -1.4113   -1.0077 C   0  0  0  0  0  0  0  0  0  0  0  0
    1.2850   -2.4270   -0.7812 H   0  0  0  0  0  0  0  0  0  0  0  0
    2.0935   -1.4143   -1.9969 H   0  0  0  0  0  0  0  0  0  0  0  0
    2.3923   -1.1332   -0.2780 H   0  0  0  0  0  0  0  0  0  0  0  0
   -0.4829   -0.7493   -2.1666 C   0  0  0  0  0  0  0  0  0  0  0  0
   -1.1064    0.1316   -2.3512 H   0  0  0  0  0  0  0  0  0  0  0  0
    0.1433   -0.8784   -3.0553 H   0  0  0  0  0  0  0  0  0  0  0  0
   -1.4259   -1.9562   -2.0823 C   0  0  0  0  0  0  0  0  0  0  0  0
   -2.3341   -1.7124   -1.5265 H   0  0  0  0  0  0  0  0  0  0  0  0
   -1.7326   -2.2509   -3.0904 H   0  0  0  0  0  0  0  0  0  0  0  0
   -0.9286   -2.8106   -1.6141 H   0  0  0  0  0  0  0  0  0  0  0  0
   -0.2388    1.0261    0.9899 C   0  0  0  0  0  0  0  0  0  0  0  0
   -1.2509    1.6699    0.7332 O   0  0  0  0  0  0  0  0  0  0  0  0
    0.7467    1.5984    1.7730 N   0  0  0  0  0  0  0  0  0  0  0  0
    1.5486    1.0237    2.0154 H   0  0  0  0  0  0  0  0  0  0  0  0
    0.6547    2.9482    2.3159 C   0  0  0  0  0  0  0  0  0  0  0  0
   -0.2131    3.0364    2.9782 H   0  0  0  0  0  0  0  0  0  0  0  0
    1.5545    3.1863    2.8913 H   0  0  0  0  0  0  0  0  0  0  0  0
    0.5576    3.6809    1.5078 H   0  0  0  0  0  0  0  0  0  0  0  0
  1  2  1  0  0  0  0
  2  3  1  0  0  0  0
  2  4  1  0  0  0  0
  2  5  1  0  0  0  0
  5  6  2  0  0  0  0
  5  7  1  0  0  0  0
  7  8  1  0  0  0  0
  7  9  1  0  0  0  0
  9 10  1  0  0  0  0
  9 11  1  0  0  0  0
  9 24  1  0  0  0  0
 11 12  1  0  0  0  0
 11 13  1  0  0  0  0
 11 17  1  0  0  0  0
 13 14  1  0  0  0  0
 13 15  1  0  0  0  0
 13 16  1  0  0  0  0
 17 18  1  0  0  0  0
 17 19  1  0  0  0  0
 17 20  1  0  0  0  0
 20 21  1  0  0  0  0
 20 22  1  0  0  0  0
 20 23  1  0  0  0  0
 24 25  2  0  0  0  0
 24 26  1  0  0  0  0
 26 27  1  0  0  0  0
 26 28  1  0  0  0  0
 28 29  1  0  0  0  0
 28 30  1  0  0  0  0
 28 31  1  0  0  0  0
M  END
$$$$

  -OEChem-03222214053D

 31 30  0     1  0  0  0  0  0999 V2000
   -2.8884   -3.8750    2.0318 H   0  0  0  0  0  0  0  0  0  0  0  0
   -2.9485   -2.8854    1.5702 C   0  0  0  0  0  0  0  0  0  0  0  0
   -3.4846   -2.2137    2.2451 H   0  0  0  0  0  0  0  0  0  0  0  0
   -3.5026   -2.9668    0.6320 H   0  0  0  0  0  0  0  0  0  0  0  0
   -1.5553   -2.3485    1.3025 C   0  0  0  0  0  0  0  0  0  0  0  0
   -0.5771   -3.0284    1.5712 O   0  0  0  0  0  0  0  0  0  0  0  0
   -1.4010   -1.0929    0.7535 N   0  0  0  0  0  0  0  0  0  0  0  0
   -2.2379   -0.5267    0.6220 H   0  0  0  0  0  0  0  0  0  0  0  0
   -0.1124   -0.4321    0.5200 C   0  0  1  0  0  0  0  0  0  0  0  0
    0.6346   -0.8984    1.1704 H   0  0  0  0  0  0  0  0  0  0  0  0
    0.4288   -0.4067   -0.9562 C   0  0  1  0  0  0  0  0  0  0  0  0
    0.8609    0.5824   -1.1461 H   0  0  0  0  0  0  0  0  0  0  0  0
    1.5955   -1.4128   -1.0052 C   0  0  0  0  0  0  0  0  0  0  0  0
    1.2310   -2.4301   -0.8269 H   0  0  0  0  0  0  0  0  0  0  0  0
    2.0946   -1.3872   -1.9789 H   0  0  0  0  0  0  0  0  0  0  0  0
    2.3468   -1.1742   -0.2459 H   0  0  0  0  0  0  0  0  0  0  0  0
   -0.4842   -0.7295   -2.1857 C   0  0  0  0  0  0  0  0  0  0  0  0
   -0.9145    0.2215   -2.5163 H   0  0  0  0  0  0  0  0  0  0  0  0
    0.1415   -1.0846   -3.0108 H   0  0  0  0  0  0  0  0  0  0  0  0
   -1.6577   -1.7027   -2.0474 C   0  0  0  0  0  0  0  0  0  0  0  0
   -2.4849   -1.2499   -1.4950 H   0  0  0  0  0  0  0  0  0  0  0  0
   -2.0340   -1.9648   -3.0408 H   0  0  0  0  0  0  0  0  0  0  0  0
   -1.3386   -2.6240   -1.5510 H   0  0  0  0  0  0  0  0  0  0  0  0
   -0.2424    1.0262    1.0078 C   0  0  0  0  0  0  0  0  0  0  0  0
   -1.2620    1.6661    0.7725 O   0  0  0  0  0  0  0  0  0  0  0  0
    0.7567    1.6024    1.7707 N   0  0  0  0  0  0  0  0  0  0  0  0
    1.5667    1.0318    1.9948 H   0  0  0  0  0  0  0  0  0  0  0  0
    0.6682    2.9501    2.3190 C   0  0  0  0  0  0  0  0  0  0  0  0
   -0.1975    3.0369    2.9842 H   0  0  0  0  0  0  0  0  0  0  0  0
    1.5698    3.1850    2.8929 H   0  0  0  0  0  0  0  0  0  0  0  0
    0.5694    3.6858    1.5139 H   0  0  0  0  0  0  0  0  0  0  0  0
  1  2  1  0  0  0  0
  2  3  1  0  0  0  0
  2  4  1  0  0  0  0
  2  5  1  0  0  0  0
  5  6  2  0  0  0  0
  5  7  1  0  0  0  0
  7  8  1  0  0  0  0
  7  9  1  0  0  0  0
  9 10  1  0  0  0  0
  9 11  1  0  0  0  0
  9 24  1  0  0  0  0
 11 12  1  0  0  0  0
 11 13  1  0  0  0  0
 11 17  1  0  0  0  0
 13 14  1  0  0  0  0
 13 15  1  0  0  0  0
 13 16  1  0  0  0  0
 17 18  1  0  0  0  0
 17 19  1  0  0  0  0
 17 20  1  0  0  0  0
 20 21  1  0  0  0  0
 20 22  1  0  0  0  0
 20 23  1  0  0  0  0
 24 25  2  0  0  0  0
 24 26  1  0  0  0  0
 26 27  1  0  0  0  0
 26 28  1  0  0  0  0
 28 29  1  0  0  0  0
 28 30  1  0  0  0  0
 28 31  1  0  0  0  0
M  END
$$$$

  -OEChem-03222214053D

 31 30  0     1  0  0  0  0  0999 V2000
   -2.8837   -3.8856    2.0388 H   0  0  0  0  0  0  0  0  0  0  0  0
   -2.9464   -2.8856    1.6008 C   0  0  0  0  0  0  0  0  0  0  0  0
   -3.4599   -2.2249    2.3035 H   0  0  0  0  0  0  0  0  0  0  0  0
   -3.5239   -2.9417    0.6749 H   0  0  0  0  0  0  0  0  0  0  0  0
   -1.5558   -2.3532    1.3111 C   0  0  0  0  0  0  0  0  0  0  0  0
   -0.5757   -3.0372    1.5618 O   0  0  0  0  0  0  0  0  0  0  0  0
   -1.4068   -1.0950    0.7669 N   0  0  0  0  0  0  0  0  0  0  0  0
   -2.2441   -0.5257    0.6531 H   0  0  0  0  0  0  0  0  0  0  0  0
   -0.1205   -0.4334    0.5225 C   0  0  1  0  0  0  0  0  0  0  0  0
    0.6301   -0.9022    1.1667 H   0  0  0  0  0  0  0  0  0  0  0  0
    0.4155   -0.4031   -0.9573 C   0  0  1  0  0  0  0  0  0  0  0  0
    0.8391    0.5913   -1.1395 H   0  0  0  0  0  0  0  0  0  0  0  0
    1.5985   -1.3902   -1.0080 C   0  0  0  0  0  0  0  0  0  0  0  0
    1.2474   -2.4146   -0.8433 H   0  0  0  0  0  0  0  0  0  0  0  0
    2.1035   -1.3450   -1.9781 H   0  0  0  0  0  0  0  0  0  0  0  0
    2.3411   -1.1486   -0.2411 H   0  0  0  0  0  0  0  0  0  0  0  0
   -0.4891   -0.7204   -2.2001 C   0  0  0  0  0  0  0  0  0  0  0  0
   -0.6944    0.2397   -2.6847 H   0  0  0  0  0  0  0  0  0  0  0  0
    0.0802   -1.3111   -2.9250 H   0  0  0  0  0  0  0  0  0  0  0  0
   -1.8468   -1.4053   -2.0370 C   0  0  0  0  0  0  0  0  0  0  0  0
   -2.5399   -0.7736   -1.4745 H   0  0  0  0  0  0  0  0  0  0  0  0
   -2.2876   -1.5825   -3.0227 H   0  0  0  0  0  0  0  0  0  0  0  0
   -1.7341   -2.3732   -1.5404 H   0  0  0  0  0  0  0  0  0  0  0  0
   -0.2459    1.0226    1.0194 C   0  0  0  0  0  0  0  0  0  0  0  0
   -1.2695    1.6622    0.8005 O   0  0  0  0  0  0  0  0  0  0  0  0
    0.7611    1.5954    1.7744 N   0  0  0  0  0  0  0  0  0  0  0  0
    1.5738    1.0241    1.9869 H   0  0  0  0  0  0  0  0  0  0  0  0
    0.6784    2.9405    2.3299 C   0  0  0  0  0  0  0  0  0  0  0  0
   -0.1752    3.0225    3.0111 H   0  0  0  0  0  0  0  0  0  0  0  0
    1.5897    3.1760    2.8879 H   0  0  0  0  0  0  0  0  0  0  0  0
    0.5631    3.6788    1.5293 H   0  0  0  0  0  0  0  0  0  0  0  0
  1  2  1  0  0  0  0
  2  3  1  0  0  0  0
  2  4  1  0  0  0  0
  2  5  1  0  0  0  0
  5  6  2  0  0  0  0
  5  7  1  0  0  0  0
  7  8  1  0  0  0  0
  7  9  1  0  0  0  0
  9 10  1  0  0  0  0
  9 11  1  0  0  0  0
  9 24  1  0  0  0  0
 11 12  1  0  0  0  0
 11 13  1  0  0  0  0
 11 17  1  0  0  0  0
 13 14  1  0  0  0  0
 13 15  1  0  0  0  0
 13 16  1  0  0  0  0
 17 18  1  0  0  0  0
 17 19  1  0  0  0  0
 17 20  1  0  0  0  0
 20 21  1  0  0  0  0
 20 22  1  0  0  0  0
 20 23  1  0  0  0  0
 24 25  2  0  0  0  0
 24 26  1  0  0  0  0
 26 27  1  0  0  0  0
 26 28  1  0  0  0  0
 28 29  1  0  0  0  0
 28 30  1  0  0  0  0
 28 31  1  0  0  0  0
M  END
$$$$

  -OEChem-03222214053D

 31 30  0     1  0  0  0  0  0999 V2000
   -2.8851   -3.8918    2.0255 H   0  0  0  0  0  0  0  0  0  0  0  0
   -2.9495   -2.8904    1.5906 C   0  0  0  0  0  0  0  0  0  0  0  0
   -3.4619   -2.2321    2.2964 H   0  0  0  0  0  0  0  0  0  0  0  0
   -3.5295   -2.9443    0.6661 H   0  0  0  0  0  0  0  0  0  0  0  0
   -1.5597   -2.3564    1.2990 C   0  0  0  0  0  0  0  0  0  0  0  0
   -0.5789   -3.0414    1.5443 O   0  0  0  0  0  0  0  0  0  0  0  0
   -1.4118   -1.0938    0.7646 N   0  0  0  0  0  0  0  0  0  0  0  0
   -2.2497   -0.5252    0.6522 H   0  0  0  0  0  0  0  0  0  0  0  0
   -0.1254   -0.4322    0.5190 C   0  0  1  0  0  0  0  0  0  0  0  0
    0.6280   -0.9088    1.1543 H   0  0  0  0  0  0  0  0  0  0  0  0
    0.4020   -0.4015   -0.9630 C   0  0  1  0  0  0  0  0  0  0  0  0
    0.7986    0.6046   -1.1411 H   0  0  0  0  0  0  0  0  0  0  0  0
    1.6102   -1.3538   -1.0313 C   0  0  0  0  0  0  0  0  0  0  0  0
    1.2933   -2.3861   -0.8482 H   0  0  0  0  0  0  0  0  0  0  0  0
    2.0876   -1.3034   -2.0152 H   0  0  0  0  0  0  0  0  0  0  0  0
    2.3621   -1.0826   -0.2838 H   0  0  0  0  0  0  0  0  0  0  0  0
   -0.5073   -0.7149   -2.2035 C   0  0  0  0  0  0  0  0  0  0  0  0
   -0.4768    0.1721   -2.8449 H   0  0  0  0  0  0  0  0  0  0  0  0
   -0.0638   -1.5304   -2.7844 H   0  0  0  0  0  0  0  0  0  0  0  0
   -1.9839   -1.0712   -2.0264 C   0  0  0  0  0  0  0  0  0  0  0  0
   -2.5061   -0.2922   -1.4628 H   0  0  0  0  0  0  0  0  0  0  0  0
   -2.4614   -1.1526   -3.0075 H   0  0  0  0  0  0  0  0  0  0  0  0
   -2.0945   -2.0356   -1.5235 H   0  0  0  0  0  0  0  0  0  0  0  0
   -0.2434    1.0201    1.0281 C   0  0  0  0  0  0  0  0  0  0  0  0
   -1.2656    1.6654    0.8197 O   0  0  0  0  0  0  0  0  0  0  0  0
    0.7700    1.5828    1.7818 N   0  0  0  0  0  0  0  0  0  0  0  0
    1.5840    1.0084    1.9806 H   0  0  0  0  0  0  0  0  0  0  0  0
    0.6970    2.9250    2.3459 C   0  0  0  0  0  0  0  0  0  0  0  0
   -0.1564    3.0087    3.0273 H   0  0  0  0  0  0  0  0  0  0  0  0
    1.6099    3.1498    2.9059 H   0  0  0  0  0  0  0  0  0  0  0  0
    0.5871    3.6695    1.5502 H   0  0  0  0  0  0  0  0  0  0  0  0
  1  2  1  0  0  0  0
  2  3  1  0  0  0  0
  2  4  1  0  0  0  0
  2  5  1  0  0  0  0
  5  6  2  0  0  0  0
  5  7  1  0  0  0  0
  7  8  1  0  0  0  0
  7  9  1  0  0  0  0
  9 10  1  0  0  0  0
  9 11  1  0  0  0  0
  9 24  1  0  0  0  0
 11 12  1  0  0  0  0
 11 13  1  0  0  0  0
 11 17  1  0  0  0  0
 13 14  1  0  0  0  0
 13 15  1  0  0  0  0
 13 16  1  0  0  0  0
 17 18  1  0  0  0  0
 17 19  1  0  0  0  0
 17 20  1  0  0  0  0
 20 21  1  0  0  0  0
 20 22  1  0  0  0  0
 20 23  1  0  0  0  0
 24 25  2  0  0  0  0
 24 26  1  0  0  0  0
 26 27  1  0  0  0  0
 26 28  1  0  0  0  0
 28 29  1  0  0  0  0
 28 30  1  0  0  0  0
 28 31  1  0  0  0  0
M  END
$$$$

  -OEChem-03222214053D

 31 30  0     1  0  0  0  0  0999 V2000
   -2.8920   -3.8852    1.9789 H   0  0  0  0  0  0  0  0  0  0  0  0
   -2.9538   -2.8897    1.5306 C   0  0  0  0  0  0  0  0  0  0  0  0
   -3.4820   -2.2257    2.2190 H   0  0  0  0  0  0  0  0  0  0  0  0
   -3.5168   -2.9578    0.5967 H   0  0  0  0  0  0  0  0  0  0  0  0
   -1.5618   -2.3525    1.2568 C   0  0  0  0  0  0  0  0  0  0  0  0
   -0.5827   -3.0406    1.5003 O   0  0  0  0  0  0  0  0  0  0  0  0
   -1.4100   -1.0840    0.7386 N   0  0  0  0  0  0  0  0  0  0  0  0
   -2.2473   -0.5149    0.6250 H   0  0  0  0  0  0  0  0  0  0  0  0
   -0.1225   -0.4204    0.5069 C   0  0  1  0  0  0  0  0  0  0  0  0
    0.6307   -0.9060    1.1357 H   0  0  0  0  0  0  0  0  0  0  0  0
    0.3964   -0.3989   -0.9754 C   0  0  1  0  0  0  0  0  0  0  0  0
    0.7685    0.6156   -1.1595 H   0  0  0  0  0  0  0  0  0  0  0  0
    1.6178   -1.3296   -1.0646 C   0  0  0  0  0  0  0  0  0  0  0  0
    1.3276   -2.3635   -0.8492 H   0  0  0  0  0  0  0  0  0  0  0  0
    2.0584   -1.2914   -2.0660 H   0  0  0  0  0  0  0  0  0  0  0  0
    2.3872   -1.0276   -0.3472 H   0  0  0  0  0  0  0  0  0  0  0  0
   -0.5285   -0.7194   -2.1979 C   0  0  0  0  0  0  0  0  0  0  0  0
   -0.2910    0.0109   -2.9784 H   0  0  0  0  0  0  0  0  0  0  0  0
   -0.2652   -1.7040   -2.5991 H   0  0  0  0  0  0  0  0  0  0  0  0
   -2.0501   -0.7264   -2.0273 C   0  0  0  0  0  0  0  0  0  0  0  0
   -2.3822    0.1580   -1.4747 H   0  0  0  0  0  0  0  0  0  0  0  0
   -2.5284   -0.7116   -3.0114 H   0  0  0  0  0  0  0  0  0  0  0  0
   -2.3852   -1.6317   -1.5150 H   0  0  0  0  0  0  0  0  0  0  0  0
   -0.2320    1.0278    1.0298 C   0  0  0  0  0  0  0  0  0  0  0  0
   -1.2512    1.6799    0.8284 O   0  0  0  0  0  0  0  0  0  0  0  0
    0.7830    1.5767    1.7916 N   0  0  0  0  0  0  0  0  0  0  0  0
    1.5901    0.9930    1.9920 H   0  0  0  0  0  0  0  0  0  0  0  0
    0.7094    2.9073    2.3819 C   0  0  0  0  0  0  0  0  0  0  0  0
   -0.1361    2.9731    3.0746 H   0  0  0  0  0  0  0  0  0  0  0  0
    1.6275    3.1270    2.9351 H   0  0  0  0  0  0  0  0  0  0  0  0
    0.5861    3.6660    1.6020 H   0  0  0  0  0  0  0  0  0  0  0  0
  1  2  1  0  0  0  0
  2  3  1  0  0  0  0
  2  4  1  0  0  0  0
  2  5  1  0  0  0  0
  5  6  2  0  0  0  0
  5  7  1  0  0  0  0
  7  8  1  0  0  0  0
  7  9  1  0  0  0  0
  9 10  1  0  0  0  0
  9 11  1  0  0  0  0
  9 24  1  0  0  0  0
 11 12  1  0  0  0  0
 11 13  1  0  0  0  0
 11 17  1  0  0  0  0
 13 14  1  0  0  0  0
 13 15  1  0  0  0  0
 13 16  1  0  0  0  0
 17 18  1  0  0  0  0
 17 19  1  0  0  0  0
 17 20  1  0  0  0  0
 20 21  1  0  0  0  0
 20 22  1  0  0  0  0
 20 23  1  0  0  0  0
 24 25  2  0  0  0  0
 24 26  1  0  0  0  0
 26 27  1  0  0  0  0
 26 28  1  0  0  0  0
 28 29  1  0  0  0  0
 28 30  1  0  0  0  0
 28 31  1  0  0  0  0
M  END
$$$$

  -OEChem-03222214053D

 31 30  0     1  0  0  0  0  0999 V2000
   -2.9086   -3.8893    1.8810 H   0  0  0  0  0  0  0  0  0  0  0  0
   -2.9648   -2.8886    1.4436 C   0  0  0  0  0  0  0  0  0  0  0  0
   -3.5072   -2.2344    2.1303 H   0  0  0  0  0  0  0  0  0  0  0  0
   -3.5106   -2.9468    0.4988 H   0  0  0  0  0  0  0  0  0  0  0  0
   -1.5696   -2.3443    1.2020 C   0  0  0  0  0  0  0  0  0  0  0  0
   -0.5933   -3.0314    1.4593 O   0  0  0  0  0  0  0  0  0  0  0  0
   -1.4116   -1.0719    0.6955 N   0  0  0  0  0  0  0  0  0  0  0  0
   -2.2483   -0.5045    0.5702 H   0  0  0  0  0  0  0  0  0  0  0  0
   -0.1221   -0.4017    0.4931 C   0  0  1  0  0  0  0  0  0  0  0  0
    0.6218   -0.8908    1.1302 H   0  0  0  0  0  0  0  0  0  0  0  0
    0.4076   -0.3985   -0.9815 C   0  0  1  0  0  0  0  0  0  0  0  0
    0.7731    0.6152   -1.1812 H   0  0  0  0  0  0  0  0  0  0  0  0
    1.6246   -1.3336   -1.0671 C   0  0  0  0  0  0  0  0  0  0  0  0
    1.3357   -2.3622   -0.8258 H   0  0  0  0  0  0  0  0  0  0  0  0
    2.0507   -1.3186   -2.0754 H   0  0  0  0  0  0  0  0  0  0  0  0
    2.4034   -1.0178   -0.3660 H   0  0  0  0  0  0  0  0  0  0  0  0
   -0.5301   -0.7415   -2.1805 C   0  0  0  0  0  0  0  0  0  0  0  0
   -0.1352   -0.2239   -3.0609 H   0  0  0  0  0  0  0  0  0  0  0  0
   -0.4688   -1.8156   -2.3869 H   0  0  0  0  0  0  0  0  0  0  0  0
   -2.0215   -0.4029   -2.0648 C   0  0  0  0  0  0  0  0  0  0  0  0
   -2.1605    0.5702   -1.5841 H   0  0  0  0  0  0  0  0  0  0  0  0
   -2.4637   -0.3560   -3.0646 H   0  0  0  0  0  0  0  0  0  0  0  0
   -2.5653   -1.1685   -1.5068 H   0  0  0  0  0  0  0  0  0  0  0  0
   -0.2294    1.0459    1.0182 C   0  0  0  0  0  0  0  0  0  0  0  0
   -1.2450    1.7022    0.8138 O   0  0  0  0  0  0  0  0  0  0  0  0
    0.7775    1.5859    1.7973 N   0  0  0  0  0  0  0  0  0  0  0  0
    1.5803    0.9985    2.0032 H   0  0  0  0  0  0  0  0  0  0  0  0
    0.7023    2.9138    2.3941 C   0  0  0  0  0  0  0  0  0  0  0  0
   -0.1570    2.9819    3.0694 H   0  0  0  0  0  0  0  0  0  0  0  0
    1.6103    3.1228    2.9678 H   0  0  0  0  0  0  0  0  0  0  0  0
    0.6014    3.6784    1.6166 H   0  0  0  0  0  0  0  0  0  0  0  0
  1  2  1  0  0  0  0
  2  3  1  0  0  0  0
  2  4  1  0  0  0  0
  2  5  1  0  0  0  0
  5  6  2  0  0  0  0
  5  7  1  0  0  0  0
  7  8  1  0  0  0  0
  7  9  1  0  0  0  0
  9 10  1  0  0  0  0
  9 11  1  0  0  0  0
  9 24  1  0  0  0  0
 11 12  1  0  0  0  0
 11 13  1  0  0  0  0
 11 17  1  0  0  0  0
 13 14  1  0  0  0  0
 13 15  1  0  0  0  0
 13 16  1  0  0  0  0
 17 18  1  0  0  0  0
 17 19  1  0  0  0  0
 17 20  1  0  0  0  0
 20 21  1  0  0  0  0
 20 22  1  0  0  0  0
 20 23  1  0  0  0  0
 24 25  2  0  0  0  0
 24 26  1  0  0  0  0
 26 27  1  0  0  0  0
 26 28  1  0  0  0  0
 28 29  1  0  0  0  0
 28 30  1  0  0  0  0
 28 31  1  0  0  0  0
M  END
$$$$

  -OEChem-03222214053D

 31 30  0     1  0  0  0  0  0999 V2000
   -2.9066   -3.9036    1.7851 H   0  0  0  0  0  0  0  0  0  0  0  0
   -2.9605   -2.8943    1.3675 C   0  0  0  0  0  0  0  0  0  0  0  0
   -3.5106   -2.2547    2.0620 H   0  0  0  0  0  0  0  0  0  0  0  0
   -3.4965   -2.9343    0.4163 H   0  0  0  0  0  0  0  0  0  0  0  0
   -1.5641   -2.3429    1.1505 C   0  0  0  0  0  0  0  0  0  0  0  0
   -0.5889   -3.0268    1.4202 O   0  0  0  0  0  0  0  0  0  0  0  0
   -1.4033   -1.0687    0.6501 N   0  0  0  0  0  0  0  0  0  0  0  0
   -2.2397   -0.5014    0.5213 H   0  0  0  0  0  0  0  0  0  0  0  0
   -0.1125   -0.3919    0.4755 C   0  0  1  0  0  0  0  0  0  0  0  0
    0.6253   -0.8799    1.1205 H   0  0  0  0  0  0  0  0  0  0  0  0
    0.4228   -0.3973   -0.9932 C   0  0  1  0  0  0  0  0  0  0  0  0
    0.8009    0.6086   -1.2080 H   0  0  0  0  0  0  0  0  0  0  0  0
    1.6183   -1.3593   -1.0785 C   0  0  0  0  0  0  0  0  0  0  0  0
    1.3081   -2.3809   -0.8339 H   0  0  0  0  0  0  0  0  0  0  0  0
    2.0428   -1.3568   -2.0874 H   0  0  0  0  0  0  0  0  0  0  0  0
    2.4046   -1.0583   -0.3794 H   0  0  0  0  0  0  0  0  0  0  0  0
   -0.5430   -0.7546   -2.1581 C   0  0  0  0  0  0  0  0  0  0  0  0
   -0.0525   -0.4751   -3.0965 H   0  0  0  0  0  0  0  0  0  0  0  0
   -0.6956   -1.8389   -2.1812 H   0  0  0  0  0  0  0  0  0  0  0  0
   -1.9274   -0.0910   -2.1311 C   0  0  0  0  0  0  0  0  0  0  0  0
   -1.8423    0.9597   -1.8377 H   0  0  0  0  0  0  0  0  0  0  0  0
   -2.3699   -0.1318   -3.1310 H   0  0  0  0  0  0  0  0  0  0  0  0
   -2.6152   -0.5985   -1.4526 H   0  0  0  0  0  0  0  0  0  0  0  0
   -0.2274    1.0552    0.9988 C   0  0  0  0  0  0  0  0  0  0  0  0
   -1.2403    1.7113    0.7813 O   0  0  0  0  0  0  0  0  0  0  0  0
    0.7663    1.5925    1.7963 N   0  0  0  0  0  0  0  0  0  0  0  0
    1.5674    1.0055    2.0104 H   0  0  0  0  0  0  0  0  0  0  0  0
    0.6871    2.9233    2.3864 C   0  0  0  0  0  0  0  0  0  0  0  0
   -0.1836    2.9991    3.0463 H   0  0  0  0  0  0  0  0  0  0  0  0
    1.5861    3.1301    2.9751 H   0  0  0  0  0  0  0  0  0  0  0  0
    0.6038    3.6850    1.6040 H   0  0  0  0  0  0  0  0  0  0  0  0
  1  2  1  0  0  0  0
  2  3  1  0  0  0  0
  2  4  1  0  0  0  0
  2  5  1  0  0  0  0
  5  6  2  0  0  0  0
  5  7  1  0  0  0  0
  7  8  1  0  0  0  0
  7  9  1  0  0  0  0
  9 10  1  0  0  0  0
  9 11  1  0  0  0  0
  9 24  1  0  0  0  0
 11 12  1  0  0  0  0
 11 13  1  0  0  0  0
 11 17  1  0  0  0  0
 13 14  1  0  0  0  0
 13 15  1  0  0  0  0
 13 16  1  0  0  0  0
 17 18  1  0  0  0  0
 17 19  1  0  0  0  0
 17 20  1  0  0  0  0
 20 21  1  0  0  0  0
 20 22  1  0  0  0  0
 20 23  1  0  0  0  0
 24 25  2  0  0  0  0
 24 26  1  0  0  0  0
 26 27  1  0  0  0  0
 26 28  1  0  0  0  0
 28 29  1  0  0  0  0
 28 30  1  0  0  0  0
 28 31  1  0  0  0  0
M  END
$$$$

  -OEChem-03222214053D

 31 30  0     1  0  0  0  0  0999 V2000
   -2.9110   -3.9130    1.7188 H   0  0  0  0  0  0  0  0  0  0  0  0
   -2.9598   -2.9051    1.2974 C   0  0  0  0  0  0  0  0  0  0  0  0
   -3.5245   -2.2652    1.9798 H   0  0  0  0  0  0  0  0  0  0  0  0
   -3.4781   -2.9492    0.3366 H   0  0  0  0  0  0  0  0  0  0  0  0
   -1.5611   -2.3505    1.1044 C   0  0  0  0  0  0  0  0  0  0  0  0
   -0.5889   -3.0305    1.3939 O   0  0  0  0  0  0  0  0  0  0  0  0
   -1.3955   -1.0769    0.6039 N   0  0  0  0  0  0  0  0  0  0  0  0
   -2.2317   -0.5133    0.4605 H   0  0  0  0  0  0  0  0  0  0  0  0
   -0.1022   -0.3927    0.4580 C   0  0  1  0  0  0  0  0  0  0  0  0
    0.6276   -0.8779    1.1142 H   0  0  0  0  0  0  0  0  0  0  0  0
    0.4473   -0.3970   -1.0038 C   0  0  1  0  0  0  0  0  0  0  0  0
    0.8442    0.5993   -1.2288 H   0  0  0  0  0  0  0  0  0  0  0  0
    1.6191   -1.3874   -1.0851 C   0  0  0  0  0  0  0  0  0  0  0  0
    1.2808   -2.4026   -0.8522 H   0  0  0  0  0  0  0  0  0  0  0  0
    2.0547   -1.3881   -2.0891 H   0  0  0  0  0  0  0  0  0  0  0  0
    2.4055   -1.1114   -0.3759 H   0  0  0  0  0  0  0  0  0  0  0  0
   -0.5485   -0.7635   -2.1331 C   0  0  0  0  0  0  0  0  0  0  0  0
   -0.0183   -0.7351   -3.0905 H   0  0  0  0  0  0  0  0  0  0  0  0
   -0.9080   -1.7879   -1.9900 H   0  0  0  0  0  0  0  0  0  0  0  0
   -1.7562    0.1788   -2.2346 C   0  0  0  0  0  0  0  0  0  0  0  0
   -1.4190    1.2167   -2.3180 H   0  0  0  0  0  0  0  0  0  0  0  0
   -2.3401   -0.0664   -3.1267 H   0  0  0  0  0  0  0  0  0  0  0  0
   -2.4181    0.1000   -1.3708 H   0  0  0  0  0  0  0  0  0  0  0  0
   -0.2315    1.0561    0.9726 C   0  0  0  0  0  0  0  0  0  0  0  0
   -1.2387    1.7108    0.7267 O   0  0  0  0  0  0  0  0  0  0  0  0
    0.7429    1.5982    1.7902 N   0  0  0  0  0  0  0  0  0  0  0  0
    1.5411    1.0146    2.0233 H   0  0  0  0  0  0  0  0  0  0  0  0
    0.6524    2.9345    2.3652 C   0  0  0  0  0  0  0  0  0  0  0  0
   -0.2377    3.0206    2.9973 H   0  0  0  0  0  0  0  0  0  0  0  0
    1.5337    3.1427    2.9795 H   0  0  0  0  0  0  0  0  0  0  0  0
    0.5970    3.6889    1.5735 H   0  0  0  0  0  0  0  0  0  0  0  0
  1  2  1  0  0  0  0
  2  3  1  0  0  0  0
  2  4  1  0  0  0  0
  2  5  1  0  0  0  0
  5  6  2  0  0  0  0
  5  7  1  0  0  0  0
  7  8  1  0  0  0  0
  7  9  1  0  0  0  0
  9 10  1  0  0  0  0
  9 11  1  0  0  0  0
  9 24  1  0  0  0  0
 11 12  1  0  0  0  0
 11 13  1  0  0  0  0
 11 17  1  0  0  0  0
 13 14  1  0  0  0  0
 13 15  1  0  0  0  0
 13 16  1  0  0  0  0
 17 18  1  0  0  0  0
 17 19  1  0  0  0  0
 17 20  1  0  0  0  0
 20 21  1  0  0  0  0
 20 22  1  0  0  0  0
 20 23  1  0  0  0  0
 24 25  2  0  0  0  0
 24 26  1  0  0  0  0
 26 27  1  0  0  0  0
 26 28  1  0  0  0  0
 28 29  1  0  0  0  0
 28 30  1  0  0  0  0
 28 31  1  0  0  0  0
M  END
$$$$

  -OEChem-03222214053D

 31 30  0     1  0  0  0  0  0999 V2000
   -2.9070   -3.9220    1.6870 H   0  0  0  0  0  0  0  0  0  0  0  0
   -2.9600   -2.9167    1.2595 C   0  0  0  0  0  0  0  0  0  0  0  0
   -3.5399   -2.2786    1.9307 H   0  0  0  0  0  0  0  0  0  0  0  0
   -3.4650   -2.9712    0.2921 H   0  0  0  0  0  0  0  0  0  0  0  0
   -1.5640   -2.3498    1.0836 C   0  0  0  0  0  0  0  0  0  0  0  0
   -0.5904   -3.0212    1.3880 O   0  0  0  0  0  0  0  0  0  0  0  0
   -1.4014   -1.0756    0.5830 N   0  0  0  0  0  0  0  0  0  0  0  0
   -2.2399   -0.5215    0.4173 H   0  0  0  0  0  0  0  0  0  0  0  0
   -0.1094   -0.3845    0.4445 C   0  0  1  0  0  0  0  0  0  0  0  0
    0.6155   -0.8659    1.1086 H   0  0  0  0  0  0  0  0  0  0  0  0
    0.4518   -0.3954   -1.0130 C   0  0  1  0  0  0  0  0  0  0  0  0
    0.8616    0.5928   -1.2503 H   0  0  0  0  0  0  0  0  0  0  0  0
    1.6130   -1.4002   -1.0754 C   0  0  0  0  0  0  0  0  0  0  0  0
    1.2586   -2.4106   -0.8459 H   0  0  0  0  0  0  0  0  0  0  0  0
    2.0640   -1.4079   -2.0725 H   0  0  0  0  0  0  0  0  0  0  0  0
    2.3928   -1.1327   -0.3558 H   0  0  0  0  0  0  0  0  0  0  0  0
   -0.5599   -0.7828   -2.1203 C   0  0  0  0  0  0  0  0  0  0  0  0
   -0.0120   -0.9884   -3.0457 H   0  0  0  0  0  0  0  0  0  0  0  0
   -1.0983   -1.6998   -1.8622 H   0  0  0  0  0  0  0  0  0  0  0  0
   -1.5465    0.3484   -2.4190 C   0  0  0  0  0  0  0  0  0  0  0  0
   -1.0112    1.2668   -2.6788 H   0  0  0  0  0  0  0  0  0  0  0  0
   -2.1880    0.0717   -3.2610 H   0  0  0  0  0  0  0  0  0  0  0  0
   -2.1845    0.5490   -1.5543 H   0  0  0  0  0  0  0  0  0  0  0  0
   -0.2377    1.0659    0.9548 C   0  0  0  0  0  0  0  0  0  0  0  0
   -1.2434    1.7222    0.7083 O   0  0  0  0  0  0  0  0  0  0  0  0
    0.7356    1.6069    1.7748 N   0  0  0  0  0  0  0  0  0  0  0  0
    1.5345    1.0238    2.0066 H   0  0  0  0  0  0  0  0  0  0  0  0
    0.6509    2.9472    2.3420 C   0  0  0  0  0  0  0  0  0  0  0  0
   -0.2466    3.0455    2.9619 H   0  0  0  0  0  0  0  0  0  0  0  0
    1.5260    3.1498    2.9671 H   0  0  0  0  0  0  0  0  0  0  0  0
    0.6137    3.6981    1.5458 H   0  0  0  0  0  0  0  0  0  0  0  0
  1  2  1  0  0  0  0
  2  3  1  0  0  0  0
  2  4  1  0  0  0  0
  2  5  1  0  0  0  0
  5  6  2  0  0  0  0
  5  7  1  0  0  0  0
  7  8  1  0  0  0  0
  7  9  1  0  0  0  0
  9 10  1  0  0  0  0
  9 11  1  0  0  0  0
  9 24  1  0  0  0  0
 11 12  1  0  0  0  0
 11 13  1  0  0  0  0
 11 17  1  0  0  0  0
 13 14  1  0  0  0  0
 13 15  1  0  0  0  0
 13 16  1  0  0  0  0
 17 18  1  0  0  0  0
 17 19  1  0  0  0  0
 17 20  1  0  0  0  0
 20 21  1  0  0  0  0
 20 22  1  0  0  0  0
 20 23  1  0  0  0  0
 24 25  2  0  0  0  0
 24 26  1  0  0  0  0
 26 27  1  0  0  0  0
 26 28  1  0  0  0  0
 28 29  1  0  0  0  0
 28 30  1  0  0  0  0
 28 31  1  0  0  0  0
M  END
$$$$

  -OEChem-03222214053D

 31 30  0     1  0  0  0  0  0999 V2000
   -2.9098   -3.9171    1.7240 H   0  0  0  0  0  0  0  0  0  0  0  0
   -2.9625   -2.9131    1.2939 C   0  0  0  0  0  0  0  0  0  0  0  0
   -3.5287   -2.2690    1.9710 H   0  0  0  0  0  0  0  0  0  0  0  0
   -3.4815   -2.9677    0.3339 H   0  0  0  0  0  0  0  0  0  0  0  0
   -1.5658   -2.3558    1.0954 C   0  0  0  0  0  0  0  0  0  0  0  0
   -0.5915   -3.0308    1.3893 O   0  0  0  0  0  0  0  0  0  0  0  0
   -1.4033   -1.0855    0.5848 N   0  0  0  0  0  0  0  0  0  0  0  0
   -2.2408   -0.5247    0.4355 H   0  0  0  0  0  0  0  0  0  0  0  0
   -0.1104   -0.3995    0.4340 C   0  0  1  0  0  0  0  0  0  0  0  0
    0.6170   -0.8763    1.0988 H   0  0  0  0  0  0  0  0  0  0  0  0
    0.4516   -0.4015   -1.0251 C   0  0  1  0  0  0  0  0  0  0  0  0
    0.8762    0.5829   -1.2528 H   0  0  0  0  0  0  0  0  0  0  0  0
    1.6087   -1.4136   -1.0812 C   0  0  0  0  0  0  0  0  0  0  0  0
    1.2447   -2.4245   -0.8691 H   0  0  0  0  0  0  0  0  0  0  0  0
    2.0768   -1.4119   -2.0705 H   0  0  0  0  0  0  0  0  0  0  0  0
    2.3795   -1.1597   -0.3469 H   0  0  0  0  0  0  0  0  0  0  0  0
   -0.5597   -0.7802   -2.1417 C   0  0  0  0  0  0  0  0  0  0  0  0
   -0.0184   -1.2183   -2.9864 H   0  0  0  0  0  0  0  0  0  0  0  0
   -1.2781   -1.5368   -1.8172 H   0  0  0  0  0  0  0  0  0  0  0  0
   -1.2831    0.4569   -2.6750 C   0  0  0  0  0  0  0  0  0  0  0  0
   -0.5659    1.1873   -3.0620 H   0  0  0  0  0  0  0  0  0  0  0  0
   -1.9607    0.1741   -3.4860 H   0  0  0  0  0  0  0  0  0  0  0  0
   -1.8709    0.9288   -1.8822 H   0  0  0  0  0  0  0  0  0  0  0  0
   -0.2461    1.0521    0.9381 C   0  0  0  0  0  0  0  0  0  0  0  0
   -1.2570    1.7000    0.6897 O   0  0  0  0  0  0  0  0  0  0  0  0
    0.7256    1.6033    1.7529 N   0  0  0  0  0  0  0  0  0  0  0  0
    1.5244    1.0231    1.9921 H   0  0  0  0  0  0  0  0  0  0  0  0
    0.6272    2.9408    2.3242 C   0  0  0  0  0  0  0  0  0  0  0  0
   -0.2628    3.0229    2.9571 H   0  0  0  0  0  0  0  0  0  0  0  0
    1.5080    3.1563    2.9366 H   0  0  0  0  0  0  0  0  0  0  0  0
    0.5659    3.6929    1.5306 H   0  0  0  0  0  0  0  0  0  0  0  0
  1  2  1  0  0  0  0
  2  3  1  0  0  0  0
  2  4  1  0  0  0  0
  2  5  1  0  0  0  0
  5  6  2  0  0  0  0
  5  7  1  0  0  0  0
  7  8  1  0  0  0  0
  7  9  1  0  0  0  0
  9 10  1  0  0  0  0
  9 11  1  0  0  0  0
  9 24  1  0  0  0  0
 11 12  1  0  0  0  0
 11 13  1  0  0  0  0
 11 17  1  0  0  0  0
 13 14  1  0  0  0  0
 13 15  1  0  0  0  0
 13 16  1  0  0  0  0
 17 18  1  0  0  0  0
 17 19  1  0  0  0  0
 17 20  1  0  0  0  0
 20 21  1  0  0  0  0
 20 22  1  0  0  0  0
 20 23  1  0  0  0  0
 24 25  2  0  0  0  0
 24 26  1  0  0  0  0
 26 27  1  0  0  0  0
 26 28  1  0  0  0  0
 28 29  1  0  0  0  0
 28 30  1  0  0  0  0
 28 31  1  0  0  0  0
M  END
$$$$

  -OEChem-03222214053D

 31 30  0     1  0  0  0  0  0999 V2000
   -2.9162   -3.9189    1.7677 H   0  0  0  0  0  0  0  0  0  0  0  0
   -2.9680   -2.9181    1.3299 C   0  0  0  0  0  0  0  0  0  0  0  0
   -3.5252   -2.2661    2.0067 H   0  0  0  0  0  0  0  0  0  0  0  0
   -3.4956   -2.9778    0.3748 H   0  0  0  0  0  0  0  0  0  0  0  0
   -1.5705   -2.3684    1.1151 C   0  0  0  0  0  0  0  0  0  0  0  0
   -0.5967   -3.0452    1.4061 O   0  0  0  0  0  0  0  0  0  0  0  0
   -1.4066   -1.1021    0.5953 N   0  0  0  0  0  0  0  0  0  0  0  0
   -2.2427   -0.5378    0.4510 H   0  0  0  0  0  0  0  0  0  0  0  0
   -0.1120   -0.4222    0.4336 C   0  0  1  0  0  0  0  0  0  0  0  0
    0.6199   -0.8965    1.0954 H   0  0  0  0  0  0  0  0  0  0  0  0
    0.4445   -0.4118   -1.0287 C   0  0  1  0  0  0  0  0  0  0  0  0
    0.8751    0.5739   -1.2396 H   0  0  0  0  0  0  0  0  0  0  0  0
    1.6044   -1.4205   -1.0915 C   0  0  0  0  0  0  0  0  0  0  0  0
    1.2427   -2.4337   -0.8862 H   0  0  0  0  0  0  0  0  0  0  0  0
    2.0716   -1.4100   -2.0814 H   0  0  0  0  0  0  0  0  0  0  0  0
    2.3749   -1.1702   -0.3555 H   0  0  0  0  0  0  0  0  0  0  0  0
   -0.5631   -0.7729   -2.1610 C   0  0  0  0  0  0  0  0  0  0  0  0
   -0.0891   -1.4462   -2.8826 H   0  0  0  0  0  0  0  0  0  0  0  0
   -1.4480   -1.2976   -1.7978 H   0  0  0  0  0  0  0  0  0  0  0  0
   -0.9909    0.4813   -2.9237 C   0  0  0  0  0  0  0  0  0  0  0  0
   -0.1240    0.9715   -3.3776 H   0  0  0  0  0  0  0  0  0  0  0  0
   -1.6940    0.2154   -3.7187 H   0  0  0  0  0  0  0  0  0  0  0  0
   -1.4820    1.1890   -2.2483 H   0  0  0  0  0  0  0  0  0  0  0  0
   -0.2539    1.0307    0.9322 C   0  0  0  0  0  0  0  0  0  0  0  0
   -1.2631    1.6755    0.6683 O   0  0  0  0  0  0  0  0  0  0  0  0
    0.7148    1.5933    1.7429 N   0  0  0  0  0  0  0  0  0  0  0  0
    1.5152    1.0183    1.9900 H   0  0  0  0  0  0  0  0  0  0  0  0
    0.6140    2.9391    2.2938 C   0  0  0  0  0  0  0  0  0  0  0  0
   -0.2787    3.0299    2.9214 H   0  0  0  0  0  0  0  0  0  0  0  0
    1.4922    3.1644    2.9065 H   0  0  0  0  0  0  0  0  0  0  0  0
    0.5554    3.6788    1.4885 H   0  0  0  0  0  0  0  0  0  0  0  0
  1  2  1  0  0  0  0
  2  3  1  0  0  0  0
  2  4  1  0  0  0  0
  2  5  1  0  0  0  0
  5  6  2  0  0  0  0
  5  7  1  0  0  0  0
  7  8  1  0  0  0  0
  7  9  1  0  0  0  0
  9 10  1  0  0  0  0
  9 11  1  0  0  0  0
  9 24  1  0  0  0  0
 11 12  1  0  0  0  0
 11 13  1  0  0  0  0
 11 17  1  0  0  0  0
 13 14  1  0  0  0  0
 13 15  1  0  0  0  0
 13 16  1  0  0  0  0
 17 18  1  0  0  0  0
 17 19  1  0  0  0  0
 17 20  1  0  0  0  0
 20 21  1  0  0  0  0
 20 22  1  0  0  0  0
 20 23  1  0  0  0  0
 24 25  2  0  0  0  0
 24 26  1  0  0  0  0
 26 27  1  0  0  0  0
 26 28  1  0  0  0  0
 28 29  1  0  0  0  0
 28 30  1  0  0  0  0
 28 31  1  0  0  0  0
M  END
$$$$

  -OEChem-03222214053D

 31 30  0     1  0  0  0  0  0999 V2000
   -2.9285   -3.9133    1.7792 H   0  0  0  0  0  0  0  0  0  0  0  0
   -2.9785   -2.9116    1.3434 C   0  0  0  0  0  0  0  0  0  0  0  0
   -3.5286   -2.2581    2.0248 H   0  0  0  0  0  0  0  0  0  0  0  0
   -3.5127   -2.9673    0.3919 H   0  0  0  0  0  0  0  0  0  0  0  0
   -1.5798   -2.3683    1.1202 C   0  0  0  0  0  0  0  0  0  0  0  0
   -0.6076   -3.0487    1.4085 O   0  0  0  0  0  0  0  0  0  0  0  0
   -1.4129   -1.1031    0.5985 N   0  0  0  0  0  0  0  0  0  0  0  0
   -2.2471   -0.5340    0.4623 H   0  0  0  0  0  0  0  0  0  0  0  0
   -0.1163   -0.4279    0.4325 C   0  0  1  0  0  0  0  0  0  0  0  0
    0.6163   -0.9050    1.0915 H   0  0  0  0  0  0  0  0  0  0  0  0
    0.4363   -0.4240   -1.0310 C   0  0  1  0  0  0  0  0  0  0  0  0
    0.8504    0.5700   -1.2358 H   0  0  0  0  0  0  0  0  0  0  0  0
    1.6122   -1.4114   -1.1057 C   0  0  0  0  0  0  0  0  0  0  0  0
    1.2750   -2.4284   -0.8783 H   0  0  0  0  0  0  0  0  0  0  0  0
    2.0546   -1.4057   -2.1071 H   0  0  0  0  0  0  0  0  0  0  0  0
    2.3930   -1.1356   -0.3901 H   0  0  0  0  0  0  0  0  0  0  0  0
   -0.5717   -0.7834   -2.1655 C   0  0  0  0  0  0  0  0  0  0  0  0
   -0.2412   -1.6763   -2.7065 H   0  0  0  0  0  0  0  0  0  0  0  0
   -1.5706   -1.0034   -1.7869 H   0  0  0  0  0  0  0  0  0  0  0  0
   -0.7050    0.3738   -3.1566 C   0  0  0  0  0  0  0  0  0  0  0  0
    0.2615    0.5954   -3.6198 H   0  0  0  0  0  0  0  0  0  0  0  0
   -1.4160    0.1127   -3.9460 H   0  0  0  0  0  0  0  0  0  0  0  0
   -1.0668    1.2729   -2.6476 H   0  0  0  0  0  0  0  0  0  0  0  0
   -0.2547    1.0254    0.9305 C   0  0  0  0  0  0  0  0  0  0  0  0
   -1.2627    1.6716    0.6650 O   0  0  0  0  0  0  0  0  0  0  0  0
    0.7166    1.5868    1.7388 N   0  0  0  0  0  0  0  0  0  0  0  0
    1.5174    1.0114    1.9831 H   0  0  0  0  0  0  0  0  0  0  0  0
    0.6175    2.9320    2.2915 C   0  0  0  0  0  0  0  0  0  0  0  0
   -0.2713    3.0218    2.9250 H   0  0  0  0  0  0  0  0  0  0  0  0
    1.4991    3.1575    2.8994 H   0  0  0  0  0  0  0  0  0  0  0  0
    0.5537    3.6725    1.4872 H   0  0  0  0  0  0  0  0  0  0  0  0
  1  2  1  0  0  0  0
  2  3  1  0  0  0  0
  2  4  1  0  0  0  0
  2  5  1  0  0  0  0
  5  6  2  0  0  0  0
  5  7  1  0  0  0  0
  7  8  1  0  0  0  0
  7  9  1  0  0  0  0
  9 10  1  0  0  0  0
  9 11  1  0  0  0  0
  9 24  1  0  0  0  0
 11 12  1  0  0  0  0
 11 13  1  0  0  0  0
 11 17  1  0  0  0  0
 13 14  1  0  0  0  0
 13 15  1  0  0  0  0
 13 16  1  0  0  0  0
 17 18  1  0  0  0  0
 17 19  1  0  0  0  0
 17 20  1  0  0  0  0
 20 21  1  0  0  0  0
 20 22  1  0  0  0  0
 20 23  1  0  0  0  0
 24 25  2  0  0  0  0
 24 26  1  0  0  0  0
 26 27  1  0  0  0  0
 26 28  1  0  0  0  0
 28 29  1  0  0  0  0
 28 30  1  0  0  0  0
 28 31  1  0  0  0  0
M  END
$$$$

  -OEChem-03222214053D

 31 30  0     1  0  0  0  0  0999 V2000
   -2.9429   -3.9041    1.7534 H   0  0  0  0  0  0  0  0  0  0  0  0
   -2.9861   -2.9004    1.3216 C   0  0  0  0  0  0  0  0  0  0  0  0
   -3.5369   -2.2472    2.0026 H   0  0  0  0  0  0  0  0  0  0  0  0
   -3.5153   -2.9499    0.3670 H   0  0  0  0  0  0  0  0  0  0  0  0
   -1.5843   -2.3613    1.1085 C   0  0  0  0  0  0  0  0  0  0  0  0
   -0.6155   -3.0439    1.4030 O   0  0  0  0  0  0  0  0  0  0  0  0
   -1.4120   -1.0958    0.5900 N   0  0  0  0  0  0  0  0  0  0  0  0
   -2.2444   -0.5252    0.4499 H   0  0  0  0  0  0  0  0  0  0  0  0
   -0.1130   -0.4226    0.4334 C   0  0  1  0  0  0  0  0  0  0  0  0
    0.6175   -0.9036    1.0920 H   0  0  0  0  0  0  0  0  0  0  0  0
    0.4376   -0.4311   -1.0286 C   0  0  1  0  0  0  0  0  0  0  0  0
    0.8330    0.5693   -1.2398 H   0  0  0  0  0  0  0  0  0  0  0  0
    1.6207   -1.4069   -1.1159 C   0  0  0  0  0  0  0  0  0  0  0  0
    1.3001   -2.4235   -0.8638 H   0  0  0  0  0  0  0  0  0  0  0  0
    2.0374   -1.4133   -2.1281 H   0  0  0  0  0  0  0  0  0  0  0  0
    2.4145   -1.1111   -0.4230 H   0  0  0  0  0  0  0  0  0  0  0  0
   -0.5826   -0.7960   -2.1446 C   0  0  0  0  0  0  0  0  0  0  0  0
   -0.4445   -1.8312   -2.4743 H   0  0  0  0  0  0  0  0  0  0  0  0
   -1.6118   -0.7031   -1.7917 H   0  0  0  0  0  0  0  0  0  0  0  0
   -0.4578    0.1588   -3.3336 C   0  0  0  0  0  0  0  0  0  0  0  0
    0.5502    0.1132   -3.7574 H   0  0  0  0  0  0  0  0  0  0  0  0
   -1.1746   -0.1166   -4.1132 H   0  0  0  0  0  0  0  0  0  0  0  0
   -0.6635    1.1880   -3.0223 H   0  0  0  0  0  0  0  0  0  0  0  0
   -0.2460    1.0310    0.9314 C   0  0  0  0  0  0  0  0  0  0  0  0
   -1.2496    1.6821    0.6620 O   0  0  0  0  0  0  0  0  0  0  0  0
    0.7240    1.5863    1.7452 N   0  0  0  0  0  0  0  0  0  0  0  0
    1.5173    1.0042    1.9979 H   0  0  0  0  0  0  0  0  0  0  0  0
    0.6293    2.9311    2.2996 C   0  0  0  0  0  0  0  0  0  0  0  0
   -0.2605    3.0239    2.9312 H   0  0  0  0  0  0  0  0  0  0  0  0
    1.5106    3.1517    2.9096 H   0  0  0  0  0  0  0  0  0  0  0  0
    0.5705    3.6730    1.4963 H   0  0  0  0  0  0  0  0  0  0  0  0
  1  2  1  0  0  0  0
  2  3  1  0  0  0  0
  2  4  1  0  0  0  0
  2  5  1  0  0  0  0
  5  6  2  0  0  0  0
  5  7  1  0  0  0  0
  7  8  1  0  0  0  0
  7  9  1  0  0  0  0
  9 10  1  0  0  0  0
  9 11  1  0  0  0  0
  9 24  1  0  0  0  0
 11 12  1  0  0  0  0
 11 13  1  0  0  0  0
 11 17  1  0  0  0  0
 13 14  1  0  0  0  0
 13 15  1  0  0  0  0
 13 16  1  0  0  0  0
 17 18  1  0  0  0  0
 17 19  1  0  0  0  0
 17 20  1  0  0  0  0
 20 21  1  0  0  0  0
 20 22  1  0  0  0  0
 20 23  1  0  0  0  0
 24 25  2  0  0  0  0
 24 26  1  0  0  0  0
 26 27  1  0  0  0  0
 26 28  1  0  0  0  0
 28 29  1  0  0  0  0
 28 30  1  0  0  0  0
 28 31  1  0  0  0  0
M  END
$$$$

  -OEChem-03222214053D

 31 30  0     1  0  0  0  0  0999 V2000
   -2.9486   -3.8977    1.7154 H   0  0  0  0  0  0  0  0  0  0  0  0
   -2.9883   -2.8953    1.2803 C   0  0  0  0  0  0  0  0  0  0  0  0
   -3.5520   -2.2425    1.9512 H   0  0  0  0  0  0  0  0  0  0  0  0
   -3.5023   -2.9490    0.3176 H   0  0  0  0  0  0  0  0  0  0  0  0
   -1.5846   -2.3531    1.0878 C   0  0  0  0  0  0  0  0  0  0  0  0
   -0.6193   -3.0364    1.3923 O   0  0  0  0  0  0  0  0  0  0  0  0
   -1.4058   -1.0863    0.5744 N   0  0  0  0  0  0  0  0  0  0  0  0
   -2.2363   -0.5146    0.4274 H   0  0  0  0  0  0  0  0  0  0  0  0
   -0.1036   -0.4136    0.4354 C   0  0  1  0  0  0  0  0  0  0  0  0
    0.6203   -0.8981    1.0988 H   0  0  0  0  0  0  0  0  0  0  0  0
    0.4511   -0.4297   -1.0234 C   0  0  1  0  0  0  0  0  0  0  0  0
    0.8385    0.5709   -1.2473 H   0  0  0  0  0  0  0  0  0  0  0  0
    1.6308   -1.4106   -1.1073 C   0  0  0  0  0  0  0  0  0  0  0  0
    1.3040   -2.4263   -0.8605 H   0  0  0  0  0  0  0  0  0  0  0  0
    2.0578   -1.4183   -2.1144 H   0  0  0  0  0  0  0  0  0  0  0  0
    2.4203   -1.1204   -0.4072 H   0  0  0  0  0  0  0  0  0  0  0  0
   -0.5892   -0.7994   -2.1119 C   0  0  0  0  0  0  0  0  0  0  0  0
   -0.6513   -1.8861   -2.2324 H   0  0  0  0  0  0  0  0  0  0  0  0
   -1.5811   -0.4398   -1.8227 H   0  0  0  0  0  0  0  0  0  0  0  0
   -0.2675   -0.1284   -3.4494 C   0  0  0  0  0  0  0  0  0  0  0  0
    0.7038   -0.4613   -3.8264 H   0  0  0  0  0  0  0  0  0  0  0  0
   -1.0313   -0.3858   -4.1893 H   0  0  0  0  0  0  0  0  0  0  0  0
   -0.2472    0.9602   -3.3384 H   0  0  0  0  0  0  0  0  0  0  0  0
   -0.2340    1.0402    0.9335 C   0  0  0  0  0  0  0  0  0  0  0  0
   -1.2316    1.6962    0.6542 O   0  0  0  0  0  0  0  0  0  0  0  0
    0.7301    1.5897    1.7584 N   0  0  0  0  0  0  0  0  0  0  0  0
    1.5237    1.0072    2.0098 H   0  0  0  0  0  0  0  0  0  0  0  0
    0.6407    2.9376    2.3060 C   0  0  0  0  0  0  0  0  0  0  0  0
   -0.2614    3.0440    2.9177 H   0  0  0  0  0  0  0  0  0  0  0  0
    1.5112    3.1494    2.9344 H   0  0  0  0  0  0  0  0  0  0  0  0
    0.6087    3.6773    1.4990 H   0  0  0  0  0  0  0  0  0  0  0  0
  1  2  1  0  0  0  0
  2  3  1  0  0  0  0
  2  4  1  0  0  0  0
  2  5  1  0  0  0  0
  5  6  2  0  0  0  0
  5  7  1  0  0  0  0
  7  8  1  0  0  0  0
  7  9  1  0  0  0  0
  9 10  1  0  0  0  0
  9 11  1  0  0  0  0
  9 24  1  0  0  0  0
 11 12  1  0  0  0  0
 11 13  1  0  0  0  0
 11 17  1  0  0  0  0
 13 14  1  0  0  0  0
 13 15  1  0  0  0  0
 13 16  1  0  0  0  0
 17 18  1  0  0  0  0
 17 19  1  0  0  0  0
 17 20  1  0  0  0  0
 20 21  1  0  0  0  0
 20 22  1  0  0  0  0
 20 23  1  0  0  0  0
 24 25  2  0  0  0  0
 24 26  1  0  0  0  0
 26 27  1  0  0  0  0
 26 28  1  0  0  0  0
 28 29  1  0  0  0  0
 28 30  1  0  0  0  0
 28 31  1  0  0  0  0
M  END
$$$$

  -OEChem-03222214053D

 31 30  0     1  0  0  0  0  0999 V2000
   -2.9555   -3.8887    1.6856 H   0  0  0  0  0  0  0  0  0  0  0  0
   -2.9883   -2.8846    1.2537 C   0  0  0  0  0  0  0  0  0  0  0  0
   -3.5553   -2.2321    1.9223 H   0  0  0  0  0  0  0  0  0  0  0  0
   -3.4947   -2.9336    0.2866 H   0  0  0  0  0  0  0  0  0  0  0  0
   -1.5815   -2.3463    1.0742 C   0  0  0  0  0  0  0  0  0  0  0  0
   -0.6207   -3.0309    1.3892 O   0  0  0  0  0  0  0  0  0  0  0  0
   -1.3947   -1.0809    0.5605 N   0  0  0  0  0  0  0  0  0  0  0  0
   -2.2225   -0.5097    0.3978 H   0  0  0  0  0  0  0  0  0  0  0  0
   -0.0897   -0.4101    0.4349 C   0  0  1  0  0  0  0  0  0  0  0  0
    0.6268   -0.8949    1.1059 H   0  0  0  0  0  0  0  0  0  0  0  0
    0.4725   -0.4264   -1.0209 C   0  0  1  0  0  0  0  0  0  0  0  0
    0.8625    0.5704   -1.2567 H   0  0  0  0  0  0  0  0  0  0  0  0
    1.6475   -1.4173   -1.0845 C   0  0  0  0  0  0  0  0  0  0  0  0
    1.3015   -2.4352   -0.8766 H   0  0  0  0  0  0  0  0  0  0  0  0
    2.1206   -1.4047   -2.0698 H   0  0  0  0  0  0  0  0  0  0  0  0
    2.4110   -1.1531   -0.3463 H   0  0  0  0  0  0  0  0  0  0  0  0
   -0.5855   -0.7962   -2.0895 C   0  0  0  0  0  0  0  0  0  0  0  0
   -0.8316   -1.8615   -2.0258 H   0  0  0  0  0  0  0  0  0  0  0  0
   -1.5013   -0.2273   -1.8983 H   0  0  0  0  0  0  0  0  0  0  0  0
   -0.1312   -0.4584   -3.5126 C   0  0  0  0  0  0  0  0  0  0  0  0
    0.7254   -1.0696   -3.8091 H   0  0  0  0  0  0  0  0  0  0  0  0
   -0.9457   -0.6508   -4.2174 H   0  0  0  0  0  0  0  0  0  0  0  0
    0.1469    0.5977   -3.5860 H   0  0  0  0  0  0  0  0  0  0  0  0
   -0.2221    1.0448    0.9284 C   0  0  0  0  0  0  0  0  0  0  0  0
   -1.2147    1.7026    0.6357 O   0  0  0  0  0  0  0  0  0  0  0  0
    0.7341    1.5941    1.7626 N   0  0  0  0  0  0  0  0  0  0  0  0
    1.5198    1.0080    2.0294 H   0  0  0  0  0  0  0  0  0  0  0  0
    0.6395    2.9422    2.3094 C   0  0  0  0  0  0  0  0  0  0  0  0
   -0.2641    3.0463    2.9192 H   0  0  0  0  0  0  0  0  0  0  0  0
    1.5080    3.1571    2.9394 H   0  0  0  0  0  0  0  0  0  0  0  0
    0.6071    3.6814    1.5021 H   0  0  0  0  0  0  0  0  0  0  0  0
  1  2  1  0  0  0  0
  2  3  1  0  0  0  0
  2  4  1  0  0  0  0
  2  5  1  0  0  0  0
  5  6  2  0  0  0  0
  5  7  1  0  0  0  0
  7  8  1  0  0  0  0
  7  9  1  0  0  0  0
  9 10  1  0  0  0  0
  9 11  1  0  0  0  0
  9 24  1  0  0  0  0
 11 12  1  0  0  0  0
 11 13  1  0  0  0  0
 11 17  1  0  0  0  0
 13 14  1  0  0  0  0
 13 15  1  0  0  0  0
 13 16  1  0  0  0  0
 17 18  1  0  0  0  0
 17 19  1  0  0  0  0
 17 20  1  0  0  0  0
 20 21  1  0  0  0  0
 20 22  1  0  0  0  0
 20 23  1  0  0  0  0
 24 25  2  0  0  0  0
 24 26  1  0  0  0  0
 26 27  1  0  0  0  0
 26 28  1  0  0  0  0
 28 29  1  0  0  0  0
 28 30  1  0  0  0  0
 28 31  1  0  0  0  0
M  END
$$$$

  -OEChem-03222214053D

 31 30  0     1  0  0  0  0  0999 V2000
   -2.9504   -3.8923    1.6649 H   0  0  0  0  0  0  0  0  0  0  0  0
   -2.9817   -2.8902    1.2280 C   0  0  0  0  0  0  0  0  0  0  0  0
   -3.5630   -2.2377    1.8840 H   0  0  0  0  0  0  0  0  0  0  0  0
   -3.4717   -2.9458    0.2531 H   0  0  0  0  0  0  0  0  0  0  0  0
   -1.5749   -2.3457    1.0699 C   0  0  0  0  0  0  0  0  0  0  0  0
   -0.6172   -3.0243    1.4064 O   0  0  0  0  0  0  0  0  0  0  0  0
   -1.3840   -1.0815    0.5541 N   0  0  0  0  0  0  0  0  0  0  0  0
   -2.2109   -0.5140    0.3746 H   0  0  0  0  0  0  0  0  0  0  0  0
   -0.0788   -0.4106    0.4376 C   0  0  1  0  0  0  0  0  0  0  0  0
    0.6391   -0.8910    1.1100 H   0  0  0  0  0  0  0  0  0  0  0  0
    0.4859   -0.4210   -1.0142 C   0  0  1  0  0  0  0  0  0  0  0  0
    1.1141    0.4654   -1.1569 H   0  0  0  0  0  0  0  0  0  0  0  0
    1.3854   -1.6612   -1.1700 C   0  0  0  0  0  0  0  0  0  0  0  0
    0.7876   -2.5775   -1.1283 H   0  0  0  0  0  0  0  0  0  0  0  0
    1.9257   -1.6380   -2.1201 H   0  0  0  0  0  0  0  0  0  0  0  0
    2.1319   -1.6996   -0.3710 H   0  0  0  0  0  0  0  0  0  0  0  0
   -0.6254   -0.4174   -2.0958 C   0  0  0  0  0  0  0  0  0  0  0  0
   -1.2724   -1.2926   -1.9806 H   0  0  0  0  0  0  0  0  0  0  0  0
   -1.2434    0.4765   -1.9602 H   0  0  0  0  0  0  0  0  0  0  0  0
   -0.0844   -0.4245   -3.5288 C   0  0  0  0  0  0  0  0  0  0  0  0
    0.3927   -1.3797   -3.7653 H   0  0  0  0  0  0  0  0  0  0  0  0
   -0.9057   -0.2735   -4.2358 H   0  0  0  0  0  0  0  0  0  0  0  0
    0.6436    0.3807   -3.6675 H   0  0  0  0  0  0  0  0  0  0  0  0
   -0.2159    1.0461    0.9260 C   0  0  0  0  0  0  0  0  0  0  0  0
   -1.2074    1.7041    0.6294 O   0  0  0  0  0  0  0  0  0  0  0  0
    0.7344    1.5958    1.7665 N   0  0  0  0  0  0  0  0  0  0  0  0
    1.5220    1.0122    2.0333 H   0  0  0  0  0  0  0  0  0  0  0  0
    0.6401    2.9462    2.3073 C   0  0  0  0  0  0  0  0  0  0  0  0
   -0.2710    3.0581    2.9045 H   0  0  0  0  0  0  0  0  0  0  0  0
    1.5014    3.1578    2.9483 H   0  0  0  0  0  0  0  0  0  0  0  0
    0.6231    3.6821    1.4965 H   0  0  0  0  0  0  0  0  0  0  0  0
  1  2  1  0  0  0  0
  2  3  1  0  0  0  0
  2  4  1  0  0  0  0
  2  5  1  0  0  0  0
  5  6  2  0  0  0  0
  5  7  1  0  0  0  0
  7  8  1  0  0  0  0
  7  9  1  0  0  0  0
  9 10  1  0  0  0  0
  9 11  1  0  0  0  0
  9 24  1  0  0  0  0
 11 12  1  0  0  0  0
 11 13  1  0  0  0  0
 11 17  1  0  0  0  0
 13 14  1  0  0  0  0
 13 15  1  0  0  0  0
 13 16  1  0  0  0  0
 17 18  1  0  0  0  0
 17 19  1  0  0  0  0
 17 20  1  0  0  0  0
 20 21  1  0  0  0  0
 20 22  1  0  0  0  0
 20 23  1  0  0  0  0
 24 25  2  0  0  0  0
 24 26  1  0  0  0  0
 26 27  1  0  0  0  0
 26 28  1  0  0  0  0
 28 29  1  0  0  0  0
 28 30  1  0  0  0  0
 28 31  1  0  0  0  0
M  END
$$$$

  -OEChem-03222214053D

 31 30  0     1  0  0  0  0  0999 V2000
   -2.9618   -3.8880    1.7000 H   0  0  0  0  0  0  0  0  0  0  0  0
   -2.9909   -2.8879    1.2584 C   0  0  0  0  0  0  0  0  0  0  0  0
   -3.5648   -2.2294    1.9149 H   0  0  0  0  0  0  0  0  0  0  0  0
   -3.4877   -2.9460    0.2869 H   0  0  0  0  0  0  0  0  0  0  0  0
   -1.5824   -2.3509    1.0887 C   0  0  0  0  0  0  0  0  0  0  0  0
   -0.6253   -3.0320    1.4224 O   0  0  0  0  0  0  0  0  0  0  0  0
   -1.3903   -1.0891    0.5678 N   0  0  0  0  0  0  0  0  0  0  0  0
   -2.2163   -0.5187    0.3935 H   0  0  0  0  0  0  0  0  0  0  0  0
   -0.0841   -0.4229    0.4406 C   0  0  1  0  0  0  0  0  0  0  0  0
    0.6329   -0.9016    1.1149 H   0  0  0  0  0  0  0  0  0  0  0  0
    0.4858   -0.4231   -1.0122 C   0  0  1  0  0  0  0  0  0  0  0  0
    1.1198    0.4599   -1.1501 H   0  0  0  0  0  0  0  0  0  0  0  0
    1.3942   -1.6615   -1.1468 C   0  0  0  0  0  0  0  0  0  0  0  0
    0.7977   -2.5792   -1.1187 H   0  0  0  0  0  0  0  0  0  0  0  0
    1.9584   -1.6358   -2.0832 H   0  0  0  0  0  0  0  0  0  0  0  0
    2.1235   -1.6987   -0.3319 H   0  0  0  0  0  0  0  0  0  0  0  0
   -0.6121   -0.4096   -2.1156 C   0  0  0  0  0  0  0  0  0  0  0  0
   -1.4026   -1.1284   -1.8860 H   0  0  0  0  0  0  0  0  0  0  0  0
   -1.0671    0.5860   -2.1379 H   0  0  0  0  0  0  0  0  0  0  0  0
   -0.1097   -0.7644   -3.5194 C   0  0  0  0  0  0  0  0  0  0  0  0
    0.1833   -1.8169   -3.5797 H   0  0  0  0  0  0  0  0  0  0  0  0
   -0.9050   -0.5937   -4.2515 H   0  0  0  0  0  0  0  0  0  0  0  0
    0.7473   -0.1391   -3.7884 H   0  0  0  0  0  0  0  0  0  0  0  0
   -0.2194    1.0348    0.9267 C   0  0  0  0  0  0  0  0  0  0  0  0
   -1.2115    1.6921    0.6305 O   0  0  0  0  0  0  0  0  0  0  0  0
    0.7346    1.5880    1.7609 N   0  0  0  0  0  0  0  0  0  0  0  0
    1.5228    1.0049    2.0273 H   0  0  0  0  0  0  0  0  0  0  0  0
    0.6423    2.9403    2.2972 C   0  0  0  0  0  0  0  0  0  0  0  0
   -0.2677    3.0551    2.8955 H   0  0  0  0  0  0  0  0  0  0  0  0
    1.5045    3.1533    2.9363 H   0  0  0  0  0  0  0  0  0  0  0  0
    0.6246    3.6739    1.4845 H   0  0  0  0  0  0  0  0  0  0  0  0
  1  2  1  0  0  0  0
  2  3  1  0  0  0  0
  2  4  1  0  0  0  0
  2  5  1  0  0  0  0
  5  6  2  0  0  0  0
  5  7  1  0  0  0  0
  7  8  1  0  0  0  0
  7  9  1  0  0  0  0
  9 10  1  0  0  0  0
  9 11  1  0  0  0  0
  9 24  1  0  0  0  0
 11 12  1  0  0  0  0
 11 13  1  0  0  0  0
 11 17  1  0  0  0  0
 13 14  1  0  0  0  0
 13 15  1  0  0  0  0
 13 16  1  0  0  0  0
 17 18  1  0  0  0  0
 17 19  1  0  0  0  0
 17 20  1  0  0  0  0
 20 21  1  0  0  0  0
 20 22  1  0  0  0  0
 20 23  1  0  0  0  0
 24 25  2  0  0  0  0
 24 26  1  0  0  0  0
 26 27  1  0  0  0  0
 26 28  1  0  0  0  0
 28 29  1  0  0  0  0
 28 30  1  0  0  0  0
 28 31  1  0  0  0  0
M  END
$$$$

  -OEChem-03222214053D

 31 30  0     1  0  0  0  0  0999 V2000
   -2.9734   -3.8844    1.7267 H   0  0  0  0  0  0  0  0  0  0  0  0
   -3.0003   -2.8859    1.2819 C   0  0  0  0  0  0  0  0  0  0  0  0
   -3.5705   -2.2237    1.9378 H   0  0  0  0  0  0  0  0  0  0  0  0
   -3.4993   -2.9457    0.3117 H   0  0  0  0  0  0  0  0  0  0  0  0
   -1.5905   -2.3541    1.1065 C   0  0  0  0  0  0  0  0  0  0  0  0
   -0.6345   -3.0383    1.4370 O   0  0  0  0  0  0  0  0  0  0  0  0
   -1.3957   -1.0941    0.5821 N   0  0  0  0  0  0  0  0  0  0  0  0
   -2.2202   -0.5211    0.4088 H   0  0  0  0  0  0  0  0  0  0  0  0
   -0.0881   -0.4329    0.4471 C   0  0  1  0  0  0  0  0  0  0  0  0
    0.6286   -0.9108    1.1226 H   0  0  0  0  0  0  0  0  0  0  0  0
    0.4845   -0.4289   -1.0073 C   0  0  1  0  0  0  0  0  0  0  0  0
    1.1195    0.4541   -1.1407 H   0  0  0  0  0  0  0  0  0  0  0  0
    1.4104   -1.6584   -1.1192 C   0  0  0  0  0  0  0  0  0  0  0  0
    0.8282   -2.5843   -1.0654 H   0  0  0  0  0  0  0  0  0  0  0  0
    1.9710   -1.6465   -2.0582 H   0  0  0  0  0  0  0  0  0  0  0  0
    2.1443   -1.6668   -0.3073 H   0  0  0  0  0  0  0  0  0  0  0  0
   -0.5988   -0.4077   -2.1348 C   0  0  0  0  0  0  0  0  0  0  0  0
   -1.5170   -0.9025   -1.8144 H   0  0  0  0  0  0  0  0  0  0  0  0
   -0.8553    0.6375   -2.3363 H   0  0  0  0  0  0  0  0  0  0  0  0
   -0.2054   -1.0878   -3.4517 C   0  0  0  0  0  0  0  0  0  0  0  0
   -0.0805   -2.1664   -3.3170 H   0  0  0  0  0  0  0  0  0  0  0  0
   -0.9899   -0.9305   -4.1980 H   0  0  0  0  0  0  0  0  0  0  0  0
    0.7261   -0.6642   -3.8393 H   0  0  0  0  0  0  0  0  0  0  0  0
   -0.2224    1.0248    0.9319 C   0  0  0  0  0  0  0  0  0  0  0  0
   -1.2129    1.6830    0.6324 O   0  0  0  0  0  0  0  0  0  0  0  0
    0.7339    1.5798    1.7622 N   0  0  0  0  0  0  0  0  0  0  0  0
    1.5202    0.9960    2.0324 H   0  0  0  0  0  0  0  0  0  0  0  0
    0.6449    2.9351    2.2918 C   0  0  0  0  0  0  0  0  0  0  0  0
   -0.2647    3.0548    2.8899 H   0  0  0  0  0  0  0  0  0  0  0  0
    1.5082    3.1495    2.9292 H   0  0  0  0  0  0  0  0  0  0  0  0
    0.6287    3.6646    1.4754 H   0  0  0  0  0  0  0  0  0  0  0  0
  1  2  1  0  0  0  0
  2  3  1  0  0  0  0
  2  4  1  0  0  0  0
  2  5  1  0  0  0  0
  5  6  2  0  0  0  0
  5  7  1  0  0  0  0
  7  8  1  0  0  0  0
  7  9  1  0  0  0  0
  9 10  1  0  0  0  0
  9 11  1  0  0  0  0
  9 24  1  0  0  0  0
 11 12  1  0  0  0  0
 11 13  1  0  0  0  0
 11 17  1  0  0  0  0
 13 14  1  0  0  0  0
 13 15  1  0  0  0  0
 13 16  1  0  0  0  0
 17 18  1  0  0  0  0
 17 19  1  0  0  0  0
 17 20  1  0  0  0  0
 20 21  1  0  0  0  0
 20 22  1  0  0  0  0
 20 23  1  0  0  0  0
 24 25  2  0  0  0  0
 24 26  1  0  0  0  0
 26 27  1  0  0  0  0
 26 28  1  0  0  0  0
 28 29  1  0  0  0  0
 28 30  1  0  0  0  0
 28 31  1  0  0  0  0
M  END
$$$$

  -OEChem-03222214053D

 31 30  0     1  0  0  0  0  0999 V2000
   -2.9858   -3.8812    1.7359 H   0  0  0  0  0  0  0  0  0  0  0  0
   -3.0097   -2.8833    1.2889 C   0  0  0  0  0  0  0  0  0  0  0  0
   -3.5792   -2.2179    1.9423 H   0  0  0  0  0  0  0  0  0  0  0  0
   -3.5075   -2.9439    0.3181 H   0  0  0  0  0  0  0  0  0  0  0  0
   -1.5982   -2.3554    1.1145 C   0  0  0  0  0  0  0  0  0  0  0  0
   -0.6448   -3.0419    1.4476 O   0  0  0  0  0  0  0  0  0  0  0  0
   -1.3991   -1.0969    0.5883 N   0  0  0  0  0  0  0  0  0  0  0  0
   -2.2218   -0.5208    0.4170 H   0  0  0  0  0  0  0  0  0  0  0  0
   -0.0891   -0.4395    0.4545 C   0  0  1  0  0  0  0  0  0  0  0  0
    0.6252   -0.9184    1.1317 H   0  0  0  0  0  0  0  0  0  0  0  0
    0.4864   -0.4394   -0.9987 C   0  0  1  0  0  0  0  0  0  0  0  0
    1.1112    0.4515   -1.1277 H   0  0  0  0  0  0  0  0  0  0  0  0
    1.4389   -1.6489   -1.0982 C   0  0  0  0  0  0  0  0  0  0  0  0
    0.8843   -2.5875   -0.9979 H   0  0  0  0  0  0  0  0  0  0  0  0
    1.9746   -1.6514   -2.0515 H   0  0  0  0  0  0  0  0  0  0  0  0
    2.1923   -1.6111   -0.3054 H   0  0  0  0  0  0  0  0  0  0  0  0
   -0.5890   -0.4158   -2.1384 C   0  0  0  0  0  0  0  0  0  0  0  0
   -1.5895   -0.6179   -1.7539 H   0  0  0  0  0  0  0  0  0  0  0  0
   -0.6202    0.6035   -2.5372 H   0  0  0  0  0  0  0  0  0  0  0  0
   -0.3727   -1.3788   -3.3127 C   0  0  0  0  0  0  0  0  0  0  0  0
   -0.3961   -2.4199   -2.9767 H   0  0  0  0  0  0  0  0  0  0  0  0
   -1.1693   -1.2438   -4.0506 H   0  0  0  0  0  0  0  0  0  0  0  0
    0.5833   -1.1806   -3.8065 H   0  0  0  0  0  0  0  0  0  0  0  0
   -0.2225    1.0192    0.9370 C   0  0  0  0  0  0  0  0  0  0  0  0
   -1.2116    1.6779    0.6337 O   0  0  0  0  0  0  0  0  0  0  0  0
    0.7322    1.5745    1.7685 N   0  0  0  0  0  0  0  0  0  0  0  0
    1.5190    0.9914    2.0386 H   0  0  0  0  0  0  0  0  0  0  0  0
    0.6452    2.9321    2.2921 C   0  0  0  0  0  0  0  0  0  0  0  0
   -0.2644    3.0553    2.8892 H   0  0  0  0  0  0  0  0  0  0  0  0
    1.5084    3.1480    2.9287 H   0  0  0  0  0  0  0  0  0  0  0  0
    0.6298    3.6580    1.4724 H   0  0  0  0  0  0  0  0  0  0  0  0
  1  2  1  0  0  0  0
  2  3  1  0  0  0  0
  2  4  1  0  0  0  0
  2  5  1  0  0  0  0
  5  6  2  0  0  0  0
  5  7  1  0  0  0  0
  7  8  1  0  0  0  0
  7  9  1  0  0  0  0
  9 10  1  0  0  0  0
  9 11  1  0  0  0  0
  9 24  1  0  0  0  0
 11 12  1  0  0  0  0
 11 13  1  0  0  0  0
 11 17  1  0  0  0  0
 13 14  1  0  0  0  0
 13 15  1  0  0  0  0
 13 16  1  0  0  0  0
 17 18  1  0  0  0  0
 17 19  1  0  0  0  0
 17 20  1  0  0  0  0
 20 21  1  0  0  0  0
 20 22  1  0  0  0  0
 20 23  1  0  0  0  0
 24 25  2  0  0  0  0
 24 26  1  0  0  0  0
 26 27  1  0  0  0  0
 26 28  1  0  0  0  0
 28 29  1  0  0  0  0
 28 30  1  0  0  0  0
 28 31  1  0  0  0  0
M  END
$$$$

  -OEChem-03222214053D

 31 30  0     1  0  0  0  0  0999 V2000
   -2.9922   -3.8830    1.6931 H   0  0  0  0  0  0  0  0  0  0  0  0
   -3.0110   -2.8823    1.2525 C   0  0  0  0  0  0  0  0  0  0  0  0
   -3.5949   -2.2232    1.8995 H   0  0  0  0  0  0  0  0  0  0  0  0
   -3.4904   -2.9380    0.2721 H   0  0  0  0  0  0  0  0  0  0  0  0
   -1.5987   -2.3481    1.1070 C   0  0  0  0  0  0  0  0  0  0  0  0
   -0.6484   -3.0315    1.4550 O   0  0  0  0  0  0  0  0  0  0  0  0
   -1.3961   -1.0887    0.5847 N   0  0  0  0  0  0  0  0  0  0  0  0
   -2.2184   -0.5170    0.3983 H   0  0  0  0  0  0  0  0  0  0  0  0
   -0.0857   -0.4292    0.4618 C   0  0  1  0  0  0  0  0  0  0  0  0
    0.6269   -0.9117    1.1386 H   0  0  0  0  0  0  0  0  0  0  0  0
    0.4852   -0.4487   -0.9906 C   0  0  1  0  0  0  0  0  0  0  0  0
    1.0848    0.4587   -1.1261 H   0  0  0  0  0  0  0  0  0  0  0  0
    1.4737   -1.6262   -1.0971 C   0  0  0  0  0  0  0  0  0  0  0  0
    0.9605   -2.5824   -0.9541 H   0  0  0  0  0  0  0  0  0  0  0  0
    1.9710   -1.6300   -2.0713 H   0  0  0  0  0  0  0  0  0  0  0  0
    2.2523   -1.5408   -0.3328 H   0  0  0  0  0  0  0  0  0  0  0  0
   -0.6010   -0.4388   -2.1179 C   0  0  0  0  0  0  0  0  0  0  0  0
   -1.6060   -0.3223   -1.7072 H   0  0  0  0  0  0  0  0  0  0  0  0
   -0.4274    0.4576   -2.7223 H   0  0  0  0  0  0  0  0  0  0  0  0
   -0.6102   -1.6326   -3.0812 C   0  0  0  0  0  0  0  0  0  0  0  0
   -0.7803   -2.5665   -2.5369 H   0  0  0  0  0  0  0  0  0  0  0  0
   -1.4175   -1.5114   -3.8099 H   0  0  0  0  0  0  0  0  0  0  0  0
    0.3319   -1.7035   -3.6322 H   0  0  0  0  0  0  0  0  0  0  0  0
   -0.2150    1.0302    0.9437 C   0  0  0  0  0  0  0  0  0  0  0  0
   -1.1982    1.6940    0.6333 O   0  0  0  0  0  0  0  0  0  0  0  0
    0.7381    1.5803    1.7808 N   0  0  0  0  0  0  0  0  0  0  0  0
    1.5197    0.9924    2.0557 H   0  0  0  0  0  0  0  0  0  0  0  0
    0.6532    2.9361    2.3094 C   0  0  0  0  0  0  0  0  0  0  0  0
   -0.2632    3.0631    2.8951 H   0  0  0  0  0  0  0  0  0  0  0  0
    1.5094    3.1430    2.9587 H   0  0  0  0  0  0  0  0  0  0  0  0
    0.6536    3.6663    1.4934 H   0  0  0  0  0  0  0  0  0  0  0  0
  1  2  1  0  0  0  0
  2  3  1  0  0  0  0
  2  4  1  0  0  0  0
  2  5  1  0  0  0  0
  5  6  2  0  0  0  0
  5  7  1  0  0  0  0
  7  8  1  0  0  0  0
  7  9  1  0  0  0  0
  9 10  1  0  0  0  0
  9 11  1  0  0  0  0
  9 24  1  0  0  0  0
 11 12  1  0  0  0  0
 11 13  1  0  0  0  0
 11 17  1  0  0  0  0
 13 14  1  0  0  0  0
 13 15  1  0  0  0  0
 13 16  1  0  0  0  0
 17 18  1  0  0  0  0
 17 19  1  0  0  0  0
 17 20  1  0  0  0  0
 20 21  1  0  0  0  0
 20 22  1  0  0  0  0
 20 23  1  0  0  0  0
 24 25  2  0  0  0  0
 24 26  1  0  0  0  0
 26 27  1  0  0  0  0
 26 28  1  0  0  0  0
 28 29  1  0  0  0  0
 28 30  1  0  0  0  0
 28 31  1  0  0  0  0
M  END
$$$$

  -OEChem-03222214053D

 31 30  0     1  0  0  0  0  0999 V2000
   -2.9936   -3.8782    1.6655 H   0  0  0  0  0  0  0  0  0  0  0  0
   -3.0103   -2.8765    1.2271 C   0  0  0  0  0  0  0  0  0  0  0  0
   -3.5979   -2.2191    1.8725 H   0  0  0  0  0  0  0  0  0  0  0  0
   -3.4843   -2.9297    0.2441 H   0  0  0  0  0  0  0  0  0  0  0  0
   -1.5975   -2.3415    1.0915 C   0  0  0  0  0  0  0  0  0  0  0  0
   -0.6493   -3.0247    1.4455 O   0  0  0  0  0  0  0  0  0  0  0  0
   -1.3922   -1.0808    0.5735 N   0  0  0  0  0  0  0  0  0  0  0  0
   -2.2135   -0.5116    0.3755 H   0  0  0  0  0  0  0  0  0  0  0  0
   -0.0813   -0.4196    0.4635 C   0  0  1  0  0  0  0  0  0  0  0  0
    0.6295   -0.9050    1.1401 H   0  0  0  0  0  0  0  0  0  0  0  0
    0.4886   -0.4507   -0.9857 C   0  0  1  0  0  0  0  0  0  0  0  0
    1.0745    0.4646   -1.1264 H   0  0  0  0  0  0  0  0  0  0  0  0
    1.4854   -1.6169   -1.1098 C   0  0  0  0  0  0  0  0  0  0  0  0
    0.9935   -2.5767   -0.9221 H   0  0  0  0  0  0  0  0  0  0  0  0
    1.9330   -1.6360   -2.1081 H   0  0  0  0  0  0  0  0  0  0  0  0
    2.2953   -1.5025   -0.3829 H   0  0  0  0  0  0  0  0  0  0  0  0
   -0.6056   -0.4490   -2.0970 C   0  0  0  0  0  0  0  0  0  0  0  0
   -1.5523   -0.0625   -1.7088 H   0  0  0  0  0  0  0  0  0  0  0  0
   -0.2861    0.2607   -2.8669 H   0  0  0  0  0  0  0  0  0  0  0  0
   -0.8535   -1.7867   -2.8062 C   0  0  0  0  0  0  0  0  0  0  0  0
   -1.1316   -2.5588   -2.0823 H   0  0  0  0  0  0  0  0  0  0  0  0
   -1.6727   -1.6780   -3.5232 H   0  0  0  0  0  0  0  0  0  0  0  0
    0.0335   -2.1156   -3.3552 H   0  0  0  0  0  0  0  0  0  0  0  0
   -0.2095    1.0398    0.9461 C   0  0  0  0  0  0  0  0  0  0  0  0
   -1.1902    1.7064    0.6332 O   0  0  0  0  0  0  0  0  0  0  0  0
    0.7394    1.5854    1.7907 N   0  0  0  0  0  0  0  0  0  0  0  0
    1.5169    0.9944    2.0703 H   0  0  0  0  0  0  0  0  0  0  0  0
    0.6525    2.9389    2.3244 C   0  0  0  0  0  0  0  0  0  0  0  0
   -0.2611    3.0604    2.9158 H   0  0  0  0  0  0  0  0  0  0  0  0
    1.5117    3.1470    2.9694 H   0  0  0  0  0  0  0  0  0  0  0  0
    0.6460    3.6711    1.5102 H   0  0  0  0  0  0  0  0  0  0  0  0
  1  2  1  0  0  0  0
  2  3  1  0  0  0  0
  2  4  1  0  0  0  0
  2  5  1  0  0  0  0
  5  6  2  0  0  0  0
  5  7  1  0  0  0  0
  7  8  1  0  0  0  0
  7  9  1  0  0  0  0
  9 10  1  0  0  0  0
  9 11  1  0  0  0  0
  9 24  1  0  0  0  0
 11 12  1  0  0  0  0
 11 13  1  0  0  0  0
 11 17  1  0  0  0  0
 13 14  1  0  0  0  0
 13 15  1  0  0  0  0
 13 16  1  0  0  0  0
 17 18  1  0  0  0  0
 17 19  1  0  0  0  0
 17 20  1  0  0  0  0
 20 21  1  0  0  0  0
 20 22  1  0  0  0  0
 20 23  1  0  0  0  0
 24 25  2  0  0  0  0
 24 26  1  0  0  0  0
 26 27  1  0  0  0  0
 26 28  1  0  0  0  0
 28 29  1  0  0  0  0
 28 30  1  0  0  0  0
 28 31  1  0  0  0  0
M  END
$$$$

  -OEChem-03222214053D

 31 30  0     1  0  0  0  0  0999 V2000
   -2.9944   -3.8769    1.6910 H   0  0  0  0  0  0  0  0  0  0  0  0
   -3.0113   -2.8745    1.2544 C   0  0  0  0  0  0  0  0  0  0  0  0
   -3.5932   -2.2168    1.9045 H   0  0  0  0  0  0  0  0  0  0  0  0
   -3.4917   -2.9251    0.2745 H   0  0  0  0  0  0  0  0  0  0  0  0
   -1.5980   -2.3423    1.1109 C   0  0  0  0  0  0  0  0  0  0  0  0
   -0.6492   -3.0259    1.4626 O   0  0  0  0  0  0  0  0  0  0  0  0
   -1.3933   -1.0833    0.5874 N   0  0  0  0  0  0  0  0  0  0  0  0
   -2.2147   -0.5160    0.3850 H   0  0  0  0  0  0  0  0  0  0  0  0
   -0.0839   -0.4228    0.4706 C   0  0  1  0  0  0  0  0  0  0  0  0
    0.6303   -0.9066    1.1451 H   0  0  0  0  0  0  0  0  0  0  0  0
    0.4894   -0.4460   -0.9776 C   0  0  1  0  0  0  0  0  0  0  0  0
    1.0804    0.4669   -1.1126 H   0  0  0  0  0  0  0  0  0  0  0  0
    1.4697   -1.6219   -1.1210 C   0  0  0  0  0  0  0  0  0  0  0  0
    0.9762   -2.5743   -0.9020 H   0  0  0  0  0  0  0  0  0  0  0  0
    1.8749   -1.6601   -2.1369 H   0  0  0  0  0  0  0  0  0  0  0  0
    2.3072   -1.5048   -0.4265 H   0  0  0  0  0  0  0  0  0  0  0  0
   -0.5888   -0.4429   -2.0976 C   0  0  0  0  0  0  0  0  0  0  0  0
   -1.4477    0.1541   -1.7744 H   0  0  0  0  0  0  0  0  0  0  0  0
   -0.1649    0.0663   -2.9690 H   0  0  0  0  0  0  0  0  0  0  0  0
   -1.0797   -1.8198   -2.5708 C   0  0  0  0  0  0  0  0  0  0  0  0
   -1.4590   -2.4141   -1.7366 H   0  0  0  0  0  0  0  0  0  0  0  0
   -1.8885   -1.6929   -3.2966 H   0  0  0  0  0  0  0  0  0  0  0  0
   -0.2738   -2.3763   -3.0579 H   0  0  0  0  0  0  0  0  0  0  0  0
   -0.2150    1.0379    0.9498 C   0  0  0  0  0  0  0  0  0  0  0  0
   -1.1982    1.7019    0.6394 O   0  0  0  0  0  0  0  0  0  0  0  0
    0.7351    1.5877    1.7904 N   0  0  0  0  0  0  0  0  0  0  0  0
    1.5150    0.9993    2.0691 H   0  0  0  0  0  0  0  0  0  0  0  0
    0.6461    2.9418    2.3227 C   0  0  0  0  0  0  0  0  0  0  0  0
   -0.2676    3.0625    2.9140 H   0  0  0  0  0  0  0  0  0  0  0  0
    1.5051    3.1518    2.9673 H   0  0  0  0  0  0  0  0  0  0  0  0
    0.6382    3.6734    1.5079 H   0  0  0  0  0  0  0  0  0  0  0  0
  1  2  1  0  0  0  0
  2  3  1  0  0  0  0
  2  4  1  0  0  0  0
  2  5  1  0  0  0  0
  5  6  2  0  0  0  0
  5  7  1  0  0  0  0
  7  8  1  0  0  0  0
  7  9  1  0  0  0  0
  9 10  1  0  0  0  0
  9 11  1  0  0  0  0
  9 24  1  0  0  0  0
 11 12  1  0  0  0  0
 11 13  1  0  0  0  0
 11 17  1  0  0  0  0
 13 14  1  0  0  0  0
 13 15  1  0  0  0  0
 13 16  1  0  0  0  0
 17 18  1  0  0  0  0
 17 19  1  0  0  0  0
 17 20  1  0  0  0  0
 20 21  1  0  0  0  0
 20 22  1  0  0  0  0
 20 23  1  0  0  0  0
 24 25  2  0  0  0  0
 24 26  1  0  0  0  0
 26 27  1  0  0  0  0
 26 28  1  0  0  0  0
 28 29  1  0  0  0  0
 28 30  1  0  0  0  0
 28 31  1  0  0  0  0
M  END
$$$$

  -OEChem-03222214053D

 31 30  0     1  0  0  0  0  0999 V2000
   -2.9611   -3.8835    1.7955 H   0  0  0  0  0  0  0  0  0  0  0  0
   -2.9918   -2.8839    1.3529 C   0  0  0  0  0  0  0  0  0  0  0  0
   -3.5576   -2.2233    2.0141 H   0  0  0  0  0  0  0  0  0  0  0  0
   -3.4983   -2.9417    0.3864 H   0  0  0  0  0  0  0  0  0  0  0  0
   -1.5837   -2.3498    1.1694 C   0  0  0  0  0  0  0  0  0  0  0  0
   -0.6256   -3.0271    1.5078 O   0  0  0  0  0  0  0  0  0  0  0  0
   -1.3941   -1.0931    0.6339 N   0  0  0  0  0  0  0  0  0  0  0  0
   -2.2208   -0.5282    0.4459 H   0  0  0  0  0  0  0  0  0  0  0  0
   -0.0909   -0.4328    0.4837 C   0  0  1  0  0  0  0  0  0  0  0  0
    0.6360   -0.9089    1.1497 H   0  0  0  0  0  0  0  0  0  0  0  0
    0.4759   -0.4378   -0.9695 C   0  0  1  0  0  0  0  0  0  0  0  0
    1.0829    0.4662   -1.0923 H   0  0  0  0  0  0  0  0  0  0  0  0
    1.4304   -1.6329   -1.1229 C   0  0  0  0  0  0  0  0  0  0  0  0
    0.9196   -2.5738   -0.8948 H   0  0  0  0  0  0  0  0  0  0  0  0
    1.8205   -1.6839   -2.1442 H   0  0  0  0  0  0  0  0  0  0  0  0
    2.2790   -1.5317   -0.4395 H   0  0  0  0  0  0  0  0  0  0  0  0
   -0.5611   -0.4294   -2.1280 C   0  0  0  0  0  0  0  0  0  0  0  0
   -1.2991    0.3533   -1.9236 H   0  0  0  0  0  0  0  0  0  0  0  0
   -0.0332   -0.1378   -3.0418 H   0  0  0  0  0  0  0  0  0  0  0  0
   -1.3135   -1.7365   -2.4341 C   0  0  0  0  0  0  0  0  0  0  0  0
   -1.9439   -2.0571   -1.6054 H   0  0  0  0  0  0  0  0  0  0  0  0
   -1.9622   -1.5846   -3.3020 H   0  0  0  0  0  0  0  0  0  0  0  0
   -0.6156   -2.5431   -2.6751 H   0  0  0  0  0  0  0  0  0  0  0  0
   -0.2265    1.0284    0.9607 C   0  0  0  0  0  0  0  0  0  0  0  0
   -1.2219    1.6822    0.6676 O   0  0  0  0  0  0  0  0  0  0  0  0
    0.7352    1.5902    1.7802 N   0  0  0  0  0  0  0  0  0  0  0  0
    1.5221    1.0074    2.0506 H   0  0  0  0  0  0  0  0  0  0  0  0
    0.6382    2.9412    2.3189 C   0  0  0  0  0  0  0  0  0  0  0  0
   -0.2632    3.0460    2.9319 H   0  0  0  0  0  0  0  0  0  0  0  0
    1.5086    3.1627    2.9441 H   0  0  0  0  0  0  0  0  0  0  0  0
    0.5998    3.6754    1.5072 H   0  0  0  0  0  0  0  0  0  0  0  0
  1  2  1  0  0  0  0
  2  3  1  0  0  0  0
  2  4  1  0  0  0  0
  2  5  1  0  0  0  0
  5  6  2  0  0  0  0
  5  7  1  0  0  0  0
  7  8  1  0  0  0  0
  7  9  1  0  0  0  0
  9 10  1  0  0  0  0
  9 11  1  0  0  0  0
  9 24  1  0  0  0  0
 11 12  1  0  0  0  0
 11 13  1  0  0  0  0
 11 17  1  0  0  0  0
 13 14  1  0  0  0  0
 13 15  1  0  0  0  0
 13 16  1  0  0  0  0
 17 18  1  0  0  0  0
 17 19  1  0  0  0  0
 17 20  1  0  0  0  0
 20 21  1  0  0  0  0
 20 22  1  0  0  0  0
 20 23  1  0  0  0  0
 24 25  2  0  0  0  0
 24 26  1  0  0  0  0
 26 27  1  0  0  0  0
 26 28  1  0  0  0  0
 28 29  1  0  0  0  0
 28 30  1  0  0  0  0
 28 31  1  0  0  0  0
M  END
$$$$

  -OEChem-03222214053D

 31 30  0     1  0  0  0  0  0999 V2000
   -2.9174   -3.8949    1.8668 H   0  0  0  0  0  0  0  0  0  0  0  0
   -2.9600   -2.9075    1.3984 C   0  0  0  0  0  0  0  0  0  0  0  0
   -3.5338   -2.2366    2.0425 H   0  0  0  0  0  0  0  0  0  0  0  0
   -3.4655   -2.9963    0.4337 H   0  0  0  0  0  0  0  0  0  0  0  0
   -1.5585   -2.3620    1.1998 C   0  0  0  0  0  0  0  0  0  0  0  0
   -0.5910   -3.0357    1.5178 O   0  0  0  0  0  0  0  0  0  0  0  0
   -1.3858   -1.1013    0.6690 N   0  0  0  0  0  0  0  0  0  0  0  0
   -2.2192   -0.5420    0.4951 H   0  0  0  0  0  0  0  0  0  0  0  0
   -0.0912   -0.4329    0.4946 C   0  0  1  0  0  0  0  0  0  0  0  0
    0.6501   -0.9074    1.1457 H   0  0  0  0  0  0  0  0  0  0  0  0
    0.4540   -0.4208   -0.9677 C   0  0  1  0  0  0  0  0  0  0  0  0
    1.0722    0.4761   -1.0876 H   0  0  0  0  0  0  0  0  0  0  0  0
    1.3925   -1.6279   -1.1382 C   0  0  0  0  0  0  0  0  0  0  0  0
    0.8727   -2.5647   -0.9158 H   0  0  0  0  0  0  0  0  0  0  0  0
    1.7770   -1.6774   -2.1616 H   0  0  0  0  0  0  0  0  0  0  0  0
    2.2472   -1.5438   -0.4599 H   0  0  0  0  0  0  0  0  0  0  0  0
   -0.5693   -0.4084   -2.1405 C   0  0  0  0  0  0  0  0  0  0  0  0
   -1.1472    0.5196   -2.0782 H   0  0  0  0  0  0  0  0  0  0  0  0
    0.0027   -0.3622   -3.0729 H   0  0  0  0  0  0  0  0  0  0  0  0
   -1.5645   -1.5728   -2.2706 C   0  0  0  0  0  0  0  0  0  0  0  0
   -2.4040   -1.4607   -1.5818 H   0  0  0  0  0  0  0  0  0  0  0  0
   -1.9770   -1.5847   -3.2839 H   0  0  0  0  0  0  0  0  0  0  0  0
   -1.0793   -2.5356   -2.0910 H   0  0  0  0  0  0  0  0  0  0  0  0
   -0.2283    1.0238    0.9845 C   0  0  0  0  0  0  0  0  0  0  0  0
   -1.2325    1.6730    0.7121 O   0  0  0  0  0  0  0  0  0  0  0  0
    0.7455    1.5889    1.7872 N   0  0  0  0  0  0  0  0  0  0  0  0
    1.5410    1.0102    2.0406 H   0  0  0  0  0  0  0  0  0  0  0  0
    0.6517    2.9381    2.3313 C   0  0  0  0  0  0  0  0  0  0  0  0
   -0.2365    3.0357    2.9644 H   0  0  0  0  0  0  0  0  0  0  0  0
    1.5344    3.1634    2.9375 H   0  0  0  0  0  0  0  0  0  0  0  0
    0.5909    3.6738    1.5224 H   0  0  0  0  0  0  0  0  0  0  0  0
  1  2  1  0  0  0  0
  2  3  1  0  0  0  0
  2  4  1  0  0  0  0
  2  5  1  0  0  0  0
  5  6  2  0  0  0  0
  5  7  1  0  0  0  0
  7  8  1  0  0  0  0
  7  9  1  0  0  0  0
  9 10  1  0  0  0  0
  9 11  1  0  0  0  0
  9 24  1  0  0  0  0
 11 12  1  0  0  0  0
 11 13  1  0  0  0  0
 11 17  1  0  0  0  0
 13 14  1  0  0  0  0
 13 15  1  0  0  0  0
 13 16  1  0  0  0  0
 17 18  1  0  0  0  0
 17 19  1  0  0  0  0
 17 20  1  0  0  0  0
 20 21  1  0  0  0  0
 20 22  1  0  0  0  0
 20 23  1  0  0  0  0
 24 25  2  0  0  0  0
 24 26  1  0  0  0  0
 26 27  1  0  0  0  0
 26 28  1  0  0  0  0
 28 29  1  0  0  0  0
 28 30  1  0  0  0  0
 28 31  1  0  0  0  0
M  END
$$$$

  -OEChem-03222214053D

 31 30  0     1  0  0  0  0  0999 V2000
   -2.8809   -3.9144    1.9222 H   0  0  0  0  0  0  0  0  0  0  0  0
   -2.9358   -2.9237    1.4624 C   0  0  0  0  0  0  0  0  0  0  0  0
   -3.4975   -2.2591    2.1233 H   0  0  0  0  0  0  0  0  0  0  0  0
   -3.4611   -3.0066    0.5079 H   0  0  0  0  0  0  0  0  0  0  0  0
   -1.5405   -2.3726    1.2376 C   0  0  0  0  0  0  0  0  0  0  0  0
   -0.5639   -3.0450    1.5297 O   0  0  0  0  0  0  0  0  0  0  0  0
   -1.3833   -1.1104    0.7060 N   0  0  0  0  0  0  0  0  0  0  0  0
   -2.2216   -0.5509    0.5579 H   0  0  0  0  0  0  0  0  0  0  0  0
   -0.0957   -0.4365    0.5051 C   0  0  1  0  0  0  0  0  0  0  0  0
    0.6559   -0.9067    1.1472 H   0  0  0  0  0  0  0  0  0  0  0  0
    0.4402   -0.4011   -0.9639 C   0  0  1  0  0  0  0  0  0  0  0  0
    1.0837    0.4797   -1.0703 H   0  0  0  0  0  0  0  0  0  0  0  0
    1.3414   -1.6366   -1.1437 C   0  0  0  0  0  0  0  0  0  0  0  0
    0.7656   -2.5590   -1.0186 H   0  0  0  0  0  0  0  0  0  0  0  0
    1.7973   -1.6439   -2.1385 H   0  0  0  0  0  0  0  0  0  0  0  0
    2.1502   -1.6338   -0.4064 H   0  0  0  0  0  0  0  0  0  0  0  0
   -0.5578   -0.3776   -2.1626 C   0  0  0  0  0  0  0  0  0  0  0  0
   -0.9568    0.6394   -2.2361 H   0  0  0  0  0  0  0  0  0  0  0  0
    0.0089   -0.5565   -3.0821 H   0  0  0  0  0  0  0  0  0  0  0  0
   -1.7606   -1.3295   -2.1645 C   0  0  0  0  0  0  0  0  0  0  0  0
   -2.5547   -0.9648   -1.5080 H   0  0  0  0  0  0  0  0  0  0  0  0
   -2.1762   -1.3911   -3.1749 H   0  0  0  0  0  0  0  0  0  0  0  0
   -1.4641   -2.3360   -1.8553 H   0  0  0  0  0  0  0  0  0  0  0  0
   -0.2351    1.0171    1.0022 C   0  0  0  0  0  0  0  0  0  0  0  0
   -1.2493    1.6593    0.7506 O   0  0  0  0  0  0  0  0  0  0  0  0
    0.7499    1.5877    1.7871 N   0  0  0  0  0  0  0  0  0  0  0  0
    1.5557    1.0153    2.0218 H   0  0  0  0  0  0  0  0  0  0  0  0
    0.6575    2.9362    2.3329 C   0  0  0  0  0  0  0  0  0  0  0  0
   -0.2265    3.0319    2.9722 H   0  0  0  0  0  0  0  0  0  0  0  0
    1.5439    3.1626    2.9333 H   0  0  0  0  0  0  0  0  0  0  0  0
    0.5896    3.6722    1.5248 H   0  0  0  0  0  0  0  0  0  0  0  0
  1  2  1  0  0  0  0
  2  3  1  0  0  0  0
  2  4  1  0  0  0  0
  2  5  1  0  0  0  0
  5  6  2  0  0  0  0
  5  7  1  0  0  0  0
  7  8  1  0  0  0  0
  7  9  1  0  0  0  0
  9 10  1  0  0  0  0
  9 11  1  0  0  0  0
  9 24  1  0  0  0  0
 11 12  1  0  0  0  0
 11 13  1  0  0  0  0
 11 17  1  0  0  0  0
 13 14  1  0  0  0  0
 13 15  1  0  0  0  0
 13 16  1  0  0  0  0
 17 18  1  0  0  0  0
 17 19  1  0  0  0  0
 17 20  1  0  0  0  0
 20 21  1  0  0  0  0
 20 22  1  0  0  0  0
 20 23  1  0  0  0  0
 24 25  2  0  0  0  0
 24 26  1  0  0  0  0
 26 27  1  0  0  0  0
 26 28  1  0  0  0  0
 28 29  1  0  0  0  0
 28 30  1  0  0  0  0
 28 31  1  0  0  0  0
M  END
$$$$

  -OEChem-03222214053D

 31 30  0     1  0  0  0  0  0999 V2000
   -2.8596   -3.9250    1.9572 H   0  0  0  0  0  0  0  0  0  0  0  0
   -2.9225   -2.9269    1.5149 C   0  0  0  0  0  0  0  0  0  0  0  0
   -3.4608   -2.2698    2.2023 H   0  0  0  0  0  0  0  0  0  0  0  0
   -3.4758   -2.9919    0.5750 H   0  0  0  0  0  0  0  0  0  0  0  0
   -1.5310   -2.3800    1.2592 C   0  0  0  0  0  0  0  0  0  0  0  0
   -0.5500   -3.0532    1.5341 O   0  0  0  0  0  0  0  0  0  0  0  0
   -1.3817   -1.1174    0.7264 N   0  0  0  0  0  0  0  0  0  0  0  0
   -2.2219   -0.5567    0.5938 H   0  0  0  0  0  0  0  0  0  0  0  0
   -0.0968   -0.4418    0.5111 C   0  0  1  0  0  0  0  0  0  0  0  0
    0.6605   -0.9087    1.1490 H   0  0  0  0  0  0  0  0  0  0  0  0
    0.4346   -0.3907   -0.9620 C   0  0  1  0  0  0  0  0  0  0  0  0
    1.0950    0.4787   -1.0562 H   0  0  0  0  0  0  0  0  0  0  0  0
    1.3149   -1.6417   -1.1454 C   0  0  0  0  0  0  0  0  0  0  0  0
    0.7088   -2.5511   -1.0772 H   0  0  0  0  0  0  0  0  0  0  0  0
    1.8135   -1.6282   -2.1195 H   0  0  0  0  0  0  0  0  0  0  0  0
    2.0938   -1.6871   -0.3779 H   0  0  0  0  0  0  0  0  0  0  0  0
   -0.5442   -0.3547   -2.1815 C   0  0  0  0  0  0  0  0  0  0  0  0
   -0.7387    0.7012   -2.3958 H   0  0  0  0  0  0  0  0  0  0  0  0
   -0.0335   -0.7572   -3.0624 H   0  0  0  0  0  0  0  0  0  0  0  0
   -1.9153   -1.0292   -2.0918 C   0  0  0  0  0  0  0  0  0  0  0  0
   -2.5767   -0.4858   -1.4114 H   0  0  0  0  0  0  0  0  0  0  0  0
   -2.3878   -1.0299   -3.0787 H   0  0  0  0  0  0  0  0  0  0  0  0
   -1.8151   -2.0676   -1.7619 H   0  0  0  0  0  0  0  0  0  0  0  0
   -0.2401    1.0099    1.0128 C   0  0  0  0  0  0  0  0  0  0  0  0
   -1.2620    1.6457    0.7756 O   0  0  0  0  0  0  0  0  0  0  0  0
    0.7492    1.5851    1.7892 N   0  0  0  0  0  0  0  0  0  0  0  0
    1.5619    1.0181    2.0132 H   0  0  0  0  0  0  0  0  0  0  0  0
    0.6524    2.9310    2.3406 C   0  0  0  0  0  0  0  0  0  0  0  0
   -0.2162    3.0125    3.0026 H   0  0  0  0  0  0  0  0  0  0  0  0
    1.5508    3.1689    2.9183 H   0  0  0  0  0  0  0  0  0  0  0  0
    0.5535    3.6678    1.5363 H   0  0  0  0  0  0  0  0  0  0  0  0
  1  2  1  0  0  0  0
  2  3  1  0  0  0  0
  2  4  1  0  0  0  0
  2  5  1  0  0  0  0
  5  6  2  0  0  0  0
  5  7  1  0  0  0  0
  7  8  1  0  0  0  0
  7  9  1  0  0  0  0
  9 10  1  0  0  0  0
  9 11  1  0  0  0  0
  9 24  1  0  0  0  0
 11 12  1  0  0  0  0
 11 13  1  0  0  0  0
 11 17  1  0  0  0  0
 13 14  1  0  0  0  0
 13 15  1  0  0  0  0
 13 16  1  0  0  0  0
 17 18  1  0  0  0  0
 17 19  1  0  0  0  0
 17 20  1  0  0  0  0
 20 21  1  0  0  0  0
 20 22  1  0  0  0  0
 20 23  1  0  0  0  0
 24 25  2  0  0  0  0
 24 26  1  0  0  0  0
 26 27  1  0  0  0  0
 26 28  1  0  0  0  0
 28 29  1  0  0  0  0
 28 30  1  0  0  0  0
 28 31  1  0  0  0  0
M  END
$$$$

  -OEChem-03222214053D

 31 30  0     1  0  0  0  0  0999 V2000
   -2.8502   -3.9288    1.9586 H   0  0  0  0  0  0  0  0  0  0  0  0
   -2.9169   -2.9306    1.5169 C   0  0  0  0  0  0  0  0  0  0  0  0
   -3.4544   -2.2753    2.2066 H   0  0  0  0  0  0  0  0  0  0  0  0
   -3.4732   -2.9962    0.5788 H   0  0  0  0  0  0  0  0  0  0  0  0
   -1.5276   -2.3802    1.2565 C   0  0  0  0  0  0  0  0  0  0  0  0
   -0.5438   -3.0541    1.5198 O   0  0  0  0  0  0  0  0  0  0  0  0
   -1.3837   -1.1143    0.7308 N   0  0  0  0  0  0  0  0  0  0  0  0
   -2.2259   -0.5548    0.6060 H   0  0  0  0  0  0  0  0  0  0  0  0
   -0.1010   -0.4357    0.5102 C   0  0  1  0  0  0  0  0  0  0  0  0
    0.6595   -0.9049    1.1422 H   0  0  0  0  0  0  0  0  0  0  0  0
    0.4220   -0.3835   -0.9668 C   0  0  1  0  0  0  0  0  0  0  0  0
    1.0745    0.4922   -1.0587 H   0  0  0  0  0  0  0  0  0  0  0  0
    1.3205   -1.6216   -1.1518 C   0  0  0  0  0  0  0  0  0  0  0  0
    0.7258   -2.5389   -1.0896 H   0  0  0  0  0  0  0  0  0  0  0  0
    1.8217   -1.5957   -2.1245 H   0  0  0  0  0  0  0  0  0  0  0  0
    2.0979   -1.6599   -0.3825 H   0  0  0  0  0  0  0  0  0  0  0  0
   -0.5557   -0.3479   -2.1920 C   0  0  0  0  0  0  0  0  0  0  0  0
   -0.5369    0.6797   -2.5697 H   0  0  0  0  0  0  0  0  0  0  0  0
   -0.1622   -0.9766   -2.9971 H   0  0  0  0  0  0  0  0  0  0  0  0
   -2.0333   -0.7047   -2.0201 C   0  0  0  0  0  0  0  0  0  0  0  0
   -2.5196   -0.0245   -1.3149 H   0  0  0  0  0  0  0  0  0  0  0  0
   -2.5468   -0.6108   -2.9816 H   0  0  0  0  0  0  0  0  0  0  0  0
   -2.1453   -1.7381   -1.6792 H   0  0  0  0  0  0  0  0  0  0  0  0
   -0.2392    1.0134    1.0215 C   0  0  0  0  0  0  0  0  0  0  0  0
   -1.2640    1.6505    0.8012 O   0  0  0  0  0  0  0  0  0  0  0  0
    0.7575    1.5821    1.7931 N   0  0  0  0  0  0  0  0  0  0  0  0
    1.5713    1.0123    2.0057 H   0  0  0  0  0  0  0  0  0  0  0  0
    0.6632    2.9201    2.3637 C   0  0  0  0  0  0  0  0  0  0  0  0
   -0.1980    2.9904    3.0364 H   0  0  0  0  0  0  0  0  0  0  0  0
    1.5674    3.1524    2.9345 H   0  0  0  0  0  0  0  0  0  0  0  0
    0.5535    3.6675    1.5709 H   0  0  0  0  0  0  0  0  0  0  0  0
  1  2  1  0  0  0  0
  2  3  1  0  0  0  0
  2  4  1  0  0  0  0
  2  5  1  0  0  0  0
  5  6  2  0  0  0  0
  5  7  1  0  0  0  0
  7  8  1  0  0  0  0
  7  9  1  0  0  0  0
  9 10  1  0  0  0  0
  9 11  1  0  0  0  0
  9 24  1  0  0  0  0
 11 12  1  0  0  0  0
 11 13  1  0  0  0  0
 11 17  1  0  0  0  0
 13 14  1  0  0  0  0
 13 15  1  0  0  0  0
 13 16  1  0  0  0  0
 17 18  1  0  0  0  0
 17 19  1  0  0  0  0
 17 20  1  0  0  0  0
 20 21  1  0  0  0  0
 20 22  1  0  0  0  0
 20 23  1  0  0  0  0
 24 25  2  0  0  0  0
 24 26  1  0  0  0  0
 26 27  1  0  0  0  0
 26 28  1  0  0  0  0
 28 29  1  0  0  0  0
 28 30  1  0  0  0  0
 28 31  1  0  0  0  0
M  END
$$$$

  -OEChem-03222214053D

 31 30  0     1  0  0  0  0  0999 V2000
   -2.8550   -3.9230    1.9235 H   0  0  0  0  0  0  0  0  0  0  0  0
   -2.9242   -2.9255    1.4809 C   0  0  0  0  0  0  0  0  0  0  0  0
   -3.4679   -2.2725    2.1678 H   0  0  0  0  0  0  0  0  0  0  0  0
   -3.4764   -2.9940    0.5406 H   0  0  0  0  0  0  0  0  0  0  0  0
   -1.5360   -2.3694    1.2264 C   0  0  0  0  0  0  0  0  0  0  0  0
   -0.5513   -3.0454    1.4807 O   0  0  0  0  0  0  0  0  0  0  0  0
   -1.3943   -1.0963    0.7175 N   0  0  0  0  0  0  0  0  0  0  0  0
   -2.2378   -0.5372    0.6006 H   0  0  0  0  0  0  0  0  0  0  0  0
   -0.1129   -0.4130    0.5023 C   0  0  1  0  0  0  0  0  0  0  0  0
    0.6460   -0.8915    1.1297 H   0  0  0  0  0  0  0  0  0  0  0  0
    0.4052   -0.3796   -0.9757 C   0  0  1  0  0  0  0  0  0  0  0  0
    1.0308    0.5148   -1.0742 H   0  0  0  0  0  0  0  0  0  0  0  0
    1.3435   -1.5872   -1.1569 C   0  0  0  0  0  0  0  0  0  0  0  0
    0.7843   -2.5241   -1.0625 H   0  0  0  0  0  0  0  0  0  0  0  0
    1.8189   -1.5618   -2.1428 H   0  0  0  0  0  0  0  0  0  0  0  0
    2.1384   -1.5806   -0.4047 H   0  0  0  0  0  0  0  0  0  0  0  0
   -0.5772   -0.3649   -2.1983 C   0  0  0  0  0  0  0  0  0  0  0  0
   -0.3558    0.5458   -2.7644 H   0  0  0  0  0  0  0  0  0  0  0  0
   -0.3510   -1.2045   -2.8641 H   0  0  0  0  0  0  0  0  0  0  0  0
   -2.0918   -0.3813   -1.9747 C   0  0  0  0  0  0  0  0  0  0  0  0
   -2.3950    0.4102   -1.2837 H   0  0  0  0  0  0  0  0  0  0  0  0
   -2.6039   -0.2109   -2.9265 H   0  0  0  0  0  0  0  0  0  0  0  0
   -2.4192   -1.3521   -1.5932 H   0  0  0  0  0  0  0  0  0  0  0  0
   -0.2324    1.0332    1.0283 C   0  0  0  0  0  0  0  0  0  0  0  0
   -1.2572    1.6794    0.8382 O   0  0  0  0  0  0  0  0  0  0  0  0
    0.7763    1.5831    1.7983 N   0  0  0  0  0  0  0  0  0  0  0  0
    1.5865    1.0032    1.9973 H   0  0  0  0  0  0  0  0  0  0  0  0
    0.6919    2.9087    2.3991 C   0  0  0  0  0  0  0  0  0  0  0  0
   -0.1601    2.9646    3.0849 H   0  0  0  0  0  0  0  0  0  0  0  0
    1.6040    3.1281    2.9623 H   0  0  0  0  0  0  0  0  0  0  0  0
    0.5720    3.6735    1.6246 H   0  0  0  0  0  0  0  0  0  0  0  0
  1  2  1  0  0  0  0
  2  3  1  0  0  0  0
  2  4  1  0  0  0  0
  2  5  1  0  0  0  0
  5  6  2  0  0  0  0
  5  7  1  0  0  0  0
  7  8  1  0  0  0  0
  7  9  1  0  0  0  0
  9 10  1  0  0  0  0
  9 11  1  0  0  0  0
  9 24  1  0  0  0  0
 11 12  1  0  0  0  0
 11 13  1  0  0  0  0
 11 17  1  0  0  0  0
 13 14  1  0  0  0  0
 13 15  1  0  0  0  0
 13 16  1  0  0  0  0
 17 18  1  0  0  0  0
 17 19  1  0  0  0  0
 17 20  1  0  0  0  0
 20 21  1  0  0  0  0
 20 22  1  0  0  0  0
 20 23  1  0  0  0  0
 24 25  2  0  0  0  0
 24 26  1  0  0  0  0
 26 27  1  0  0  0  0
 26 28  1  0  0  0  0
 28 29  1  0  0  0  0
 28 30  1  0  0  0  0
 28 31  1  0  0  0  0
M  END
$$$$

  -OEChem-03222214053D

 31 30  0     1  0  0  0  0  0999 V2000
   -2.8791   -3.9163    1.8369 H   0  0  0  0  0  0  0  0  0  0  0  0
   -2.9428   -2.9093    1.4155 C   0  0  0  0  0  0  0  0  0  0  0  0
   -3.4876   -2.2692    2.1136 H   0  0  0  0  0  0  0  0  0  0  0  0
   -3.4903   -2.9561    0.4711 H   0  0  0  0  0  0  0  0  0  0  0  0
   -1.5520   -2.3515    1.1791 C   0  0  0  0  0  0  0  0  0  0  0  0
   -0.5698   -3.0323    1.4305 O   0  0  0  0  0  0  0  0  0  0  0  0
   -1.4067   -1.0710    0.6900 N   0  0  0  0  0  0  0  0  0  0  0  0
   -2.2497   -0.5103    0.5772 H   0  0  0  0  0  0  0  0  0  0  0  0
   -0.1254   -0.3828    0.4915 C   0  0  1  0  0  0  0  0  0  0  0  0
    0.6265   -0.8702    1.1205 H   0  0  0  0  0  0  0  0  0  0  0  0
    0.3970   -0.3792   -0.9826 C   0  0  1  0  0  0  0  0  0  0  0  0
    0.9943    0.5328   -1.0944 H   0  0  0  0  0  0  0  0  0  0  0  0
    1.3664   -1.5610   -1.1547 C   0  0  0  0  0  0  0  0  0  0  0  0
    0.8423   -2.5120   -1.0138 H   0  0  0  0  0  0  0  0  0  0  0  0
    1.8088   -1.5519   -2.1560 H   0  0  0  0  0  0  0  0  0  0  0  0
    2.1812   -1.5032   -0.4264 H   0  0  0  0  0  0  0  0  0  0  0  0
   -0.5888   -0.3949   -2.1978 C   0  0  0  0  0  0  0  0  0  0  0  0
   -0.1992    0.3147   -2.9351 H   0  0  0  0  0  0  0  0  0  0  0  0
   -0.5639   -1.3829   -2.6696 H   0  0  0  0  0  0  0  0  0  0  0  0
   -2.0695   -0.0640   -1.9787 C   0  0  0  0  0  0  0  0  0  0  0  0
   -2.1839    0.8420   -1.3789 H   0  0  0  0  0  0  0  0  0  0  0  0
   -2.5502    0.1101   -2.9461 H   0  0  0  0  0  0  0  0  0  0  0  0
   -2.5966   -0.8922   -1.4994 H   0  0  0  0  0  0  0  0  0  0  0  0
   -0.2269    1.0601    1.0319 C   0  0  0  0  0  0  0  0  0  0  0  0
   -1.2543    1.7116    0.8810 O   0  0  0  0  0  0  0  0  0  0  0  0
    0.7907    1.5865    1.8068 N   0  0  0  0  0  0  0  0  0  0  0  0
    1.6018    0.9998    1.9808 H   0  0  0  0  0  0  0  0  0  0  0  0
    0.7181    2.8975    2.4406 C   0  0  0  0  0  0  0  0  0  0  0  0
   -0.1292    2.9418    3.1331 H   0  0  0  0  0  0  0  0  0  0  0  0
    1.6350    3.0976    3.0033 H   0  0  0  0  0  0  0  0  0  0  0  0
    0.5980    3.6816    1.6856 H   0  0  0  0  0  0  0  0  0  0  0  0
  1  2  1  0  0  0  0
  2  3  1  0  0  0  0
  2  4  1  0  0  0  0
  2  5  1  0  0  0  0
  5  6  2  0  0  0  0
  5  7  1  0  0  0  0
  7  8  1  0  0  0  0
  7  9  1  0  0  0  0
  9 10  1  0  0  0  0
  9 11  1  0  0  0  0
  9 24  1  0  0  0  0
 11 12  1  0  0  0  0
 11 13  1  0  0  0  0
 11 17  1  0  0  0  0
 13 14  1  0  0  0  0
 13 15  1  0  0  0  0
 13 16  1  0  0  0  0
 17 18  1  0  0  0  0
 17 19  1  0  0  0  0
 17 20  1  0  0  0  0
 20 21  1  0  0  0  0
 20 22  1  0  0  0  0
 20 23  1  0  0  0  0
 24 25  2  0  0  0  0
 24 26  1  0  0  0  0
 26 27  1  0  0  0  0
 26 28  1  0  0  0  0
 28 29  1  0  0  0  0
 28 30  1  0  0  0  0
 28 31  1  0  0  0  0
M  END
$$$$

  -OEChem-03222214053D

 31 30  0     1  0  0  0  0  0999 V2000
   -2.8982   -3.9090    1.7572 H   0  0  0  0  0  0  0  0  0  0  0  0
   -2.9553   -2.8937    1.3550 C   0  0  0  0  0  0  0  0  0  0  0  0
   -3.4969   -2.2636    2.0647 H   0  0  0  0  0  0  0  0  0  0  0  0
   -3.5023   -2.9192    0.4094 H   0  0  0  0  0  0  0  0  0  0  0  0
   -1.5609   -2.3401    1.1309 C   0  0  0  0  0  0  0  0  0  0  0  0
   -0.5835   -3.0271    1.3839 O   0  0  0  0  0  0  0  0  0  0  0  0
   -1.4071   -1.0571    0.6512 N   0  0  0  0  0  0  0  0  0  0  0  0
   -2.2464   -0.4891    0.5487 H   0  0  0  0  0  0  0  0  0  0  0  0
   -0.1211   -0.3698    0.4763 C   0  0  1  0  0  0  0  0  0  0  0  0
    0.6215   -0.8630    1.1118 H   0  0  0  0  0  0  0  0  0  0  0  0
    0.4094   -0.3825   -0.9920 C   0  0  1  0  0  0  0  0  0  0  0  0
    1.0050    0.5291   -1.1132 H   0  0  0  0  0  0  0  0  0  0  0  0
    1.3698   -1.5701   -1.1670 C   0  0  0  0  0  0  0  0  0  0  0  0
    0.8423   -2.5180   -1.0184 H   0  0  0  0  0  0  0  0  0  0  0  0
    1.8028   -1.5676   -2.1723 H   0  0  0  0  0  0  0  0  0  0  0  0
    2.1905   -1.5143   -0.4455 H   0  0  0  0  0  0  0  0  0  0  0  0
   -0.5884   -0.4067   -2.1896 C   0  0  0  0  0  0  0  0  0  0  0  0
   -0.0896    0.0596   -3.0455 H   0  0  0  0  0  0  0  0  0  0  0  0
   -0.7869   -1.4485   -2.4627 H   0  0  0  0  0  0  0  0  0  0  0  0
   -1.9567    0.2640   -2.0145 C   0  0  0  0  0  0  0  0  0  0  0  0
   -1.8406    1.2737   -1.6121 H   0  0  0  0  0  0  0  0  0  0  0  0
   -2.4470    0.3448   -2.9893 H   0  0  0  0  0  0  0  0  0  0  0  0
   -2.6200   -0.3113   -1.3669 H   0  0  0  0  0  0  0  0  0  0  0  0
   -0.2208    1.0719    1.0212 C   0  0  0  0  0  0  0  0  0  0  0  0
   -1.2516    1.7204    0.8813 O   0  0  0  0  0  0  0  0  0  0  0  0
    0.7893    1.5893    1.8118 N   0  0  0  0  0  0  0  0  0  0  0  0
    1.6000    1.0019    1.9847 H   0  0  0  0  0  0  0  0  0  0  0  0
    0.7093    2.8916    2.4627 C   0  0  0  0  0  0  0  0  0  0  0  0
   -0.1383    2.9219    3.1554 H   0  0  0  0  0  0  0  0  0  0  0  0
    1.6250    3.0896    3.0281 H   0  0  0  0  0  0  0  0  0  0  0  0
    0.5849    3.6851    1.7183 H   0  0  0  0  0  0  0  0  0  0  0  0
  1  2  1  0  0  0  0
  2  3  1  0  0  0  0
  2  4  1  0  0  0  0
  2  5  1  0  0  0  0
  5  6  2  0  0  0  0
  5  7  1  0  0  0  0
  7  8  1  0  0  0  0
  7  9  1  0  0  0  0
  9 10  1  0  0  0  0
  9 11  1  0  0  0  0
  9 24  1  0  0  0  0
 11 12  1  0  0  0  0
 11 13  1  0  0  0  0
 11 17  1  0  0  0  0
 13 14  1  0  0  0  0
 13 15  1  0  0  0  0
 13 16  1  0  0  0  0
 17 18  1  0  0  0  0
 17 19  1  0  0  0  0
 17 20  1  0  0  0  0
 20 21  1  0  0  0  0
 20 22  1  0  0  0  0
 20 23  1  0  0  0  0
 24 25  2  0  0  0  0
 24 26  1  0  0  0  0
 26 27  1  0  0  0  0
 26 28  1  0  0  0  0
 28 29  1  0  0  0  0
 28 30  1  0  0  0  0
 28 31  1  0  0  0  0
M  END
$$$$

  -OEChem-03222214053D

 31 30  0     1  0  0  0  0  0999 V2000
   -2.9028   -3.9068    1.6917 H   0  0  0  0  0  0  0  0  0  0  0  0
   -2.9557   -2.8931    1.2851 C   0  0  0  0  0  0  0  0  0  0  0  0
   -3.5142   -2.2628    1.9815 H   0  0  0  0  0  0  0  0  0  0  0  0
   -3.4827   -2.9238    0.3285 H   0  0  0  0  0  0  0  0  0  0  0  0
   -1.5592   -2.3348    1.0881 C   0  0  0  0  0  0  0  0  0  0  0  0
   -0.5845   -3.0153    1.3675 O   0  0  0  0  0  0  0  0  0  0  0  0
   -1.4008   -1.0524    0.6086 N   0  0  0  0  0  0  0  0  0  0  0  0
   -2.2406   -0.4893    0.4865 H   0  0  0  0  0  0  0  0  0  0  0  0
   -0.1130   -0.3588    0.4594 C   0  0  1  0  0  0  0  0  0  0  0  0
    0.6224   -0.8493    1.1055 H   0  0  0  0  0  0  0  0  0  0  0  0
    0.4275   -0.3858   -1.0026 C   0  0  1  0  0  0  0  0  0  0  0  0
    1.0292    0.5190   -1.1419 H   0  0  0  0  0  0  0  0  0  0  0  0
    1.3690   -1.5881   -1.1735 C   0  0  0  0  0  0  0  0  0  0  0  0
    0.8273   -2.5278   -1.0258 H   0  0  0  0  0  0  0  0  0  0  0  0
    1.8050   -1.5934   -2.1774 H   0  0  0  0  0  0  0  0  0  0  0  0
    2.1879   -1.5431   -0.4491 H   0  0  0  0  0  0  0  0  0  0  0  0
   -0.6003   -0.4248   -2.1662 C   0  0  0  0  0  0  0  0  0  0  0  0
   -0.0692   -0.2103   -3.0994 H   0  0  0  0  0  0  0  0  0  0  0  0
   -1.0079   -1.4380   -2.2481 H   0  0  0  0  0  0  0  0  0  0  0  0
   -1.7860    0.5418   -2.0566 C   0  0  0  0  0  0  0  0  0  0  0  0
   -1.4279    1.5623   -1.8907 H   0  0  0  0  0  0  0  0  0  0  0  0
   -2.3573    0.5279   -2.9896 H   0  0  0  0  0  0  0  0  0  0  0  0
   -2.4678    0.2716   -1.2489 H   0  0  0  0  0  0  0  0  0  0  0  0
   -0.2195    1.0851    0.9956 C   0  0  0  0  0  0  0  0  0  0  0  0
   -1.2450    1.7367    0.8326 O   0  0  0  0  0  0  0  0  0  0  0  0
    0.7778    1.6018    1.8028 N   0  0  0  0  0  0  0  0  0  0  0  0
    1.5820    1.0113    1.9943 H   0  0  0  0  0  0  0  0  0  0  0  0
    0.6931    2.9087    2.4435 C   0  0  0  0  0  0  0  0  0  0  0  0
   -0.1704    2.9508    3.1158 H   0  0  0  0  0  0  0  0  0  0  0  0
    1.5969    3.1027    3.0292 H   0  0  0  0  0  0  0  0  0  0  0  0
    0.5934    3.6980    1.6910 H   0  0  0  0  0  0  0  0  0  0  0  0
  1  2  1  0  0  0  0
  2  3  1  0  0  0  0
  2  4  1  0  0  0  0
  2  5  1  0  0  0  0
  5  6  2  0  0  0  0
  5  7  1  0  0  0  0
  7  8  1  0  0  0  0
  7  9  1  0  0  0  0
  9 10  1  0  0  0  0
  9 11  1  0  0  0  0
  9 24  1  0  0  0  0
 11 12  1  0  0  0  0
 11 13  1  0  0  0  0
 11 17  1  0  0  0  0
 13 14  1  0  0  0  0
 13 15  1  0  0  0  0
 13 16  1  0  0  0  0
 17 18  1  0  0  0  0
 17 19  1  0  0  0  0
 17 20  1  0  0  0  0
 20 21  1  0  0  0  0
 20 22  1  0  0  0  0
 20 23  1  0  0  0  0
 24 25  2  0  0  0  0
 24 26  1  0  0  0  0
 26 27  1  0  0  0  0
 26 28  1  0  0  0  0
 28 29  1  0  0  0  0
 28 30  1  0  0  0  0
 28 31  1  0  0  0  0
M  END
$$$$

  -OEChem-03222214053D

 31 30  0     1  0  0  0  0  0999 V2000
   -2.9054   -3.9058    1.6427 H   0  0  0  0  0  0  0  0  0  0  0  0
   -2.9592   -2.8921    1.2360 C   0  0  0  0  0  0  0  0  0  0  0  0
   -3.5304   -2.2657    1.9255 H   0  0  0  0  0  0  0  0  0  0  0  0
   -3.4742   -2.9257    0.2729 H   0  0  0  0  0  0  0  0  0  0  0  0
   -1.5634   -2.3255    1.0576 C   0  0  0  0  0  0  0  0  0  0  0  0
   -0.5890   -2.9998    1.3527 O   0  0  0  0  0  0  0  0  0  0  0  0
   -1.4056   -1.0427    0.5779 N   0  0  0  0  0  0  0  0  0  0  0  0
   -2.2472   -0.4866    0.4375 H   0  0  0  0  0  0  0  0  0  0  0  0
   -0.1191   -0.3413    0.4412 C   0  0  1  0  0  0  0  0  0  0  0  0
    0.6080   -0.8281    1.0990 H   0  0  0  0  0  0  0  0  0  0  0  0
    0.4400   -0.3846   -1.0126 C   0  0  1  0  0  0  0  0  0  0  0  0
    1.0501    0.5118   -1.1699 H   0  0  0  0  0  0  0  0  0  0  0  0
    1.3654   -1.6018   -1.1638 C   0  0  0  0  0  0  0  0  0  0  0  0
    0.8067   -2.5324   -1.0225 H   0  0  0  0  0  0  0  0  0  0  0  0
    1.8179   -1.6179   -2.1601 H   0  0  0  0  0  0  0  0  0  0  0  0
    2.1730   -1.5667   -0.4263 H   0  0  0  0  0  0  0  0  0  0  0  0
   -0.6096   -0.4490   -2.1499 C   0  0  0  0  0  0  0  0  0  0  0  0
   -0.0792   -0.4762   -3.1073 H   0  0  0  0  0  0  0  0  0  0  0  0
   -1.1887   -1.3751   -2.0743 H   0  0  0  0  0  0  0  0  0  0  0  0
   -1.5714    0.7403   -2.1832 C   0  0  0  0  0  0  0  0  0  0  0  0
   -1.0176    1.6835   -2.1467 H   0  0  0  0  0  0  0  0  0  0  0  0
   -2.1568    0.7186   -3.1071 H   0  0  0  0  0  0  0  0  0  0  0  0
   -2.2691    0.7063   -1.3432 H   0  0  0  0  0  0  0  0  0  0  0  0
   -0.2220    1.1059    0.9703 C   0  0  0  0  0  0  0  0  0  0  0  0
   -1.2448    1.7611    0.8080 O   0  0  0  0  0  0  0  0  0  0  0  0
    0.7740    1.6186    1.7816 N   0  0  0  0  0  0  0  0  0  0  0  0
    1.5737    1.0235    1.9778 H   0  0  0  0  0  0  0  0  0  0  0  0
    0.6907    2.9236    2.4264 C   0  0  0  0  0  0  0  0  0  0  0  0
   -0.1649    2.9607    3.1089 H   0  0  0  0  0  0  0  0  0  0  0  0
    1.6005    3.1198    3.0018 H   0  0  0  0  0  0  0  0  0  0  0  0
    0.5787    3.7146    1.6773 H   0  0  0  0  0  0  0  0  0  0  0  0
  1  2  1  0  0  0  0
  2  3  1  0  0  0  0
  2  4  1  0  0  0  0
  2  5  1  0  0  0  0
  5  6  2  0  0  0  0
  5  7  1  0  0  0  0
  7  8  1  0  0  0  0
  7  9  1  0  0  0  0
  9 10  1  0  0  0  0
  9 11  1  0  0  0  0
  9 24  1  0  0  0  0
 11 12  1  0  0  0  0
 11 13  1  0  0  0  0
 11 17  1  0  0  0  0
 13 14  1  0  0  0  0
 13 15  1  0  0  0  0
 13 16  1  0  0  0  0
 17 18  1  0  0  0  0
 17 19  1  0  0  0  0
 17 20  1  0  0  0  0
 20 21  1  0  0  0  0
 20 22  1  0  0  0  0
 20 23  1  0  0  0  0
 24 25  2  0  0  0  0
 24 26  1  0  0  0  0
 26 27  1  0  0  0  0
 26 28  1  0  0  0  0
 28 29  1  0  0  0  0
 28 30  1  0  0  0  0
 28 31  1  0  0  0  0
M  END
$$$$

  -OEChem-03222214053D

 31 30  0     1  0  0  0  0  0999 V2000
   -2.9034   -3.9079    1.6499 H   0  0  0  0  0  0  0  0  0  0  0  0
   -2.9579   -2.8963    1.2377 C   0  0  0  0  0  0  0  0  0  0  0  0
   -3.5310   -2.2671    1.9231 H   0  0  0  0  0  0  0  0  0  0  0  0
   -3.4714   -2.9353    0.2739 H   0  0  0  0  0  0  0  0  0  0  0  0
   -1.5626   -2.3288    1.0576 C   0  0  0  0  0  0  0  0  0  0  0  0
   -0.5878   -3.0020    1.3538 O   0  0  0  0  0  0  0  0  0  0  0  0
   -1.4054   -1.0478    0.5727 N   0  0  0  0  0  0  0  0  0  0  0  0
   -2.2470   -0.4911    0.4338 H   0  0  0  0  0  0  0  0  0  0  0  0
   -0.1192   -0.3472    0.4315 C   0  0  1  0  0  0  0  0  0  0  0  0
    0.6083   -0.8301    1.0915 H   0  0  0  0  0  0  0  0  0  0  0  0
    0.4454   -0.3831   -1.0218 C   0  0  1  0  0  0  0  0  0  0  0  0
    1.0729    0.5016   -1.1776 H   0  0  0  0  0  0  0  0  0  0  0  0
    1.3522   -1.6164   -1.1671 C   0  0  0  0  0  0  0  0  0  0  0  0
    0.7731   -2.5376   -1.0473 H   0  0  0  0  0  0  0  0  0  0  0  0
    1.8265   -1.6315   -2.1533 H   0  0  0  0  0  0  0  0  0  0  0  0
    2.1454   -1.6047   -0.4133 H   0  0  0  0  0  0  0  0  0  0  0  0
   -0.6110   -0.4440   -2.1549 C   0  0  0  0  0  0  0  0  0  0  0  0
   -0.1031   -0.7041   -3.0894 H   0  0  0  0  0  0  0  0  0  0  0  0
   -1.3479   -1.2305   -1.9677 H   0  0  0  0  0  0  0  0  0  0  0  0
   -1.3186    0.8910   -2.3886 C   0  0  0  0  0  0  0  0  0  0  0  0
   -0.5930    1.7047   -2.4842 H   0  0  0  0  0  0  0  0  0  0  0  0
   -1.9086    0.8433   -3.3088 H   0  0  0  0  0  0  0  0  0  0  0  0
   -1.9988    1.1176   -1.5644 H   0  0  0  0  0  0  0  0  0  0  0  0
   -0.2292    1.1003    0.9569 C   0  0  0  0  0  0  0  0  0  0  0  0
   -1.2576    1.7474    0.7971 O   0  0  0  0  0  0  0  0  0  0  0  0
    0.7640    1.6200    1.7672 N   0  0  0  0  0  0  0  0  0  0  0  0
    1.5687    1.0310    1.9611 H   0  0  0  0  0  0  0  0  0  0  0  0
    0.6769    2.9277    2.4059 C   0  0  0  0  0  0  0  0  0  0  0  0
   -0.1861    2.9693    3.0786 H   0  0  0  0  0  0  0  0  0  0  0  0
    1.5808    3.1242    2.9906 H   0  0  0  0  0  0  0  0  0  0  0  0
    0.5752    3.7157    1.6524 H   0  0  0  0  0  0  0  0  0  0  0  0
  1  2  1  0  0  0  0
  2  3  1  0  0  0  0
  2  4  1  0  0  0  0
  2  5  1  0  0  0  0
  5  6  2  0  0  0  0
  5  7  1  0  0  0  0
  7  8  1  0  0  0  0
  7  9  1  0  0  0  0
  9 10  1  0  0  0  0
  9 11  1  0  0  0  0
  9 24  1  0  0  0  0
 11 12  1  0  0  0  0
 11 13  1  0  0  0  0
 11 17  1  0  0  0  0
 13 14  1  0  0  0  0
 13 15  1  0  0  0  0
 13 16  1  0  0  0  0
 17 18  1  0  0  0  0
 17 19  1  0  0  0  0
 17 20  1  0  0  0  0
 20 21  1  0  0  0  0
 20 22  1  0  0  0  0
 20 23  1  0  0  0  0
 24 25  2  0  0  0  0
 24 26  1  0  0  0  0
 26 27  1  0  0  0  0
 26 28  1  0  0  0  0
 28 29  1  0  0  0  0
 28 30  1  0  0  0  0
 28 31  1  0  0  0  0
M  END
$$$$

  -OEChem-03222214053D

 31 30  0     1  0  0  0  0  0999 V2000
   -2.9037   -3.9026    1.6948 H   0  0  0  0  0  0  0  0  0  0  0  0
   -2.9572   -2.8934    1.2771 C   0  0  0  0  0  0  0  0  0  0  0  0
   -3.5108   -2.2543    1.9693 H   0  0  0  0  0  0  0  0  0  0  0  0
   -3.4894   -2.9340    0.3237 H   0  0  0  0  0  0  0  0  0  0  0  0
   -1.5606   -2.3402    1.0665 C   0  0  0  0  0  0  0  0  0  0  0  0
   -0.5863   -3.0179    1.3542 O   0  0  0  0  0  0  0  0  0  0  0  0
   -1.4002   -1.0649    0.5677 N   0  0  0  0  0  0  0  0  0  0  0  0
   -2.2384   -0.4991    0.4432 H   0  0  0  0  0  0  0  0  0  0  0  0
   -0.1101   -0.3732    0.4197 C   0  0  1  0  0  0  0  0  0  0  0  0
    0.6199   -0.8512    1.0807 H   0  0  0  0  0  0  0  0  0  0  0  0
    0.4537   -0.3904   -1.0356 C   0  0  1  0  0  0  0  0  0  0  0  0
    1.1001    0.4830   -1.1768 H   0  0  0  0  0  0  0  0  0  0  0  0
    1.3427   -1.6369   -1.1862 C   0  0  0  0  0  0  0  0  0  0  0  0
    0.7473   -2.5501   -1.0863 H   0  0  0  0  0  0  0  0  0  0  0  0
    1.8301   -1.6458   -2.1661 H   0  0  0  0  0  0  0  0  0  0  0  0
    2.1267   -1.6488   -0.4229 H   0  0  0  0  0  0  0  0  0  0  0  0
   -0.6038   -0.4259   -2.1740 C   0  0  0  0  0  0  0  0  0  0  0  0
   -0.1727   -0.9197   -3.0511 H   0  0  0  0  0  0  0  0  0  0  0  0
   -1.4874   -1.0061   -1.8974 H   0  0  0  0  0  0  0  0  0  0  0  0
   -1.0174    0.9787   -2.6163 C   0  0  0  0  0  0  0  0  0  0  0  0
   -0.1417    1.5632   -2.9147 H   0  0  0  0  0  0  0  0  0  0  0  0
   -1.6980    0.9152   -3.4706 H   0  0  0  0  0  0  0  0  0  0  0  0
   -1.5327    1.5049   -1.8094 H   0  0  0  0  0  0  0  0  0  0  0  0
   -0.2400    1.0749    0.9361 C   0  0  0  0  0  0  0  0  0  0  0  0
   -1.2759    1.7063    0.7586 O   0  0  0  0  0  0  0  0  0  0  0  0
    0.7401    1.6132    1.7498 N   0  0  0  0  0  0  0  0  0  0  0  0
    1.5508    1.0362    1.9547 H   0  0  0  0  0  0  0  0  0  0  0  0
    0.6272    2.9220    2.3816 C   0  0  0  0  0  0  0  0  0  0  0  0
   -0.2310    2.9469    3.0612 H   0  0  0  0  0  0  0  0  0  0  0  0
    1.5310    3.1432    2.9574 H   0  0  0  0  0  0  0  0  0  0  0  0
    0.5004    3.7033    1.6249 H   0  0  0  0  0  0  0  0  0  0  0  0
  1  2  1  0  0  0  0
  2  3  1  0  0  0  0
  2  4  1  0  0  0  0
  2  5  1  0  0  0  0
  5  6  2  0  0  0  0
  5  7  1  0  0  0  0
  7  8  1  0  0  0  0
  7  9  1  0  0  0  0
  9 10  1  0  0  0  0
  9 11  1  0  0  0  0
  9 24  1  0  0  0  0
 11 12  1  0  0  0  0
 11 13  1  0  0  0  0
 11 17  1  0  0  0  0
 13 14  1  0  0  0  0
 13 15  1  0  0  0  0
 13 16  1  0  0  0  0
 17 18  1  0  0  0  0
 17 19  1  0  0  0  0
 17 20  1  0  0  0  0
 20 21  1  0  0  0  0
 20 22  1  0  0  0  0
 20 23  1  0  0  0  0
 24 25  2  0  0  0  0
 24 26  1  0  0  0  0
 26 27  1  0  0  0  0
 26 28  1  0  0  0  0
 28 29  1  0  0  0  0
 28 30  1  0  0  0  0
 28 31  1  0  0  0  0
M  END
$$$$

  -OEChem-03222214053D

 31 30  0     1  0  0  0  0  0999 V2000
   -2.9102   -3.9166    1.7262 H   0  0  0  0  0  0  0  0  0  0  0  0
   -2.9609   -2.9143    1.2923 C   0  0  0  0  0  0  0  0  0  0  0  0
   -3.5234   -2.2664    1.9689 H   0  0  0  0  0  0  0  0  0  0  0  0
   -3.4830   -2.9712    0.3342 H   0  0  0  0  0  0  0  0  0  0  0  0
   -1.5626   -2.3623    1.0883 C   0  0  0  0  0  0  0  0  0  0  0  0
   -0.5907   -3.0361    1.3929 O   0  0  0  0  0  0  0  0  0  0  0  0
   -1.3961   -1.0942    0.5735 N   0  0  0  0  0  0  0  0  0  0  0  0
   -2.2319   -0.5289    0.4318 H   0  0  0  0  0  0  0  0  0  0  0  0
   -0.1018   -0.4095    0.4252 C   0  0  1  0  0  0  0  0  0  0  0  0
    0.6331   -0.8837    1.0834 H   0  0  0  0  0  0  0  0  0  0  0  0
    0.4535   -0.4015   -1.0326 C   0  0  1  0  0  0  0  0  0  0  0  0
    1.1080    0.4690   -1.1549 H   0  0  0  0  0  0  0  0  0  0  0  0
    1.3373   -1.6483   -1.2078 C   0  0  0  0  0  0  0  0  0  0  0  0
    0.7420   -2.5612   -1.1034 H   0  0  0  0  0  0  0  0  0  0  0  0
    1.8067   -1.6495   -2.1966 H   0  0  0  0  0  0  0  0  0  0  0  0
    2.1347   -1.6666   -0.4585 H   0  0  0  0  0  0  0  0  0  0  0  0
   -0.6129   -0.4045   -2.1670 C   0  0  0  0  0  0  0  0  0  0  0  0
   -0.3267   -1.1126   -2.9514 H   0  0  0  0  0  0  0  0  0  0  0  0
   -1.5984   -0.7154   -1.8158 H   0  0  0  0  0  0  0  0  0  0  0  0
   -0.7274    0.9778   -2.8118 C   0  0  0  0  0  0  0  0  0  0  0  0
    0.2314    1.2821   -3.2429 H   0  0  0  0  0  0  0  0  0  0  0  0
   -1.4750    0.9584   -3.6104 H   0  0  0  0  0  0  0  0  0  0  0  0
   -1.0322    1.7232   -2.0711 H   0  0  0  0  0  0  0  0  0  0  0  0
   -0.2473    1.0424    0.9255 C   0  0  0  0  0  0  0  0  0  0  0  0
   -1.2656    1.6805    0.6805 O   0  0  0  0  0  0  0  0  0  0  0  0
    0.7173    1.5998    1.7445 N   0  0  0  0  0  0  0  0  0  0  0  0
    1.5220    1.0271    1.9821 H   0  0  0  0  0  0  0  0  0  0  0  0
    0.6059    2.9349    2.3187 C   0  0  0  0  0  0  0  0  0  0  0  0
   -0.2838    3.0069    2.9533 H   0  0  0  0  0  0  0  0  0  0  0  0
    1.4854    3.1580    2.9302 H   0  0  0  0  0  0  0  0  0  0  0  0
    0.5358    3.6876    1.5264 H   0  0  0  0  0  0  0  0  0  0  0  0
  1  2  1  0  0  0  0
  2  3  1  0  0  0  0
  2  4  1  0  0  0  0
  2  5  1  0  0  0  0
  5  6  2  0  0  0  0
  5  7  1  0  0  0  0
  7  8  1  0  0  0  0
  7  9  1  0  0  0  0
  9 10  1  0  0  0  0
  9 11  1  0  0  0  0
  9 24  1  0  0  0  0
 11 12  1  0  0  0  0
 11 13  1  0  0  0  0
 11 17  1  0  0  0  0
 13 14  1  0  0  0  0
 13 15  1  0  0  0  0
 13 16  1  0  0  0  0
 17 18  1  0  0  0  0
 17 19  1  0  0  0  0
 17 20  1  0  0  0  0
 20 21  1  0  0  0  0
 20 22  1  0  0  0  0
 20 23  1  0  0  0  0
 24 25  2  0  0  0  0
 24 26  1  0  0  0  0
 26 27  1  0  0  0  0
 26 28  1  0  0  0  0
 28 29  1  0  0  0  0
 28 30  1  0  0  0  0
 28 31  1  0  0  0  0
M  END
$$$$

  -OEChem-03222214053D

 31 30  0     1  0  0  0  0  0999 V2000
   -2.9245   -3.9172    1.7222 H   0  0  0  0  0  0  0  0  0  0  0  0
   -2.9680   -2.9150    1.2867 C   0  0  0  0  0  0  0  0  0  0  0  0
   -3.5333   -2.2636    1.9575 H   0  0  0  0  0  0  0  0  0  0  0  0
   -3.4827   -2.9708    0.3244 H   0  0  0  0  0  0  0  0  0  0  0  0
   -1.5666   -2.3677    1.0927 C   0  0  0  0  0  0  0  0  0  0  0  0
   -0.5989   -3.0414    1.4100 O   0  0  0  0  0  0  0  0  0  0  0  0
   -1.3932   -1.1028    0.5728 N   0  0  0  0  0  0  0  0  0  0  0  0
   -2.2268   -0.5379    0.4177 H   0  0  0  0  0  0  0  0  0  0  0  0
   -0.0954   -0.4227    0.4307 C   0  0  1  0  0  0  0  0  0  0  0  0
    0.6407   -0.8985    1.0870 H   0  0  0  0  0  0  0  0  0  0  0  0
    0.4515   -0.4132   -1.0282 C   0  0  1  0  0  0  0  0  0  0  0  0
    1.0969    0.4650   -1.1442 H   0  0  0  0  0  0  0  0  0  0  0  0
    1.3446   -1.6492   -1.2223 C   0  0  0  0  0  0  0  0  0  0  0  0
    0.7641   -2.5687   -1.0940 H   0  0  0  0  0  0  0  0  0  0  0  0
    1.7830   -1.6507   -2.2252 H   0  0  0  0  0  0  0  0  0  0  0  0
    2.1627   -1.6521   -0.4955 H   0  0  0  0  0  0  0  0  0  0  0  0
   -0.6275   -0.4052   -2.1505 C   0  0  0  0  0  0  0  0  0  0  0  0
   -0.5420   -1.2982   -2.7783 H   0  0  0  0  0  0  0  0  0  0  0  0
   -1.6410   -0.3991   -1.7440 H   0  0  0  0  0  0  0  0  0  0  0  0
   -0.4848    0.8389   -3.0282 C   0  0  0  0  0  0  0  0  0  0  0  0
    0.5019    0.8645   -3.5012 H   0  0  0  0  0  0  0  0  0  0  0  0
   -1.2463    0.8340   -3.8139 H   0  0  0  0  0  0  0  0  0  0  0  0
   -0.6121    1.7457   -2.4280 H   0  0  0  0  0  0  0  0  0  0  0  0
   -0.2426    1.0317    0.9231 C   0  0  0  0  0  0  0  0  0  0  0  0
   -1.2473    1.6770    0.6430 O   0  0  0  0  0  0  0  0  0  0  0  0
    0.7148    1.5936    1.7474 N   0  0  0  0  0  0  0  0  0  0  0  0
    1.5110    1.0177    2.0054 H   0  0  0  0  0  0  0  0  0  0  0  0
    0.6086    2.9398    2.2965 C   0  0  0  0  0  0  0  0  0  0  0  0
   -0.2881    3.0306    2.9185 H   0  0  0  0  0  0  0  0  0  0  0  0
    1.4826    3.1660    2.9149 H   0  0  0  0  0  0  0  0  0  0  0  0
    0.5552    3.6793    1.4906 H   0  0  0  0  0  0  0  0  0  0  0  0
  1  2  1  0  0  0  0
  2  3  1  0  0  0  0
  2  4  1  0  0  0  0
  2  5  1  0  0  0  0
  5  6  2  0  0  0  0
  5  7  1  0  0  0  0
  7  8  1  0  0  0  0
  7  9  1  0  0  0  0
  9 10  1  0  0  0  0
  9 11  1  0  0  0  0
  9 24  1  0  0  0  0
 11 12  1  0  0  0  0
 11 13  1  0  0  0  0
 11 17  1  0  0  0  0
 13 14  1  0  0  0  0
 13 15  1  0  0  0  0
 13 16  1  0  0  0  0
 17 18  1  0  0  0  0
 17 19  1  0  0  0  0
 17 20  1  0  0  0  0
 20 21  1  0  0  0  0
 20 22  1  0  0  0  0
 20 23  1  0  0  0  0
 24 25  2  0  0  0  0
 24 26  1  0  0  0  0
 26 27  1  0  0  0  0
 26 28  1  0  0  0  0
 28 29  1  0  0  0  0
 28 30  1  0  0  0  0
 28 31  1  0  0  0  0
M  END
$$$$

  -OEChem-03222214053D

 31 30  0     1  0  0  0  0  0999 V2000
   -2.9409   -3.9150    1.6896 H   0  0  0  0  0  0  0  0  0  0  0  0
   -2.9769   -2.9147    1.2491 C   0  0  0  0  0  0  0  0  0  0  0  0
   -3.5589   -2.2623    1.9044 H   0  0  0  0  0  0  0  0  0  0  0  0
   -3.4695   -2.9756    0.2758 H   0  0  0  0  0  0  0  0  0  0  0  0
   -1.5723   -2.3654    1.0840 C   0  0  0  0  0  0  0  0  0  0  0  0
   -0.6098   -3.0406    1.4139 O   0  0  0  0  0  0  0  0  0  0  0  0
   -1.3905   -1.0995    0.5692 N   0  0  0  0  0  0  0  0  0  0  0  0
   -2.2217   -0.5349    0.4019 H   0  0  0  0  0  0  0  0  0  0  0  0
   -0.0899   -0.4207    0.4412 C   0  0  1  0  0  0  0  0  0  0  0  0
    0.6429   -0.9016    1.0972 H   0  0  0  0  0  0  0  0  0  0  0  0
    0.4537   -0.4204   -1.0167 C   0  0  1  0  0  0  0  0  0  0  0  0
    1.0831    0.4688   -1.1366 H   0  0  0  0  0  0  0  0  0  0  0  0
    1.3562   -1.6455   -1.2255 C   0  0  0  0  0  0  0  0  0  0  0  0
    0.7916   -2.5719   -1.0767 H   0  0  0  0  0  0  0  0  0  0  0  0
    1.7677   -1.6475   -2.2396 H   0  0  0  0  0  0  0  0  0  0  0  0
    2.1914   -1.6327   -0.5185 H   0  0  0  0  0  0  0  0  0  0  0  0
   -0.6412   -0.4142   -2.1176 C   0  0  0  0  0  0  0  0  0  0  0  0
   -0.7702   -1.4134   -2.5465 H   0  0  0  0  0  0  0  0  0  0  0  0
   -1.6061   -0.1095   -1.7031 H   0  0  0  0  0  0  0  0  0  0  0  0
   -0.3058    0.5926   -3.2189 C   0  0  0  0  0  0  0  0  0  0  0  0
    0.6456    0.3367   -3.6953 H   0  0  0  0  0  0  0  0  0  0  0  0
   -1.0892    0.5881   -3.9828 H   0  0  0  0  0  0  0  0  0  0  0  0
   -0.2325    1.6035   -2.8050 H   0  0  0  0  0  0  0  0  0  0  0  0
   -0.2328    1.0339    0.9342 C   0  0  0  0  0  0  0  0  0  0  0  0
   -1.2289    1.6864    0.6410 O   0  0  0  0  0  0  0  0  0  0  0  0
    0.7199    1.5909    1.7671 N   0  0  0  0  0  0  0  0  0  0  0  0
    1.5180    1.0163    2.0220 H   0  0  0  0  0  0  0  0  0  0  0  0
    0.6300    2.9485    2.2901 C   0  0  0  0  0  0  0  0  0  0  0  0
   -0.2856    3.0742    2.8775 H   0  0  0  0  0  0  0  0  0  0  0  0
    1.4866    3.1626    2.9364 H   0  0  0  0  0  0  0  0  0  0  0  0
    0.6255    3.6742    1.4700 H   0  0  0  0  0  0  0  0  0  0  0  0
  1  2  1  0  0  0  0
  2  3  1  0  0  0  0
  2  4  1  0  0  0  0
  2  5  1  0  0  0  0
  5  6  2  0  0  0  0
  5  7  1  0  0  0  0
  7  8  1  0  0  0  0
  7  9  1  0  0  0  0
  9 10  1  0  0  0  0
  9 11  1  0  0  0  0
  9 24  1  0  0  0  0
 11 12  1  0  0  0  0
 11 13  1  0  0  0  0
 11 17  1  0  0  0  0
 13 14  1  0  0  0  0
 13 15  1  0  0  0  0
 13 16  1  0  0  0  0
 17 18  1  0  0  0  0
 17 19  1  0  0  0  0
 17 20  1  0  0  0  0
 20 21  1  0  0  0  0
 20 22  1  0  0  0  0
 20 23  1  0  0  0  0
 24 25  2  0  0  0  0
 24 26  1  0  0  0  0
 26 27  1  0  0  0  0
 26 28  1  0  0  0  0
 28 29  1  0  0  0  0
 28 30  1  0  0  0  0
 28 31  1  0  0  0  0
M  END
$$$$

  -OEChem-03222214053D

 31 30  0     1  0  0  0  0  0999 V2000
   -2.9474   -3.9046    1.6587 H   0  0  0  0  0  0  0  0  0  0  0  0
   -2.9789   -2.9027    1.2213 C   0  0  0  0  0  0  0  0  0  0  0  0
   -3.5640   -2.2513    1.8749 H   0  0  0  0  0  0  0  0  0  0  0  0
   -3.4649   -2.9596    0.2444 H   0  0  0  0  0  0  0  0  0  0  0  0
   -1.5727   -2.3548    1.0678 C   0  0  0  0  0  0  0  0  0  0  0  0
   -0.6140   -3.0312    1.4059 O   0  0  0  0  0  0  0  0  0  0  0  0
   -1.3850   -1.0889    0.5556 N   0  0  0  0  0  0  0  0  0  0  0  0
   -2.2137   -0.5235    0.3782 H   0  0  0  0  0  0  0  0  0  0  0  0
   -0.0819   -0.4127    0.4409 C   0  0  1  0  0  0  0  0  0  0  0  0
    0.6442   -0.8964    1.1025 H   0  0  0  0  0  0  0  0  0  0  0  0
    0.4664   -0.4226   -1.0137 C   0  0  1  0  0  0  0  0  0  0  0  0
    1.0908    0.4683   -1.1449 H   0  0  0  0  0  0  0  0  0  0  0  0
    1.3642   -1.6534   -1.2151 C   0  0  0  0  0  0  0  0  0  0  0  0
    0.7942   -2.5759   -1.0653 H   0  0  0  0  0  0  0  0  0  0  0  0
    1.7832   -1.6650   -2.2255 H   0  0  0  0  0  0  0  0  0  0  0  0
    2.1954   -1.6419   -0.5034 H   0  0  0  0  0  0  0  0  0  0  0  0
   -0.6432   -0.4199   -2.0938 C   0  0  0  0  0  0  0  0  0  0  0  0
   -0.9666   -1.4421   -2.3163 H   0  0  0  0  0  0  0  0  0  0  0  0
   -1.5156    0.1315   -1.7285 H   0  0  0  0  0  0  0  0  0  0  0  0
   -0.1797    0.2798   -3.3732 C   0  0  0  0  0  0  0  0  0  0  0  0
    0.6829   -0.2351   -3.8060 H   0  0  0  0  0  0  0  0  0  0  0  0
   -0.9871    0.2816   -4.1117 H   0  0  0  0  0  0  0  0  0  0  0  0
    0.0990    1.3174   -3.1635 H   0  0  0  0  0  0  0  0  0  0  0  0
   -0.2206    1.0430    0.9325 C   0  0  0  0  0  0  0  0  0  0  0  0
   -1.2134    1.6992    0.6364 O   0  0  0  0  0  0  0  0  0  0  0  0
    0.7283    1.5945    1.7733 N   0  0  0  0  0  0  0  0  0  0  0  0
    1.5213    1.0155    2.0343 H   0  0  0  0  0  0  0  0  0  0  0  0
    0.6377    2.9499    2.3019 C   0  0  0  0  0  0  0  0  0  0  0  0
   -0.2779    3.0723    2.8899 H   0  0  0  0  0  0  0  0  0  0  0  0
    1.4944    3.1618    2.9487 H   0  0  0  0  0  0  0  0  0  0  0  0
    0.6323    3.6792    1.4850 H   0  0  0  0  0  0  0  0  0  0  0  0
  1  2  1  0  0  0  0
  2  3  1  0  0  0  0
  2  4  1  0  0  0  0
  2  5  1  0  0  0  0
  5  6  2  0  0  0  0
  5  7  1  0  0  0  0
  7  8  1  0  0  0  0
  7  9  1  0  0  0  0
  9 10  1  0  0  0  0
  9 11  1  0  0  0  0
  9 24  1  0  0  0  0
 11 12  1  0  0  0  0
 11 13  1  0  0  0  0
 11 17  1  0  0  0  0
 13 14  1  0  0  0  0
 13 15  1  0  0  0  0
 13 16  1  0  0  0  0
 17 18  1  0  0  0  0
 17 19  1  0  0  0  0
 17 20  1  0  0  0  0
 20 21  1  0  0  0  0
 20 22  1  0  0  0  0
 20 23  1  0  0  0  0
 24 25  2  0  0  0  0
 24 26  1  0  0  0  0
 26 27  1  0  0  0  0
 26 28  1  0  0  0  0
 28 29  1  0  0  0  0
 28 30  1  0  0  0  0
 28 31  1  0  0  0  0
M  END
$$$$

  -OEChem-03222214053D

 31 30  0     1  0  0  0  0  0999 V2000
   -2.9511   -3.8955    1.6431 H   0  0  0  0  0  0  0  0  0  0  0  0
   -2.9802   -2.8919    1.2096 C   0  0  0  0  0  0  0  0  0  0  0  0
   -3.5650   -2.2420    1.8649 H   0  0  0  0  0  0  0  0  0  0  0  0
   -3.4653   -2.9443    0.2320 H   0  0  0  0  0  0  0  0  0  0  0  0
   -1.5728   -2.3457    1.0599 C   0  0  0  0  0  0  0  0  0  0  0  0
   -0.6156   -3.0234    1.3999 O   0  0  0  0  0  0  0  0  0  0  0  0
   -1.3824   -1.0799    0.5482 N   0  0  0  0  0  0  0  0  0  0  0  0
   -2.2103   -0.5151    0.3660 H   0  0  0  0  0  0  0  0  0  0  0  0
   -0.0788   -0.4041    0.4369 C   0  0  1  0  0  0  0  0  0  0  0  0
    0.6416   -0.8868    1.1051 H   0  0  0  0  0  0  0  0  0  0  0  0
    0.4792   -0.4208   -1.0153 C   0  0  1  0  0  0  0  0  0  0  0  0
    1.1010    0.4702   -1.1578 H   0  0  0  0  0  0  0  0  0  0  0  0
    1.3799   -1.6554   -1.1889 C   0  0  0  0  0  0  0  0  0  0  0  0
    0.7961   -2.5759   -1.0874 H   0  0  0  0  0  0  0  0  0  0  0  0
    1.8605   -1.6548   -2.1707 H   0  0  0  0  0  0  0  0  0  0  0  0
    2.1701   -1.6625   -0.4318 H   0  0  0  0  0  0  0  0  0  0  0  0
   -0.6365   -0.4248   -2.0881 C   0  0  0  0  0  0  0  0  0  0  0  0
   -1.1277   -1.4028   -2.1209 H   0  0  0  0  0  0  0  0  0  0  0  0
   -1.3929    0.3200   -1.8200 H   0  0  0  0  0  0  0  0  0  0  0  0
   -0.1131   -0.0756   -3.4839 C   0  0  0  0  0  0  0  0  0  0  0  0
    0.5761   -0.8414   -3.8501 H   0  0  0  0  0  0  0  0  0  0  0  0
   -0.9492   -0.0062   -4.1862 H   0  0  0  0  0  0  0  0  0  0  0  0
    0.4058    0.8877   -3.4690 H   0  0  0  0  0  0  0  0  0  0  0  0
   -0.2142    1.0522    0.9273 C   0  0  0  0  0  0  0  0  0  0  0  0
   -1.2060    1.7107    0.6336 O   0  0  0  0  0  0  0  0  0  0  0  0
    0.7361    1.5992    1.7696 N   0  0  0  0  0  0  0  0  0  0  0  0
    1.5230    1.0142    2.0352 H   0  0  0  0  0  0  0  0  0  0  0  0
    0.6421    2.9476    2.3156 C   0  0  0  0  0  0  0  0  0  0  0  0
   -0.2693    3.0568    2.9126 H   0  0  0  0  0  0  0  0  0  0  0  0
    1.5030    3.1561    2.9580 H   0  0  0  0  0  0  0  0  0  0  0  0
    0.6259    3.6877    1.5088 H   0  0  0  0  0  0  0  0  0  0  0  0
  1  2  1  0  0  0  0
  2  3  1  0  0  0  0
  2  4  1  0  0  0  0
  2  5  1  0  0  0  0
  5  6  2  0  0  0  0
  5  7  1  0  0  0  0
  7  8  1  0  0  0  0
  7  9  1  0  0  0  0
  9 10  1  0  0  0  0
  9 11  1  0  0  0  0
  9 24  1  0  0  0  0
 11 12  1  0  0  0  0
 11 13  1  0  0  0  0
 11 17  1  0  0  0  0
 13 14  1  0  0  0  0
 13 15  1  0  0  0  0
 13 16  1  0  0  0  0
 17 18  1  0  0  0  0
 17 19  1  0  0  0  0
 17 20  1  0  0  0  0
 20 21  1  0  0  0  0
 20 22  1  0  0  0  0
 20 23  1  0  0  0  0
 24 25  2  0  0  0  0
 24 26  1  0  0  0  0
 26 27  1  0  0  0  0
 26 28  1  0  0  0  0
 28 29  1  0  0  0  0
 28 30  1  0  0  0  0
 28 31  1  0  0  0  0
M  END
$$$$

  -OEChem-03222214053D

 31 30  0     1  0  0  0  0  0999 V2000
   -2.9492   -3.8876    1.6180 H   0  0  0  0  0  0  0  0  0  0  0  0
   -2.9806   -2.8797    1.1949 C   0  0  0  0  0  0  0  0  0  0  0  0
   -3.5622   -2.2367    1.8600 H   0  0  0  0  0  0  0  0  0  0  0  0
   -3.4708   -2.9223    0.2193 H   0  0  0  0  0  0  0  0  0  0  0  0
   -1.5739   -2.3319    1.0439 C   0  0  0  0  0  0  0  0  0  0  0  0
   -0.6162   -3.0096    1.3825 O   0  0  0  0  0  0  0  0  0  0  0  0
   -1.3855   -1.0629    0.5382 N   0  0  0  0  0  0  0  0  0  0  0  0
   -2.2148   -0.4967    0.3664 H   0  0  0  0  0  0  0  0  0  0  0  0
   -0.0843   -0.3832    0.4250 C   0  0  1  0  0  0  0  0  0  0  0  0
    0.6360   -0.8688    1.0910 H   0  0  0  0  0  0  0  0  0  0  0  0
    0.4795   -0.4158   -1.0227 C   0  0  1  0  0  0  0  0  0  0  0  0
    1.2880    0.3202   -1.0926 H   0  0  0  0  0  0  0  0  0  0  0  0
    1.0890   -1.8048   -1.2869 C   0  0  0  0  0  0  0  0  0  0  0  0
    0.3036   -2.5633   -1.3636 H   0  0  0  0  0  0  0  0  0  0  0  0
    1.6684   -1.8066   -2.2142 H   0  0  0  0  0  0  0  0  0  0  0  0
    1.7654   -2.0906   -0.4755 H   0  0  0  0  0  0  0  0  0  0  0  0
   -0.5917   -0.0692   -2.0882 C   0  0  0  0  0  0  0  0  0  0  0  0
   -1.4283   -0.7720   -2.0278 H   0  0  0  0  0  0  0  0  0  0  0  0
   -0.9846    0.9321   -1.8866 H   0  0  0  0  0  0  0  0  0  0  0  0
   -0.0520   -0.0949   -3.5216 C   0  0  0  0  0  0  0  0  0  0  0  0
    0.2029   -1.1133   -3.8286 H   0  0  0  0  0  0  0  0  0  0  0  0
   -0.8121    0.2857   -4.2106 H   0  0  0  0  0  0  0  0  0  0  0  0
    0.8388    0.5350   -3.6071 H   0  0  0  0  0  0  0  0  0  0  0  0
   -0.2084    1.0724    0.9212 C   0  0  0  0  0  0  0  0  0  0  0  0
   -1.2140    1.7278    0.6698 O   0  0  0  0  0  0  0  0  0  0  0  0
    0.7529    1.6079    1.7584 N   0  0  0  0  0  0  0  0  0  0  0  0
    1.5402    1.0172    2.0104 H   0  0  0  0  0  0  0  0  0  0  0  0
    0.6496    2.9362    2.3498 C   0  0  0  0  0  0  0  0  0  0  0  0
   -0.2397    3.0045    2.9853 H   0  0  0  0  0  0  0  0  0  0  0  0
    1.5305    3.1461    2.9639 H   0  0  0  0  0  0  0  0  0  0  0  0
    0.5839    3.6999    1.5676 H   0  0  0  0  0  0  0  0  0  0  0  0
  1  2  1  0  0  0  0
  2  3  1  0  0  0  0
  2  4  1  0  0  0  0
  2  5  1  0  0  0  0
  5  6  2  0  0  0  0
  5  7  1  0  0  0  0
  7  8  1  0  0  0  0
  7  9  1  0  0  0  0
  9 10  1  0  0  0  0
  9 11  1  0  0  0  0
  9 24  1  0  0  0  0
 11 12  1  0  0  0  0
 11 13  1  0  0  0  0
 11 17  1  0  0  0  0
 13 14  1  0  0  0  0
 13 15  1  0  0  0  0
 13 16  1  0  0  0  0
 17 18  1  0  0  0  0
 17 19  1  0  0  0  0
 17 20  1  0  0  0  0
 20 21  1  0  0  0  0
 20 22  1  0  0  0  0
 20 23  1  0  0  0  0
 24 25  2  0  0  0  0
 24 26  1  0  0  0  0
 26 27  1  0  0  0  0
 26 28  1  0  0  0  0
 28 29  1  0  0  0  0
 28 30  1  0  0  0  0
 28 31  1  0  0  0  0
M  END
$$$$

  -OEChem-03222214053D

 31 30  0     1  0  0  0  0  0999 V2000
   -2.9593   -3.8910    1.6446 H   0  0  0  0  0  0  0  0  0  0  0  0
   -2.9870   -2.8869    1.2121 C   0  0  0  0  0  0  0  0  0  0  0  0
   -3.5695   -2.2362    1.8689 H   0  0  0  0  0  0  0  0  0  0  0  0
   -3.4736   -2.9370    0.2350 H   0  0  0  0  0  0  0  0  0  0  0  0
   -1.5787   -2.3439    1.0612 C   0  0  0  0  0  0  0  0  0  0  0  0
   -0.6229   -3.0224    1.4038 O   0  0  0  0  0  0  0  0  0  0  0  0
   -1.3870   -1.0781    0.5497 N   0  0  0  0  0  0  0  0  0  0  0  0
   -2.2147   -0.5112    0.3725 H   0  0  0  0  0  0  0  0  0  0  0  0
   -0.0839   -0.4031    0.4330 C   0  0  1  0  0  0  0  0  0  0  0  0
    0.6357   -0.8877    1.1008 H   0  0  0  0  0  0  0  0  0  0  0  0
    0.4846   -0.4203   -1.0150 C   0  0  1  0  0  0  0  0  0  0  0  0
    1.2988    0.3100   -1.0804 H   0  0  0  0  0  0  0  0  0  0  0  0
    1.0978   -1.8114   -1.2674 C   0  0  0  0  0  0  0  0  0  0  0  0
    0.3131   -2.5704   -1.3470 H   0  0  0  0  0  0  0  0  0  0  0  0
    1.6869   -1.8170   -2.1890 H   0  0  0  0  0  0  0  0  0  0  0  0
    1.7679   -2.0938   -0.4495 H   0  0  0  0  0  0  0  0  0  0  0  0
   -0.5795   -0.0578   -2.0900 C   0  0  0  0  0  0  0  0  0  0  0  0
   -1.5195   -0.5795   -1.8928 H   0  0  0  0  0  0  0  0  0  0  0  0
   -0.7829    1.0163   -2.0299 H   0  0  0  0  0  0  0  0  0  0  0  0
   -0.1734   -0.4041   -3.5264 C   0  0  0  0  0  0  0  0  0  0  0  0
   -0.1267   -1.4873   -3.6732 H   0  0  0  0  0  0  0  0  0  0  0  0
   -0.9100    0.0002   -4.2274 H   0  0  0  0  0  0  0  0  0  0  0  0
    0.8028    0.0303   -3.7629 H   0  0  0  0  0  0  0  0  0  0  0  0
   -0.2114    1.0536    0.9241 C   0  0  0  0  0  0  0  0  0  0  0  0
   -1.2101    1.7112    0.6517 O   0  0  0  0  0  0  0  0  0  0  0  0
    0.7462    1.5962    1.7610 N   0  0  0  0  0  0  0  0  0  0  0  0
    1.5331    1.0081    2.0201 H   0  0  0  0  0  0  0  0  0  0  0  0
    0.6516    2.9378    2.3237 C   0  0  0  0  0  0  0  0  0  0  0  0
   -0.2524    3.0354    2.9341 H   0  0  0  0  0  0  0  0  0  0  0  0
    1.5198    3.1440    2.9571 H   0  0  0  0  0  0  0  0  0  0  0  0
    0.6206    3.6869    1.5255 H   0  0  0  0  0  0  0  0  0  0  0  0
  1  2  1  0  0  0  0
  2  3  1  0  0  0  0
  2  4  1  0  0  0  0
  2  5  1  0  0  0  0
  5  6  2  0  0  0  0
  5  7  1  0  0  0  0
  7  8  1  0  0  0  0
  7  9  1  0  0  0  0
  9 10  1  0  0  0  0
  9 11  1  0  0  0  0
  9 24  1  0  0  0  0
 11 12  1  0  0  0  0
 11 13  1  0  0  0  0
 11 17  1  0  0  0  0
 13 14  1  0  0  0  0
 13 15  1  0  0  0  0
 13 16  1  0  0  0  0
 17 18  1  0  0  0  0
 17 19  1  0  0  0  0
 17 20  1  0  0  0  0
 20 21  1  0  0  0  0
 20 22  1  0  0  0  0
 20 23  1  0  0  0  0
 24 25  2  0  0  0  0
 24 26  1  0  0  0  0
 26 27  1  0  0  0  0
 26 28  1  0  0  0  0
 28 29  1  0  0  0  0
 28 30  1  0  0  0  0
 28 31  1  0  0  0  0
M  END
$$$$

  -OEChem-03222214053D

 31 30  0     1  0  0  0  0  0999 V2000
   -2.9714   -3.8906    1.6625 H   0  0  0  0  0  0  0  0  0  0  0  0
   -2.9956   -2.8882    1.2262 C   0  0  0  0  0  0  0  0  0  0  0  0
   -3.5773   -2.2337    1.8798 H   0  0  0  0  0  0  0  0  0  0  0  0
   -3.4812   -2.9412    0.2488 H   0  0  0  0  0  0  0  0  0  0  0  0
   -1.5855   -2.3496    1.0749 C   0  0  0  0  0  0  0  0  0  0  0  0
   -0.6324   -3.0288    1.4237 O   0  0  0  0  0  0  0  0  0  0  0  0
   -1.3888   -1.0869    0.5575 N   0  0  0  0  0  0  0  0  0  0  0  0
   -2.2146   -0.5190    0.3747 H   0  0  0  0  0  0  0  0  0  0  0  0
   -0.0831   -0.4164    0.4394 C   0  0  1  0  0  0  0  0  0  0  0  0
    0.6353   -0.8995    1.1095 H   0  0  0  0  0  0  0  0  0  0  0  0
    0.4887   -0.4275   -1.0085 C   0  0  1  0  0  0  0  0  0  0  0  0
    1.3039    0.3019   -1.0705 H   0  0  0  0  0  0  0  0  0  0  0  0
    1.1162   -1.8163   -1.2437 C   0  0  0  0  0  0  0  0  0  0  0  0
    0.3417   -2.5884   -1.2880 H   0  0  0  0  0  0  0  0  0  0  0  0
    1.6871   -1.8355   -2.1765 H   0  0  0  0  0  0  0  0  0  0  0  0
    1.8067   -2.0709   -0.4336 H   0  0  0  0  0  0  0  0  0  0  0  0
   -0.5672   -0.0549   -2.0959 C   0  0  0  0  0  0  0  0  0  0  0  0
   -1.5724   -0.3388   -1.7772 H   0  0  0  0  0  0  0  0  0  0  0  0
   -0.5683    1.0343   -2.2080 H   0  0  0  0  0  0  0  0  0  0  0  0
   -0.3549   -0.6921   -3.4743 C   0  0  0  0  0  0  0  0  0  0  0  0
   -0.4776   -1.7785   -3.4309 H   0  0  0  0  0  0  0  0  0  0  0  0
   -1.0910   -0.2975   -4.1813 H   0  0  0  0  0  0  0  0  0  0  0  0
    0.6447   -0.4594   -3.8541 H   0  0  0  0  0  0  0  0  0  0  0  0
   -0.2122    1.0420    0.9240 C   0  0  0  0  0  0  0  0  0  0  0  0
   -1.2059    1.7012    0.6371 O   0  0  0  0  0  0  0  0  0  0  0  0
    0.7431    1.5882    1.7612 N   0  0  0  0  0  0  0  0  0  0  0  0
    1.5274    1.0000    2.0279 H   0  0  0  0  0  0  0  0  0  0  0  0
    0.6503    2.9344    2.3127 C   0  0  0  0  0  0  0  0  0  0  0  0
   -0.2553    3.0386    2.9195 H   0  0  0  0  0  0  0  0  0  0  0  0
    1.5173    3.1435    2.9468 H   0  0  0  0  0  0  0  0  0  0  0  0
    0.6233    3.6772    1.5084 H   0  0  0  0  0  0  0  0  0  0  0  0
  1  2  1  0  0  0  0
  2  3  1  0  0  0  0
  2  4  1  0  0  0  0
  2  5  1  0  0  0  0
  5  6  2  0  0  0  0
  5  7  1  0  0  0  0
  7  8  1  0  0  0  0
  7  9  1  0  0  0  0
  9 10  1  0  0  0  0
  9 11  1  0  0  0  0
  9 24  1  0  0  0  0
 11 12  1  0  0  0  0
 11 13  1  0  0  0  0
 11 17  1  0  0  0  0
 13 14  1  0  0  0  0
 13 15  1  0  0  0  0
 13 16  1  0  0  0  0
 17 18  1  0  0  0  0
 17 19  1  0  0  0  0
 17 20  1  0  0  0  0
 20 21  1  0  0  0  0
 20 22  1  0  0  0  0
 20 23  1  0  0  0  0
 24 25  2  0  0  0  0
 24 26  1  0  0  0  0
 26 27  1  0  0  0  0
 26 28  1  0  0  0  0
 28 29  1  0  0  0  0
 28 30  1  0  0  0  0
 28 31  1  0  0  0  0
M  END
$$$$

  -OEChem-03222214053D

 31 30  0     1  0  0  0  0  0999 V2000
   -2.9850   -3.8936    1.6502 H   0  0  0  0  0  0  0  0  0  0  0  0
   -3.0030   -2.8920    1.2117 C   0  0  0  0  0  0  0  0  0  0  0  0
   -3.5937   -2.2359    1.8556 H   0  0  0  0  0  0  0  0  0  0  0  0
   -3.4747   -2.9464    0.2276 H   0  0  0  0  0  0  0  0  0  0  0  0
   -1.5911   -2.3534    1.0785 C   0  0  0  0  0  0  0  0  0  0  0  0
   -0.6419   -3.0331    1.4365 O   0  0  0  0  0  0  0  0  0  0  0  0
   -1.3895   -1.0912    0.5622 N   0  0  0  0  0  0  0  0  0  0  0  0
   -2.2139   -0.5249    0.3692 H   0  0  0  0  0  0  0  0  0  0  0  0
   -0.0826   -0.4217    0.4505 C   0  0  1  0  0  0  0  0  0  0  0  0
    0.6334   -0.9067    1.1218 H   0  0  0  0  0  0  0  0  0  0  0  0
    0.4875   -0.4375   -0.9972 C   0  0  1  0  0  0  0  0  0  0  0  0
    1.2917    0.3041   -1.0566 H   0  0  0  0  0  0  0  0  0  0  0  0
    1.1492   -1.8117   -1.2241 C   0  0  0  0  0  0  0  0  0  0  0  0
    0.4026   -2.6116   -1.2142 H   0  0  0  0  0  0  0  0  0  0  0  0
    1.6818   -1.8363   -2.1790 H   0  0  0  0  0  0  0  0  0  0  0  0
    1.8800   -2.0197   -0.4364 H   0  0  0  0  0  0  0  0  0  0  0  0
   -0.5692   -0.0646   -2.0879 C   0  0  0  0  0  0  0  0  0  0  0  0
   -1.5789   -0.0658   -1.6710 H   0  0  0  0  0  0  0  0  0  0  0  0
   -0.3724    0.9659   -2.4014 H   0  0  0  0  0  0  0  0  0  0  0  0
   -0.6009   -0.9466   -3.3421 C   0  0  0  0  0  0  0  0  0  0  0  0
   -0.8659   -1.9778   -3.0903 H   0  0  0  0  0  0  0  0  0  0  0  0
   -1.3516   -0.5661   -4.0413 H   0  0  0  0  0  0  0  0  0  0  0  0
    0.3696   -0.9371   -3.8475 H   0  0  0  0  0  0  0  0  0  0  0  0
   -0.2104    1.0375    0.9338 C   0  0  0  0  0  0  0  0  0  0  0  0
   -1.1985    1.7004    0.6366 O   0  0  0  0  0  0  0  0  0  0  0  0
    0.7415    1.5834    1.7749 N   0  0  0  0  0  0  0  0  0  0  0  0
    1.5251    0.9958    2.0448 H   0  0  0  0  0  0  0  0  0  0  0  0
    0.6575    2.9383    2.3056 C   0  0  0  0  0  0  0  0  0  0  0  0
   -0.2578    3.0642    2.8934 H   0  0  0  0  0  0  0  0  0  0  0  0
    1.5150    3.1449    2.9529 H   0  0  0  0  0  0  0  0  0  0  0  0
    0.6560    3.6689    1.4899 H   0  0  0  0  0  0  0  0  0  0  0  0
  1  2  1  0  0  0  0
  2  3  1  0  0  0  0
  2  4  1  0  0  0  0
  2  5  1  0  0  0  0
  5  6  2  0  0  0  0
  5  7  1  0  0  0  0
  7  8  1  0  0  0  0
  7  9  1  0  0  0  0
  9 10  1  0  0  0  0
  9 11  1  0  0  0  0
  9 24  1  0  0  0  0
 11 12  1  0  0  0  0
 11 13  1  0  0  0  0
 11 17  1  0  0  0  0
 13 14  1  0  0  0  0
 13 15  1  0  0  0  0
 13 16  1  0  0  0  0
 17 18  1  0  0  0  0
 17 19  1  0  0  0  0
 17 20  1  0  0  0  0
 20 21  1  0  0  0  0
 20 22  1  0  0  0  0
 20 23  1  0  0  0  0
 24 25  2  0  0  0  0
 24 26  1  0  0  0  0
 26 27  1  0  0  0  0
 26 28  1  0  0  0  0
 28 29  1  0  0  0  0
 28 30  1  0  0  0  0
 28 31  1  0  0  0  0
M  END
$$$$

  -OEChem-03222214053D

 31 30  0     1  0  0  0  0  0999 V2000
   -2.9872   -3.8908    1.6184 H   0  0  0  0  0  0  0  0  0  0  0  0
   -3.0055   -2.8872    1.1845 C   0  0  0  0  0  0  0  0  0  0  0  0
   -3.6034   -2.2367    1.8275 H   0  0  0  0  0  0  0  0  0  0  0  0
   -3.4696   -2.9389    0.1967 H   0  0  0  0  0  0  0  0  0  0  0  0
   -1.5945   -2.3429    1.0650 C   0  0  0  0  0  0  0  0  0  0  0  0
   -0.6465   -3.0195    1.4322 O   0  0  0  0  0  0  0  0  0  0  0  0
   -1.3921   -1.0786    0.5541 N   0  0  0  0  0  0  0  0  0  0  0  0
   -2.2157   -0.5161    0.3480 H   0  0  0  0  0  0  0  0  0  0  0  0
   -0.0853   -0.4073    0.4522 C   0  0  1  0  0  0  0  0  0  0  0  0
    0.6279   -0.8955    1.1243 H   0  0  0  0  0  0  0  0  0  0  0  0
    0.4814   -0.4445   -0.9945 C   0  0  1  0  0  0  0  0  0  0  0  0
    1.2680    0.3159   -1.0581 H   0  0  0  0  0  0  0  0  0  0  0  0
    1.1803   -1.7994   -1.2186 C   0  0  0  0  0  0  0  0  0  0  0  0
    0.4644   -2.6254   -1.1713 H   0  0  0  0  0  0  0  0  0  0  0  0
    1.6819   -1.8191   -2.1903 H   0  0  0  0  0  0  0  0  0  0  0  0
    1.9414   -1.9676   -0.4504 H   0  0  0  0  0  0  0  0  0  0  0  0
   -0.5824   -0.0863   -2.0812 C   0  0  0  0  0  0  0  0  0  0  0  0
   -1.5294    0.2011   -1.6166 H   0  0  0  0  0  0  0  0  0  0  0  0
   -0.2249    0.8023   -2.6116 H   0  0  0  0  0  0  0  0  0  0  0  0
   -0.8766   -1.1614   -3.1347 C   0  0  0  0  0  0  0  0  0  0  0  0
   -1.2549   -2.0724   -2.6613 H   0  0  0  0  0  0  0  0  0  0  0  0
   -1.6386   -0.7974   -3.8306 H   0  0  0  0  0  0  0  0  0  0  0  0
    0.0201   -1.4020   -3.7130 H   0  0  0  0  0  0  0  0  0  0  0  0
   -0.2050    1.0524    0.9376 C   0  0  0  0  0  0  0  0  0  0  0  0
   -1.1903    1.7218    0.6461 O   0  0  0  0  0  0  0  0  0  0  0  0
    0.7486    1.5895    1.7828 N   0  0  0  0  0  0  0  0  0  0  0  0
    1.5270    0.9954    2.0538 H   0  0  0  0  0  0  0  0  0  0  0  0
    0.6670    2.9395    2.3271 C   0  0  0  0  0  0  0  0  0  0  0  0
   -0.2423    3.0577    2.9259 H   0  0  0  0  0  0  0  0  0  0  0  0
    1.5312    3.1419    2.9673 H   0  0  0  0  0  0  0  0  0  0  0  0
    0.6555    3.6781    1.5186 H   0  0  0  0  0  0  0  0  0  0  0  0
  1  2  1  0  0  0  0
  2  3  1  0  0  0  0
  2  4  1  0  0  0  0
  2  5  1  0  0  0  0
  5  6  2  0  0  0  0
  5  7  1  0  0  0  0
  7  8  1  0  0  0  0
  7  9  1  0  0  0  0
  9 10  1  0  0  0  0
  9 11  1  0  0  0  0
  9 24  1  0  0  0  0
 11 12  1  0  0  0  0
 11 13  1  0  0  0  0
 11 17  1  0  0  0  0
 13 14  1  0  0  0  0
 13 15  1  0  0  0  0
 13 16  1  0  0  0  0
 17 18  1  0  0  0  0
 17 19  1  0  0  0  0
 17 20  1  0  0  0  0
 20 21  1  0  0  0  0
 20 22  1  0  0  0  0
 20 23  1  0  0  0  0
 24 25  2  0  0  0  0
 24 26  1  0  0  0  0
 26 27  1  0  0  0  0
 26 28  1  0  0  0  0
 28 29  1  0  0  0  0
 28 30  1  0  0  0  0
 28 31  1  0  0  0  0
M  END
$$$$

  -OEChem-03222214053D

 31 30  0     1  0  0  0  0  0999 V2000
   -2.9889   -3.8897    1.5858 H   0  0  0  0  0  0  0  0  0  0  0  0
   -3.0074   -2.8832    1.1588 C   0  0  0  0  0  0  0  0  0  0  0  0
   -3.6150   -2.2396    1.7995 H   0  0  0  0  0  0  0  0  0  0  0  0
   -3.4605   -2.9300    0.1656 H   0  0  0  0  0  0  0  0  0  0  0  0
   -1.5979   -2.3315    1.0584 C   0  0  0  0  0  0  0  0  0  0  0  0
   -0.6505   -3.0071    1.4288 O   0  0  0  0  0  0  0  0  0  0  0  0
   -1.3964   -1.0643    0.5541 N   0  0  0  0  0  0  0  0  0  0  0  0
   -2.2206   -0.5066    0.3377 H   0  0  0  0  0  0  0  0  0  0  0  0
   -0.0919   -0.3897    0.4535 C   0  0  1  0  0  0  0  0  0  0  0  0
    0.6212   -0.8807    1.1234 H   0  0  0  0  0  0  0  0  0  0  0  0
    0.4713   -0.4435   -0.9927 C   0  0  1  0  0  0  0  0  0  0  0  0
    1.2439    0.3304   -1.0616 H   0  0  0  0  0  0  0  0  0  0  0  0
    1.1898   -1.7850   -1.2242 C   0  0  0  0  0  0  0  0  0  0  0  0
    0.4975   -2.6271   -1.1315 H   0  0  0  0  0  0  0  0  0  0  0  0
    1.6438   -1.8087   -2.2195 H   0  0  0  0  0  0  0  0  0  0  0  0
    1.9879   -1.9209   -0.4878 H   0  0  0  0  0  0  0  0  0  0  0  0
   -0.5942   -0.1030   -2.0775 C   0  0  0  0  0  0  0  0  0  0  0  0
   -1.4349    0.4337   -1.6284 H   0  0  0  0  0  0  0  0  0  0  0  0
   -0.1345    0.5865   -2.7929 H   0  0  0  0  0  0  0  0  0  0  0  0
   -1.1415   -1.2912   -2.8792 C   0  0  0  0  0  0  0  0  0  0  0  0
   -1.5913   -2.0320   -2.2116 H   0  0  0  0  0  0  0  0  0  0  0  0
   -1.9113   -0.9441   -3.5749 H   0  0  0  0  0  0  0  0  0  0  0  0
   -0.3513   -1.7714   -3.4634 H   0  0  0  0  0  0  0  0  0  0  0  0
   -0.2028    1.0693    0.9444 C   0  0  0  0  0  0  0  0  0  0  0  0
   -1.1896    1.7426    0.6684 O   0  0  0  0  0  0  0  0  0  0  0  0
    0.7577    1.5973    1.7877 N   0  0  0  0  0  0  0  0  0  0  0  0
    1.5340    0.9975    2.0520 H   0  0  0  0  0  0  0  0  0  0  0  0
    0.6811    2.9413    2.3475 C   0  0  0  0  0  0  0  0  0  0  0  0
   -0.2283    3.0561    2.9466 H   0  0  0  0  0  0  0  0  0  0  0  0
    1.5452    3.1326    2.9910 H   0  0  0  0  0  0  0  0  0  0  0  0
    0.6735    3.6897    1.5481 H   0  0  0  0  0  0  0  0  0  0  0  0
  1  2  1  0  0  0  0
  2  3  1  0  0  0  0
  2  4  1  0  0  0  0
  2  5  1  0  0  0  0
  5  6  2  0  0  0  0
  5  7  1  0  0  0  0
  7  8  1  0  0  0  0
  7  9  1  0  0  0  0
  9 10  1  0  0  0  0
  9 11  1  0  0  0  0
  9 24  1  0  0  0  0
 11 12  1  0  0  0  0
 11 13  1  0  0  0  0
 11 17  1  0  0  0  0
 13 14  1  0  0  0  0
 13 15  1  0  0  0  0
 13 16  1  0  0  0  0
 17 18  1  0  0  0  0
 17 19  1  0  0  0  0
 17 20  1  0  0  0  0
 20 21  1  0  0  0  0
 20 22  1  0  0  0  0
 20 23  1  0  0  0  0
 24 25  2  0  0  0  0
 24 26  1  0  0  0  0
 26 27  1  0  0  0  0
 26 28  1  0  0  0  0
 28 29  1  0  0  0  0
 28 30  1  0  0  0  0
 28 31  1  0  0  0  0
M  END
$$$$

  -OEChem-03222214053D

 31 30  0     1  0  0  0  0  0999 V2000
   -2.9849   -3.8793    1.6546 H   0  0  0  0  0  0  0  0  0  0  0  0
   -3.0086   -2.8758    1.2203 C   0  0  0  0  0  0  0  0  0  0  0  0
   -3.5980   -2.2246    1.8703 H   0  0  0  0  0  0  0  0  0  0  0  0
   -3.4856   -2.9275    0.2387 H   0  0  0  0  0  0  0  0  0  0  0  0
   -1.5991   -2.3322    1.0825 C   0  0  0  0  0  0  0  0  0  0  0  0
   -0.6471   -3.0116    1.4335 O   0  0  0  0  0  0  0  0  0  0  0  0
   -1.4032   -1.0662    0.5730 N   0  0  0  0  0  0  0  0  0  0  0  0
   -2.2292   -0.5047    0.3741 H   0  0  0  0  0  0  0  0  0  0  0  0
   -0.1006   -0.3946    0.4546 C   0  0  1  0  0  0  0  0  0  0  0  0
    0.6169   -0.8836    1.1213 H   0  0  0  0  0  0  0  0  0  0  0  0
    0.4685   -0.4387   -0.9911 C   0  0  1  0  0  0  0  0  0  0  0  0
    1.2456    0.3316   -1.0483 H   0  0  0  0  0  0  0  0  0  0  0  0
    1.1708   -1.7838   -1.2403 C   0  0  0  0  0  0  0  0  0  0  0  0
    0.4751   -2.6207   -1.1271 H   0  0  0  0  0  0  0  0  0  0  0  0
    1.5920   -1.8117   -2.2499 H   0  0  0  0  0  0  0  0  0  0  0  0
    1.9884   -1.9234   -0.5265 H   0  0  0  0  0  0  0  0  0  0  0  0
   -0.5693   -0.0999   -2.0979 C   0  0  0  0  0  0  0  0  0  0  0  0
   -1.2764    0.6450   -1.7214 H   0  0  0  0  0  0  0  0  0  0  0  0
   -0.0322    0.3668   -2.9299 H   0  0  0  0  0  0  0  0  0  0  0  0
   -1.3607   -1.2843   -2.6732 C   0  0  0  0  0  0  0  0  0  0  0  0
   -1.8876   -1.8308   -1.8877 H   0  0  0  0  0  0  0  0  0  0  0  0
   -2.1023   -0.9172   -3.3890 H   0  0  0  0  0  0  0  0  0  0  0  0
   -0.6990   -1.9784   -3.1993 H   0  0  0  0  0  0  0  0  0  0  0  0
   -0.2147    1.0638    0.9468 C   0  0  0  0  0  0  0  0  0  0  0  0
   -1.2114    1.7295    0.6879 O   0  0  0  0  0  0  0  0  0  0  0  0
    0.7522    1.5957    1.7798 N   0  0  0  0  0  0  0  0  0  0  0  0
    1.5331    0.9985    2.0359 H   0  0  0  0  0  0  0  0  0  0  0  0
    0.6671    2.9322    2.3554 C   0  0  0  0  0  0  0  0  0  0  0  0
   -0.2233    3.0217    2.9866 H   0  0  0  0  0  0  0  0  0  0  0  0
    1.5489    3.1360    2.9704 H   0  0  0  0  0  0  0  0  0  0  0  0
    0.6161    3.6873    1.5639 H   0  0  0  0  0  0  0  0  0  0  0  0
  1  2  1  0  0  0  0
  2  3  1  0  0  0  0
  2  4  1  0  0  0  0
  2  5  1  0  0  0  0
  5  6  2  0  0  0  0
  5  7  1  0  0  0  0
  7  8  1  0  0  0  0
  7  9  1  0  0  0  0
  9 10  1  0  0  0  0
  9 11  1  0  0  0  0
  9 24  1  0  0  0  0
 11 12  1  0  0  0  0
 11 13  1  0  0  0  0
 11 17  1  0  0  0  0
 13 14  1  0  0  0  0
 13 15  1  0  0  0  0
 13 16  1  0  0  0  0
 17 18  1  0  0  0  0
 17 19  1  0  0  0  0
 17 20  1  0  0  0  0
 20 21  1  0  0  0  0
 20 22  1  0  0  0  0
 20 23  1  0  0  0  0
 24 25  2  0  0  0  0
 24 26  1  0  0  0  0
 26 27  1  0  0  0  0
 26 28  1  0  0  0  0
 28 29  1  0  0  0  0
 28 30  1  0  0  0  0
 28 31  1  0  0  0  0
M  END
$$$$

  -OEChem-03222214053D

 31 30  0     1  0  0  0  0  0999 V2000
   -2.9466   -3.9002    1.7362 H   0  0  0  0  0  0  0  0  0  0  0  0
   -2.9823   -2.9029    1.2892 C   0  0  0  0  0  0  0  0  0  0  0  0
   -3.5732   -2.2486    1.9345 H   0  0  0  0  0  0  0  0  0  0  0  0
   -3.4644   -2.9718    0.3111 H   0  0  0  0  0  0  0  0  0  0  0  0
   -1.5788   -2.3490    1.1352 C   0  0  0  0  0  0  0  0  0  0  0  0
   -0.6172   -3.0213    1.4738 O   0  0  0  0  0  0  0  0  0  0  0  0
   -1.3988   -1.0829    0.6199 N   0  0  0  0  0  0  0  0  0  0  0  0
   -2.2312   -0.5260    0.4335 H   0  0  0  0  0  0  0  0  0  0  0  0
   -0.1034   -0.4077    0.4706 C   0  0  1  0  0  0  0  0  0  0  0  0
    0.6295   -0.8920    1.1240 H   0  0  0  0  0  0  0  0  0  0  0  0
    0.4531   -0.4263   -0.9825 C   0  0  1  0  0  0  0  0  0  0  0  0
    1.2405    0.3339   -1.0322 H   0  0  0  0  0  0  0  0  0  0  0  0
    1.1307   -1.7797   -1.2516 C   0  0  0  0  0  0  0  0  0  0  0  0
    0.4262   -2.6067   -1.1229 H   0  0  0  0  0  0  0  0  0  0  0  0
    1.5262   -1.8128   -2.2714 H   0  0  0  0  0  0  0  0  0  0  0  0
    1.9634   -1.9324   -0.5582 H   0  0  0  0  0  0  0  0  0  0  0  0
   -0.5568   -0.0838   -2.1144 C   0  0  0  0  0  0  0  0  0  0  0  0
   -1.0945    0.8299   -1.8432 H   0  0  0  0  0  0  0  0  0  0  0  0
    0.0239    0.1456   -3.0137 H   0  0  0  0  0  0  0  0  0  0  0  0
   -1.5903   -1.1547   -2.5025 C   0  0  0  0  0  0  0  0  0  0  0  0
   -2.2944   -1.3562   -1.6945 H   0  0  0  0  0  0  0  0  0  0  0  0
   -2.1681   -0.8032   -3.3626 H   0  0  0  0  0  0  0  0  0  0  0  0
   -1.1016   -2.0905   -2.7873 H   0  0  0  0  0  0  0  0  0  0  0  0
   -0.2242    1.0483    0.9664 C   0  0  0  0  0  0  0  0  0  0  0  0
   -1.2283    1.7061    0.7153 O   0  0  0  0  0  0  0  0  0  0  0  0
    0.7526    1.5924    1.7801 N   0  0  0  0  0  0  0  0  0  0  0  0
    1.5399    1.0010    2.0303 H   0  0  0  0  0  0  0  0  0  0  0  0
    0.6646    2.9305    2.3520 C   0  0  0  0  0  0  0  0  0  0  0  0
   -0.2284    3.0214    2.9794 H   0  0  0  0  0  0  0  0  0  0  0  0
    1.5437    3.1363    2.9704 H   0  0  0  0  0  0  0  0  0  0  0  0
    0.6165    3.6839    1.5587 H   0  0  0  0  0  0  0  0  0  0  0  0
  1  2  1  0  0  0  0
  2  3  1  0  0  0  0
  2  4  1  0  0  0  0
  2  5  1  0  0  0  0
  5  6  2  0  0  0  0
  5  7  1  0  0  0  0
  7  8  1  0  0  0  0
  7  9  1  0  0  0  0
  9 10  1  0  0  0  0
  9 11  1  0  0  0  0
  9 24  1  0  0  0  0
 11 12  1  0  0  0  0
 11 13  1  0  0  0  0
 11 17  1  0  0  0  0
 13 14  1  0  0  0  0
 13 15  1  0  0  0  0
 13 16  1  0  0  0  0
 17 18  1  0  0  0  0
 17 19  1  0  0  0  0
 17 20  1  0  0  0  0
 20 21  1  0  0  0  0
 20 22  1  0  0  0  0
 20 23  1  0  0  0  0
 24 25  2  0  0  0  0
 24 26  1  0  0  0  0
 26 27  1  0  0  0  0
 26 28  1  0  0  0  0
 28 29  1  0  0  0  0
 28 30  1  0  0  0  0
 28 31  1  0  0  0  0
M  END
$$$$

  -OEChem-03222214053D

 31 30  0     1  0  0  0  0  0999 V2000
   -2.9139   -3.9268    1.7763 H   0  0  0  0  0  0  0  0  0  0  0  0
   -2.9579   -2.9275    1.3343 C   0  0  0  0  0  0  0  0  0  0  0  0
   -3.5399   -2.2769    1.9915 H   0  0  0  0  0  0  0  0  0  0  0  0
   -3.4551   -2.9930    0.3636 H   0  0  0  0  0  0  0  0  0  0  0  0
   -1.5579   -2.3701    1.1607 C   0  0  0  0  0  0  0  0  0  0  0  0
   -0.5893   -3.0418    1.4798 O   0  0  0  0  0  0  0  0  0  0  0  0
   -1.3887   -1.1023    0.6469 N   0  0  0  0  0  0  0  0  0  0  0  0
   -2.2250   -0.5473    0.4736 H   0  0  0  0  0  0  0  0  0  0  0  0
   -0.0982   -0.4214    0.4826 C   0  0  1  0  0  0  0  0  0  0  0  0
    0.6466   -0.9041    1.1237 H   0  0  0  0  0  0  0  0  0  0  0  0
    0.4441   -0.4115   -0.9767 C   0  0  1  0  0  0  0  0  0  0  0  0
    1.2444    0.3356   -1.0206 H   0  0  0  0  0  0  0  0  0  0  0  0
    1.0947   -1.7735   -1.2712 C   0  0  0  0  0  0  0  0  0  0  0  0
    0.3701   -2.5872   -1.1764 H   0  0  0  0  0  0  0  0  0  0  0  0
    1.5064   -1.7911   -2.2849 H   0  0  0  0  0  0  0  0  0  0  0  0
    1.9128   -1.9641   -0.5697 H   0  0  0  0  0  0  0  0  0  0  0  0
   -0.5532   -0.0554   -2.1166 C   0  0  0  0  0  0  0  0  0  0  0  0
   -0.8994    0.9720   -1.9648 H   0  0  0  0  0  0  0  0  0  0  0  0
    0.0064   -0.0634   -3.0577 H   0  0  0  0  0  0  0  0  0  0  0  0
   -1.7912   -0.9435   -2.3099 C   0  0  0  0  0  0  0  0  0  0  0  0
   -2.5499   -0.7350   -1.5523 H   0  0  0  0  0  0  0  0  0  0  0  0
   -2.2395   -0.7340   -3.2857 H   0  0  0  0  0  0  0  0  0  0  0  0
   -1.5310   -2.0047   -2.2770 H   0  0  0  0  0  0  0  0  0  0  0  0
   -0.2281    1.0309    0.9859 C   0  0  0  0  0  0  0  0  0  0  0  0
   -1.2354    1.6837    0.7339 O   0  0  0  0  0  0  0  0  0  0  0  0
    0.7510    1.5831    1.7912 N   0  0  0  0  0  0  0  0  0  0  0  0
    1.5457    0.9988    2.0341 H   0  0  0  0  0  0  0  0  0  0  0  0
    0.6638    2.9263    2.3507 C   0  0  0  0  0  0  0  0  0  0  0  0
   -0.2281    3.0230    2.9787 H   0  0  0  0  0  0  0  0  0  0  0  0
    1.5440    3.1380    2.9655 H   0  0  0  0  0  0  0  0  0  0  0  0
    0.6138    3.6718    1.5501 H   0  0  0  0  0  0  0  0  0  0  0  0
  1  2  1  0  0  0  0
  2  3  1  0  0  0  0
  2  4  1  0  0  0  0
  2  5  1  0  0  0  0
  5  6  2  0  0  0  0
  5  7  1  0  0  0  0
  7  8  1  0  0  0  0
  7  9  1  0  0  0  0
  9 10  1  0  0  0  0
  9 11  1  0  0  0  0
  9 24  1  0  0  0  0
 11 12  1  0  0  0  0
 11 13  1  0  0  0  0
 11 17  1  0  0  0  0
 13 14  1  0  0  0  0
 13 15  1  0  0  0  0
 13 16  1  0  0  0  0
 17 18  1  0  0  0  0
 17 19  1  0  0  0  0
 17 20  1  0  0  0  0
 20 21  1  0  0  0  0
 20 22  1  0  0  0  0
 20 23  1  0  0  0  0
 24 25  2  0  0  0  0
 24 26  1  0  0  0  0
 26 27  1  0  0  0  0
 26 28  1  0  0  0  0
 28 29  1  0  0  0  0
 28 30  1  0  0  0  0
 28 31  1  0  0  0  0
M  END
$$$$

  -OEChem-03222214053D

 31 30  0     1  0  0  0  0  0999 V2000
   -2.8840   -3.9450    1.8156 H   0  0  0  0  0  0  0  0  0  0  0  0
   -2.9380   -2.9430    1.3808 C   0  0  0  0  0  0  0  0  0  0  0  0
   -3.5098   -2.2982    2.0525 H   0  0  0  0  0  0  0  0  0  0  0  0
   -3.4523   -3.0026    0.4185 H   0  0  0  0  0  0  0  0  0  0  0  0
   -1.5424   -2.3814    1.1863 C   0  0  0  0  0  0  0  0  0  0  0  0
   -0.5666   -3.0509    1.4875 O   0  0  0  0  0  0  0  0  0  0  0  0
   -1.3849   -1.1124    0.6718 N   0  0  0  0  0  0  0  0  0  0  0  0
   -2.2253   -0.5584    0.5159 H   0  0  0  0  0  0  0  0  0  0  0  0
   -0.0986   -0.4264    0.4903 C   0  0  1  0  0  0  0  0  0  0  0  0
    0.6542   -0.9062    1.1242 H   0  0  0  0  0  0  0  0  0  0  0  0
    0.4390   -0.3941   -0.9732 C   0  0  1  0  0  0  0  0  0  0  0  0
    1.2596    0.3310   -1.0091 H   0  0  0  0  0  0  0  0  0  0  0  0
    1.0462   -1.7742   -1.2797 C   0  0  0  0  0  0  0  0  0  0  0  0
    0.2769   -2.5520   -1.2641 H   0  0  0  0  0  0  0  0  0  0  0  0
    1.5206   -1.7766   -2.2659 H   0  0  0  0  0  0  0  0  0  0  0  0
    1.8094   -2.0322   -0.5389 H   0  0  0  0  0  0  0  0  0  0  0  0
   -0.5372   -0.0300   -2.1320 C   0  0  0  0  0  0  0  0  0  0  0  0
   -0.6887    1.0542   -2.1091 H   0  0  0  0  0  0  0  0  0  0  0  0
   -0.0425   -0.2570   -3.0821 H   0  0  0  0  0  0  0  0  0  0  0  0
   -1.9268   -0.6756   -2.1605 C   0  0  0  0  0  0  0  0  0  0  0  0
   -2.5758   -0.2398   -1.3966 H   0  0  0  0  0  0  0  0  0  0  0  0
   -2.3951   -0.4947   -3.1328 H   0  0  0  0  0  0  0  0  0  0  0  0
   -1.8599   -1.7568   -2.0093 H   0  0  0  0  0  0  0  0  0  0  0  0
   -0.2322    1.0236    0.9985 C   0  0  0  0  0  0  0  0  0  0  0  0
   -1.2469    1.6699    0.7598 O   0  0  0  0  0  0  0  0  0  0  0  0
    0.7529    1.5813    1.7927 N   0  0  0  0  0  0  0  0  0  0  0  0
    1.5582    1.0048    2.0190 H   0  0  0  0  0  0  0  0  0  0  0  0
    0.6619    2.9213    2.3596 C   0  0  0  0  0  0  0  0  0  0  0  0
   -0.2263    3.0100    2.9939 H   0  0  0  0  0  0  0  0  0  0  0  0
    1.5448    3.1343    2.9699 H   0  0  0  0  0  0  0  0  0  0  0  0
    0.6030    3.6708    1.5634 H   0  0  0  0  0  0  0  0  0  0  0  0
  1  2  1  0  0  0  0
  2  3  1  0  0  0  0
  2  4  1  0  0  0  0
  2  5  1  0  0  0  0
  5  6  2  0  0  0  0
  5  7  1  0  0  0  0
  7  8  1  0  0  0  0
  7  9  1  0  0  0  0
  9 10  1  0  0  0  0
  9 11  1  0  0  0  0
  9 24  1  0  0  0  0
 11 12  1  0  0  0  0
 11 13  1  0  0  0  0
 11 17  1  0  0  0  0
 13 14  1  0  0  0  0
 13 15  1  0  0  0  0
 13 16  1  0  0  0  0
 17 18  1  0  0  0  0
 17 19  1  0  0  0  0
 17 20  1  0  0  0  0
 20 21  1  0  0  0  0
 20 22  1  0  0  0  0
 20 23  1  0  0  0  0
 24 25  2  0  0  0  0
 24 26  1  0  0  0  0
 26 27  1  0  0  0  0
 26 28  1  0  0  0  0
 28 29  1  0  0  0  0
 28 30  1  0  0  0  0
 28 31  1  0  0  0  0
M  END
$$$$

  -OEChem-03222214053D

 31 30  0     1  0  0  0  0  0999 V2000
   -2.8597   -3.9535    1.8329 H   0  0  0  0  0  0  0  0  0  0  0  0
   -2.9225   -2.9485    1.4065 C   0  0  0  0  0  0  0  0  0  0  0  0
   -3.4847   -2.3096    2.0917 H   0  0  0  0  0  0  0  0  0  0  0  0
   -3.4516   -3.0022    0.4521 H   0  0  0  0  0  0  0  0  0  0  0  0
   -1.5312   -2.3830    1.1942 C   0  0  0  0  0  0  0  0  0  0  0  0
   -0.5499   -3.0504    1.4820 O   0  0  0  0  0  0  0  0  0  0  0  0
   -1.3842   -1.1111    0.6838 N   0  0  0  0  0  0  0  0  0  0  0  0
   -2.2283   -0.5596    0.5404 H   0  0  0  0  0  0  0  0  0  0  0  0
   -0.1021   -0.4192    0.4923 C   0  0  1  0  0  0  0  0  0  0  0  0
    0.6551   -0.8979    1.1216 H   0  0  0  0  0  0  0  0  0  0  0  0
    0.4311   -0.3805   -0.9743 C   0  0  1  0  0  0  0  0  0  0  0  0
    1.2605    0.3349   -1.0076 H   0  0  0  0  0  0  0  0  0  0  0  0
    1.0225   -1.7692   -1.2777 C   0  0  0  0  0  0  0  0  0  0  0  0
    0.2325   -2.5261   -1.3124 H   0  0  0  0  0  0  0  0  0  0  0  0
    1.5419   -1.7660   -2.2411 H   0  0  0  0  0  0  0  0  0  0  0  0
    1.7457   -2.0607   -0.5095 H   0  0  0  0  0  0  0  0  0  0  0  0
   -0.5327   -0.0204   -2.1494 C   0  0  0  0  0  0  0  0  0  0  0  0
   -0.4848    1.0660   -2.2772 H   0  0  0  0  0  0  0  0  0  0  0  0
   -0.1488   -0.4589   -3.0764 H   0  0  0  0  0  0  0  0  0  0  0  0
   -2.0186   -0.3735   -2.0409 C   0  0  0  0  0  0  0  0  0  0  0  0
   -2.5014    0.2008   -1.2456 H   0  0  0  0  0  0  0  0  0  0  0  0
   -2.5235   -0.1277   -2.9801 H   0  0  0  0  0  0  0  0  0  0  0  0
   -2.1496   -1.4435   -1.8543 H   0  0  0  0  0  0  0  0  0  0  0  0
   -0.2323    1.0289    1.0074 C   0  0  0  0  0  0  0  0  0  0  0  0
   -1.2528    1.6736    0.7906 O   0  0  0  0  0  0  0  0  0  0  0  0
    0.7617    1.5834    1.7927 N   0  0  0  0  0  0  0  0  0  0  0  0
    1.5666    1.0037    2.0121 H   0  0  0  0  0  0  0  0  0  0  0  0
    0.6676    2.9137    2.3814 C   0  0  0  0  0  0  0  0  0  0  0  0
   -0.2006    2.9781    3.0456 H   0  0  0  0  0  0  0  0  0  0  0  0
    1.5665    3.1335    2.9655 H   0  0  0  0  0  0  0  0  0  0  0  0
    0.5700    3.6730    1.5985 H   0  0  0  0  0  0  0  0  0  0  0  0
  1  2  1  0  0  0  0
  2  3  1  0  0  0  0
  2  4  1  0  0  0  0
  2  5  1  0  0  0  0
  5  6  2  0  0  0  0
  5  7  1  0  0  0  0
  7  8  1  0  0  0  0
  7  9  1  0  0  0  0
  9 10  1  0  0  0  0
  9 11  1  0  0  0  0
  9 24  1  0  0  0  0
 11 12  1  0  0  0  0
 11 13  1  0  0  0  0
 11 17  1  0  0  0  0
 13 14  1  0  0  0  0
 13 15  1  0  0  0  0
 13 16  1  0  0  0  0
 17 18  1  0  0  0  0
 17 19  1  0  0  0  0
 17 20  1  0  0  0  0
 20 21  1  0  0  0  0
 20 22  1  0  0  0  0
 20 23  1  0  0  0  0
 24 25  2  0  0  0  0
 24 26  1  0  0  0  0
 26 27  1  0  0  0  0
 26 28  1  0  0  0  0
 28 29  1  0  0  0  0
 28 30  1  0  0  0  0
 28 31  1  0  0  0  0
M  END
$$$$

  -OEChem-03222214053D

 31 30  0     1  0  0  0  0  0999 V2000
   -2.8453   -3.9584    1.8124 H   0  0  0  0  0  0  0  0  0  0  0  0
   -2.9198   -2.9523    1.3904 C   0  0  0  0  0  0  0  0  0  0  0  0
   -3.4862   -2.3223    2.0805 H   0  0  0  0  0  0  0  0  0  0  0  0
   -3.4516   -3.0079    0.4374 H   0  0  0  0  0  0  0  0  0  0  0  0
   -1.5350   -2.3714    1.1765 C   0  0  0  0  0  0  0  0  0  0  0  0
   -0.5467   -3.0357    1.4471 O   0  0  0  0  0  0  0  0  0  0  0  0
   -1.4019   -1.0896    0.6866 N   0  0  0  0  0  0  0  0  0  0  0  0
   -2.2521   -0.5440    0.5571 H   0  0  0  0  0  0  0  0  0  0  0  0
   -0.1268   -0.3846    0.4914 C   0  0  1  0  0  0  0  0  0  0  0  0
    0.6309   -0.8679    1.1166 H   0  0  0  0  0  0  0  0  0  0  0  0
    0.4047   -0.3653   -0.9766 C   0  0  1  0  0  0  0  0  0  0  0  0
    1.2190    0.3666   -1.0157 H   0  0  0  0  0  0  0  0  0  0  0  0
    1.0349   -1.7423   -1.2559 C   0  0  0  0  0  0  0  0  0  0  0  0
    0.2652   -2.5203   -1.2828 H   0  0  0  0  0  0  0  0  0  0  0  0
    1.5580   -1.7380   -2.2174 H   0  0  0  0  0  0  0  0  0  0  0  0
    1.7630   -2.0030   -0.4814 H   0  0  0  0  0  0  0  0  0  0  0  0
   -0.5549   -0.0393   -2.1690 C   0  0  0  0  0  0  0  0  0  0  0  0
   -0.3186    0.9814   -2.4870 H   0  0  0  0  0  0  0  0  0  0  0  0
   -0.3223   -0.6884   -3.0194 H   0  0  0  0  0  0  0  0  0  0  0  0
   -2.0716   -0.0778   -1.9600 C   0  0  0  0  0  0  0  0  0  0  0  0
   -2.3832    0.6109   -1.1717 H   0  0  0  0  0  0  0  0  0  0  0  0
   -2.5750    0.2234   -2.8837 H   0  0  0  0  0  0  0  0  0  0  0  0
   -2.4016   -1.0910   -1.7139 H   0  0  0  0  0  0  0  0  0  0  0  0
   -0.2318    1.0597    1.0257 C   0  0  0  0  0  0  0  0  0  0  0  0
   -1.2570    1.7126    0.8680 O   0  0  0  0  0  0  0  0  0  0  0  0
    0.7857    1.5901    1.7981 N   0  0  0  0  0  0  0  0  0  0  0  0
    1.5953    1.0033    1.9778 H   0  0  0  0  0  0  0  0  0  0  0  0
    0.7157    2.9066    2.4207 C   0  0  0  0  0  0  0  0  0  0  0  0
   -0.1353    2.9610    3.1079 H   0  0  0  0  0  0  0  0  0  0  0  0
    1.6303    3.1064    2.9871 H   0  0  0  0  0  0  0  0  0  0  0  0
    0.6041    3.6853    1.6588 H   0  0  0  0  0  0  0  0  0  0  0  0
  1  2  1  0  0  0  0
  2  3  1  0  0  0  0
  2  4  1  0  0  0  0
  2  5  1  0  0  0  0
  5  6  2  0  0  0  0
  5  7  1  0  0  0  0
  7  8  1  0  0  0  0
  7  9  1  0  0  0  0
  9 10  1  0  0  0  0
  9 11  1  0  0  0  0
  9 24  1  0  0  0  0
 11 12  1  0  0  0  0
 11 13  1  0  0  0  0
 11 17  1  0  0  0  0
 13 14  1  0  0  0  0
 13 15  1  0  0  0  0
 13 16  1  0  0  0  0
 17 18  1  0  0  0  0
 17 19  1  0  0  0  0
 17 20  1  0  0  0  0
 20 21  1  0  0  0  0
 20 22  1  0  0  0  0
 20 23  1  0  0  0  0
 24 25  2  0  0  0  0
 24 26  1  0  0  0  0
 26 27  1  0  0  0  0
 26 28  1  0  0  0  0
 28 29  1  0  0  0  0
 28 30  1  0  0  0  0
 28 31  1  0  0  0  0
M  END
$$$$

  -OEChem-03222214053D

 31 30  0     1  0  0  0  0  0999 V2000
   -2.8525   -3.9476    1.7538 H   0  0  0  0  0  0  0  0  0  0  0  0
   -2.9295   -2.9317    1.3563 C   0  0  0  0  0  0  0  0  0  0  0  0
   -3.4917   -2.3179    2.0643 H   0  0  0  0  0  0  0  0  0  0  0  0
   -3.4672   -2.9647    0.4057 H   0  0  0  0  0  0  0  0  0  0  0  0
   -1.5464   -2.3452    1.1469 C   0  0  0  0  0  0  0  0  0  0  0  0
   -0.5562   -3.0141    1.3990 O   0  0  0  0  0  0  0  0  0  0  0  0
   -1.4189   -1.0543    0.6800 N   0  0  0  0  0  0  0  0  0  0  0  0
   -2.2709   -0.5065    0.5747 H   0  0  0  0  0  0  0  0  0  0  0  0
   -0.1481   -0.3430    0.4828 C   0  0  1  0  0  0  0  0  0  0  0  0
    0.6058   -0.8341    1.1063 H   0  0  0  0  0  0  0  0  0  0  0  0
    0.3821   -0.3592   -0.9857 C   0  0  1  0  0  0  0  0  0  0  0  0
    1.1716    0.3992   -1.0342 H   0  0  0  0  0  0  0  0  0  0  0  0
    1.0640   -1.7157   -1.2393 C   0  0  0  0  0  0  0  0  0  0  0  0
    0.3271   -2.5252   -1.2330 H   0  0  0  0  0  0  0  0  0  0  0  0
    1.5695   -1.7142   -2.2102 H   0  0  0  0  0  0  0  0  0  0  0  0
    1.8144   -1.9255   -0.4708 H   0  0  0  0  0  0  0  0  0  0  0  0
   -0.5763   -0.0731   -2.1904 C   0  0  0  0  0  0  0  0  0  0  0  0
   -0.1662    0.7895   -2.7256 H   0  0  0  0  0  0  0  0  0  0  0  0
   -0.5452   -0.9148   -2.8902 H   0  0  0  0  0  0  0  0  0  0  0  0
   -2.0562    0.2277   -1.9340 C   0  0  0  0  0  0  0  0  0  0  0  0
   -2.1792    1.0670   -1.2485 H   0  0  0  0  0  0  0  0  0  0  0  0
   -2.5400    0.4969   -2.8777 H   0  0  0  0  0  0  0  0  0  0  0  0
   -2.5734   -0.6497   -1.5381 H   0  0  0  0  0  0  0  0  0  0  0  0
   -0.2255    1.0960    1.0389 C   0  0  0  0  0  0  0  0  0  0  0  0
   -1.2625    1.7443    0.9656 O   0  0  0  0  0  0  0  0  0  0  0  0
    0.8151    1.5985    1.7993 N   0  0  0  0  0  0  0  0  0  0  0  0
    1.6296    1.0061    1.9318 H   0  0  0  0  0  0  0  0  0  0  0  0
    0.7611    2.8852    2.4829 C   0  0  0  0  0  0  0  0  0  0  0  0
   -0.0643    2.9024    3.2025 H   0  0  0  0  0  0  0  0  0  0  0  0
    1.6949    3.0654    3.0240 H   0  0  0  0  0  0  0  0  0  0  0  0
    0.6177    3.6966    1.7615 H   0  0  0  0  0  0  0  0  0  0  0  0
  1  2  1  0  0  0  0
  2  3  1  0  0  0  0
  2  4  1  0  0  0  0
  2  5  1  0  0  0  0
  5  6  2  0  0  0  0
  5  7  1  0  0  0  0
  7  8  1  0  0  0  0
  7  9  1  0  0  0  0
  9 10  1  0  0  0  0
  9 11  1  0  0  0  0
  9 24  1  0  0  0  0
 11 12  1  0  0  0  0
 11 13  1  0  0  0  0
 11 17  1  0  0  0  0
 13 14  1  0  0  0  0
 13 15  1  0  0  0  0
 13 16  1  0  0  0  0
 17 18  1  0  0  0  0
 17 19  1  0  0  0  0
 17 20  1  0  0  0  0
 20 21  1  0  0  0  0
 20 22  1  0  0  0  0
 20 23  1  0  0  0  0
 24 25  2  0  0  0  0
 24 26  1  0  0  0  0
 26 27  1  0  0  0  0
 26 28  1  0  0  0  0
 28 29  1  0  0  0  0
 28 30  1  0  0  0  0
 28 31  1  0  0  0  0
M  END
$$$$

  -OEChem-03222214053D

 31 30  0     1  0  0  0  0  0999 V2000
   -2.8804   -3.9266    1.7062 H   0  0  0  0  0  0  0  0  0  0  0  0
   -2.9490   -2.9033    1.3267 C   0  0  0  0  0  0  0  0  0  0  0  0
   -3.4933   -2.2942    2.0524 H   0  0  0  0  0  0  0  0  0  0  0  0
   -3.5001   -2.9133    0.3834 H   0  0  0  0  0  0  0  0  0  0  0  0
   -1.5609   -2.3320    1.1078 C   0  0  0  0  0  0  0  0  0  0  0  0
   -0.5766   -3.0137    1.3486 O   0  0  0  0  0  0  0  0  0  0  0  0
   -1.4220   -1.0381    0.6523 N   0  0  0  0  0  0  0  0  0  0  0  0
   -2.2678   -0.4759    0.5751 H   0  0  0  0  0  0  0  0  0  0  0  0
   -0.1448   -0.3333    0.4708 C   0  0  1  0  0  0  0  0  0  0  0  0
    0.6024   -0.8324    1.0960 H   0  0  0  0  0  0  0  0  0  0  0  0
    0.3876   -0.3641   -0.9953 C   0  0  1  0  0  0  0  0  0  0  0  0
    1.1649    0.4067   -1.0419 H   0  0  0  0  0  0  0  0  0  0  0  0
    1.0881   -1.7094   -1.2527 C   0  0  0  0  0  0  0  0  0  0  0  0
    0.3662   -2.5319   -1.2307 H   0  0  0  0  0  0  0  0  0  0  0  0
    1.5769   -1.7034   -2.2321 H   0  0  0  0  0  0  0  0  0  0  0  0
    1.8531   -1.9015   -0.4939 H   0  0  0  0  0  0  0  0  0  0  0  0
   -0.5686   -0.0788   -2.1977 C   0  0  0  0  0  0  0  0  0  0  0  0
   -0.0272    0.5522   -2.9101 H   0  0  0  0  0  0  0  0  0  0  0  0
   -0.7788   -1.0233   -2.7107 H   0  0  0  0  0  0  0  0  0  0  0  0
   -1.9320    0.5699   -1.9383 C   0  0  0  0  0  0  0  0  0  0  0  0
   -1.8114    1.5411   -1.4538 H   0  0  0  0  0  0  0  0  0  0  0  0
   -2.4396    0.7368   -2.8931 H   0  0  0  0  0  0  0  0  0  0  0  0
   -2.5801   -0.0644   -1.3319 H   0  0  0  0  0  0  0  0  0  0  0  0
   -0.2221    1.1009    1.0393 C   0  0  0  0  0  0  0  0  0  0  0  0
   -1.2694    1.7362    0.9961 O   0  0  0  0  0  0  0  0  0  0  0  0
    0.8146    1.5913    1.8129 N   0  0  0  0  0  0  0  0  0  0  0  0
    1.6344    1.0025    1.9276 H   0  0  0  0  0  0  0  0  0  0  0  0
    0.7512    2.8577    2.5324 C   0  0  0  0  0  0  0  0  0  0  0  0
   -0.0587    2.8403    3.2692 H   0  0  0  0  0  0  0  0  0  0  0  0
    1.6930    3.0411    3.0584 H   0  0  0  0  0  0  0  0  0  0  0  0
    0.5777    3.6853    1.8367 H   0  0  0  0  0  0  0  0  0  0  0  0
  1  2  1  0  0  0  0
  2  3  1  0  0  0  0
  2  4  1  0  0  0  0
  2  5  1  0  0  0  0
  5  6  2  0  0  0  0
  5  7  1  0  0  0  0
  7  8  1  0  0  0  0
  7  9  1  0  0  0  0
  9 10  1  0  0  0  0
  9 11  1  0  0  0  0
  9 24  1  0  0  0  0
 11 12  1  0  0  0  0
 11 13  1  0  0  0  0
 11 17  1  0  0  0  0
 13 14  1  0  0  0  0
 13 15  1  0  0  0  0
 13 16  1  0  0  0  0
 17 18  1  0  0  0  0
 17 19  1  0  0  0  0
 17 20  1  0  0  0  0
 20 21  1  0  0  0  0
 20 22  1  0  0  0  0
 20 23  1  0  0  0  0
 24 25  2  0  0  0  0
 24 26  1  0  0  0  0
 26 27  1  0  0  0  0
 26 28  1  0  0  0  0
 28 29  1  0  0  0  0
 28 30  1  0  0  0  0
 28 31  1  0  0  0  0
M  END
$$$$

  -OEChem-03222214053D

 31 30  0     1  0  0  0  0  0999 V2000
   -2.8922   -3.9104    1.6562 H   0  0  0  0  0  0  0  0  0  0  0  0
   -2.9552   -2.8870    1.2760 C   0  0  0  0  0  0  0  0  0  0  0  0
   -3.5066   -2.2771    1.9957 H   0  0  0  0  0  0  0  0  0  0  0  0
   -3.4960   -2.8966    0.3265 H   0  0  0  0  0  0  0  0  0  0  0  0
   -1.5638   -2.3173    1.0736 C   0  0  0  0  0  0  0  0  0  0  0  0
   -0.5837   -2.9979    1.3336 O   0  0  0  0  0  0  0  0  0  0  0  0
   -1.4177   -1.0236    0.6190 N   0  0  0  0  0  0  0  0  0  0  0  0
   -2.2622   -0.4623    0.5260 H   0  0  0  0  0  0  0  0  0  0  0  0
   -0.1368   -0.3182    0.4572 C   0  0  1  0  0  0  0  0  0  0  0  0
    0.6027   -0.8184    1.0908 H   0  0  0  0  0  0  0  0  0  0  0  0
    0.4010   -0.3715   -1.0040 C   0  0  1  0  0  0  0  0  0  0  0  0
    1.1760    0.4006   -1.0642 H   0  0  0  0  0  0  0  0  0  0  0  0
    1.0939   -1.7193   -1.2605 C   0  0  0  0  0  0  0  0  0  0  0  0
    0.3722   -2.5410   -1.2244 H   0  0  0  0  0  0  0  0  0  0  0  0
    1.5696   -1.7207   -2.2460 H   0  0  0  0  0  0  0  0  0  0  0  0
    1.8673   -1.9061   -0.5092 H   0  0  0  0  0  0  0  0  0  0  0  0
   -0.5741   -0.0980   -2.1855 C   0  0  0  0  0  0  0  0  0  0  0  0
    0.0106    0.2830   -3.0292 H   0  0  0  0  0  0  0  0  0  0  0  0
   -1.0116   -1.0509   -2.5009 H   0  0  0  0  0  0  0  0  0  0  0  0
   -1.7480    0.8542   -1.9423 C   0  0  0  0  0  0  0  0  0  0  0  0
   -1.3815    1.8383   -1.6367 H   0  0  0  0  0  0  0  0  0  0  0  0
   -2.3152    0.9792   -2.8693 H   0  0  0  0  0  0  0  0  0  0  0  0
   -2.4342    0.4742   -1.1836 H   0  0  0  0  0  0  0  0  0  0  0  0
   -0.2138    1.1187    1.0208 C   0  0  0  0  0  0  0  0  0  0  0  0
   -1.2594    1.7563    0.9698 O   0  0  0  0  0  0  0  0  0  0  0  0
    0.8147    1.6061    1.8072 N   0  0  0  0  0  0  0  0  0  0  0  0
    1.6280    1.0116    1.9387 H   0  0  0  0  0  0  0  0  0  0  0  0
    0.7399    2.8677    2.5344 C   0  0  0  0  0  0  0  0  0  0  0  0
   -0.0724    2.8388    3.2682 H   0  0  0  0  0  0  0  0  0  0  0  0
    1.6786    3.0551    3.0645 H   0  0  0  0  0  0  0  0  0  0  0  0
    0.5621    3.6986    1.8437 H   0  0  0  0  0  0  0  0  0  0  0  0
  1  2  1  0  0  0  0
  2  3  1  0  0  0  0
  2  4  1  0  0  0  0
  2  5  1  0  0  0  0
  5  6  2  0  0  0  0
  5  7  1  0  0  0  0
  7  8  1  0  0  0  0
  7  9  1  0  0  0  0
  9 10  1  0  0  0  0
  9 11  1  0  0  0  0
  9 24  1  0  0  0  0
 11 12  1  0  0  0  0
 11 13  1  0  0  0  0
 11 17  1  0  0  0  0
 13 14  1  0  0  0  0
 13 15  1  0  0  0  0
 13 16  1  0  0  0  0
 17 18  1  0  0  0  0
 17 19  1  0  0  0  0
 17 20  1  0  0  0  0
 20 21  1  0  0  0  0
 20 22  1  0  0  0  0
 20 23  1  0  0  0  0
 24 25  2  0  0  0  0
 24 26  1  0  0  0  0
 26 27  1  0  0  0  0
 26 28  1  0  0  0  0
 28 29  1  0  0  0  0
 28 30  1  0  0  0  0
 28 31  1  0  0  0  0
M  END
$$$$

  -OEChem-03222214053D

 31 30  0     1  0  0  0  0  0999 V2000
   -2.8964   -3.9042    1.6062 H   0  0  0  0  0  0  0  0  0  0  0  0
   -2.9575   -2.8831    1.2197 C   0  0  0  0  0  0  0  0  0  0  0  0
   -3.5300   -2.2739    1.9231 H   0  0  0  0  0  0  0  0  0  0  0  0
   -3.4749   -2.9007    0.2576 H   0  0  0  0  0  0  0  0  0  0  0  0
   -1.5662   -2.3042    1.0470 C   0  0  0  0  0  0  0  0  0  0  0  0
   -0.5872   -2.9788    1.3265 O   0  0  0  0  0  0  0  0  0  0  0  0
   -1.4203   -1.0092    0.5960 N   0  0  0  0  0  0  0  0  0  0  0  0
   -2.2674   -0.4553    0.4830 H   0  0  0  0  0  0  0  0  0  0  0  0
   -0.1416   -0.2966    0.4462 C   0  0  1  0  0  0  0  0  0  0  0  0
    0.5907   -0.7945    1.0895 H   0  0  0  0  0  0  0  0  0  0  0  0
    0.4125   -0.3703   -1.0073 C   0  0  1  0  0  0  0  0  0  0  0  0
    1.1897    0.3978   -1.0838 H   0  0  0  0  0  0  0  0  0  0  0  0
    1.0919   -1.7273   -1.2514 C   0  0  0  0  0  0  0  0  0  0  0  0
    0.3611   -2.5410   -1.2189 H   0  0  0  0  0  0  0  0  0  0  0  0
    1.5763   -1.7392   -2.2327 H   0  0  0  0  0  0  0  0  0  0  0  0
    1.8566   -1.9193   -0.4925 H   0  0  0  0  0  0  0  0  0  0  0  0
   -0.5836   -0.1196   -2.1695 C   0  0  0  0  0  0  0  0  0  0  0  0
   -0.0059    0.0239   -3.0884 H   0  0  0  0  0  0  0  0  0  0  0  0
   -1.2007   -1.0132   -2.3095 H   0  0  0  0  0  0  0  0  0  0  0  0
   -1.5276    1.0717   -2.0102 C   0  0  0  0  0  0  0  0  0  0  0  0
   -0.9659    1.9780   -1.7643 H   0  0  0  0  0  0  0  0  0  0  0  0
   -2.0653    1.2453   -2.9470 H   0  0  0  0  0  0  0  0  0  0  0  0
   -2.2695    0.8833   -1.2305 H   0  0  0  0  0  0  0  0  0  0  0  0
   -0.2151    1.1415    1.0077 C   0  0  0  0  0  0  0  0  0  0  0  0
   -1.2586    1.7827    0.9617 O   0  0  0  0  0  0  0  0  0  0  0  0
    0.8136    1.6225    1.7979 N   0  0  0  0  0  0  0  0  0  0  0  0
    1.6269    1.0269    1.9236 H   0  0  0  0  0  0  0  0  0  0  0  0
    0.7480    2.8872    2.5206 C   0  0  0  0  0  0  0  0  0  0  0  0
   -0.0737    2.8731    3.2443 H   0  0  0  0  0  0  0  0  0  0  0  0
    1.6825    3.0627    3.0620 H   0  0  0  0  0  0  0  0  0  0  0  0
    0.5909    3.7179    1.8246 H   0  0  0  0  0  0  0  0  0  0  0  0
  1  2  1  0  0  0  0
  2  3  1  0  0  0  0
  2  4  1  0  0  0  0
  2  5  1  0  0  0  0
  5  6  2  0  0  0  0
  5  7  1  0  0  0  0
  7  8  1  0  0  0  0
  7  9  1  0  0  0  0
  9 10  1  0  0  0  0
  9 11  1  0  0  0  0
  9 24  1  0  0  0  0
 11 12  1  0  0  0  0
 11 13  1  0  0  0  0
 11 17  1  0  0  0  0
 13 14  1  0  0  0  0
 13 15  1  0  0  0  0
 13 16  1  0  0  0  0
 17 18  1  0  0  0  0
 17 19  1  0  0  0  0
 17 20  1  0  0  0  0
 20 21  1  0  0  0  0
 20 22  1  0  0  0  0
 20 23  1  0  0  0  0
 24 25  2  0  0  0  0
 24 26  1  0  0  0  0
 26 27  1  0  0  0  0
 26 28  1  0  0  0  0
 28 29  1  0  0  0  0
 28 30  1  0  0  0  0
 28 31  1  0  0  0  0
M  END
$$$$

  -OEChem-03222214053D

 31 30  0     1  0  0  0  0  0999 V2000
   -2.8978   -3.8980    1.5956 H   0  0  0  0  0  0  0  0  0  0  0  0
   -2.9584   -2.8765    1.2099 C   0  0  0  0  0  0  0  0  0  0  0  0
   -3.5280   -2.2669    1.9155 H   0  0  0  0  0  0  0  0  0  0  0  0
   -3.4791   -2.8927    0.2495 H   0  0  0  0  0  0  0  0  0  0  0  0
   -1.5663   -2.3003    1.0338 C   0  0  0  0  0  0  0  0  0  0  0  0
   -0.5885   -2.9748    1.3170 O   0  0  0  0  0  0  0  0  0  0  0  0
   -1.4182   -1.0071    0.5779 N   0  0  0  0  0  0  0  0  0  0  0  0
   -2.2647   -0.4526    0.4629 H   0  0  0  0  0  0  0  0  0  0  0  0
   -0.1389   -0.2946    0.4316 C   0  0  1  0  0  0  0  0  0  0  0  0
    0.5897   -0.7890    1.0819 H   0  0  0  0  0  0  0  0  0  0  0  0
    0.4259   -0.3703   -1.0174 C   0  0  1  0  0  0  0  0  0  0  0  0
    1.2157    0.3843   -1.0990 H   0  0  0  0  0  0  0  0  0  0  0  0
    1.0808   -1.7405   -1.2559 C   0  0  0  0  0  0  0  0  0  0  0  0
    0.3312   -2.5375   -1.2440 H   0  0  0  0  0  0  0  0  0  0  0  0
    1.5859   -1.7583   -2.2265 H   0  0  0  0  0  0  0  0  0  0  0  0
    1.8255   -1.9534   -0.4827 H   0  0  0  0  0  0  0  0  0  0  0  0
   -0.5817   -0.1202   -2.1672 C   0  0  0  0  0  0  0  0  0  0  0  0
   -0.0418   -0.2099   -3.1157 H   0  0  0  0  0  0  0  0  0  0  0  0
   -1.3540   -0.8963   -2.1603 H   0  0  0  0  0  0  0  0  0  0  0  0
   -1.2602    1.2487   -2.1518 C   0  0  0  0  0  0  0  0  0  0  0  0
   -0.5333    2.0422   -1.9537 H   0  0  0  0  0  0  0  0  0  0  0  0
   -1.7274    1.4423   -3.1220 H   0  0  0  0  0  0  0  0  0  0  0  0
   -2.0455    1.2806   -1.3933 H   0  0  0  0  0  0  0  0  0  0  0  0
   -0.2174    1.1453    0.9866 C   0  0  0  0  0  0  0  0  0  0  0  0
   -1.2634    1.7818    0.9367 O   0  0  0  0  0  0  0  0  0  0  0  0
    0.8066    1.6301    1.7803 N   0  0  0  0  0  0  0  0  0  0  0  0
    1.6198    1.0356    1.9118 H   0  0  0  0  0  0  0  0  0  0  0  0
    0.7318    2.8914    2.5081 C   0  0  0  0  0  0  0  0  0  0  0  0
   -0.0843    2.8653    3.2379 H   0  0  0  0  0  0  0  0  0  0  0  0
    1.6685    3.0749    3.0431 H   0  0  0  0  0  0  0  0  0  0  0  0
    0.5603    3.7234    1.8170 H   0  0  0  0  0  0  0  0  0  0  0  0
  1  2  1  0  0  0  0
  2  3  1  0  0  0  0
  2  4  1  0  0  0  0
  2  5  1  0  0  0  0
  5  6  2  0  0  0  0
  5  7  1  0  0  0  0
  7  8  1  0  0  0  0
  7  9  1  0  0  0  0
  9 10  1  0  0  0  0
  9 11  1  0  0  0  0
  9 24  1  0  0  0  0
 11 12  1  0  0  0  0
 11 13  1  0  0  0  0
 11 17  1  0  0  0  0
 13 14  1  0  0  0  0
 13 15  1  0  0  0  0
 13 16  1  0  0  0  0
 17 18  1  0  0  0  0
 17 19  1  0  0  0  0
 17 20  1  0  0  0  0
 20 21  1  0  0  0  0
 20 22  1  0  0  0  0
 20 23  1  0  0  0  0
 24 25  2  0  0  0  0
 24 26  1  0  0  0  0
 26 27  1  0  0  0  0
 26 28  1  0  0  0  0
 28 29  1  0  0  0  0
 28 30  1  0  0  0  0
 28 31  1  0  0  0  0
M  END
$$$$

  -OEChem-03222214053D

 31 30  0     1  0  0  0  0  0999 V2000
   -2.8980   -3.8946    1.6215 H   0  0  0  0  0  0  0  0  0  0  0  0
   -2.9573   -2.8782    1.2226 C   0  0  0  0  0  0  0  0  0  0  0  0
   -3.5200   -2.2571    1.9237 H   0  0  0  0  0  0  0  0  0  0  0  0
   -3.4844   -2.9055    0.2660 H   0  0  0  0  0  0  0  0  0  0  0  0
   -1.5639   -2.3100    1.0300 C   0  0  0  0  0  0  0  0  0  0  0  0
   -0.5870   -2.9889    1.3061 O   0  0  0  0  0  0  0  0  0  0  0  0
   -1.4116   -1.0205    0.5650 N   0  0  0  0  0  0  0  0  0  0  0  0
   -2.2546   -0.4575    0.4640 H   0  0  0  0  0  0  0  0  0  0  0  0
   -0.1283   -0.3136    0.4206 C   0  0  1  0  0  0  0  0  0  0  0  0
    0.6003   -0.8047    1.0739 H   0  0  0  0  0  0  0  0  0  0  0  0
    0.4397   -0.3737   -1.0282 C   0  0  1  0  0  0  0  0  0  0  0  0
    1.2489    0.3607   -1.1040 H   0  0  0  0  0  0  0  0  0  0  0  0
    1.0612   -1.7588   -1.2737 C   0  0  0  0  0  0  0  0  0  0  0  0
    0.2884   -2.5333   -1.2930 H   0  0  0  0  0  0  0  0  0  0  0  0
    1.5898   -1.7761   -2.2319 H   0  0  0  0  0  0  0  0  0  0  0  0
    1.7807   -2.0068   -0.4873 H   0  0  0  0  0  0  0  0  0  0  0  0
   -0.5738   -0.1014   -2.1690 C   0  0  0  0  0  0  0  0  0  0  0  0
   -0.1190   -0.4149   -3.1144 H   0  0  0  0  0  0  0  0  0  0  0  0
   -1.4773   -0.7037   -2.0346 H   0  0  0  0  0  0  0  0  0  0  0  0
   -0.9582    1.3706   -2.3273 C   0  0  0  0  0  0  0  0  0  0  0  0
   -0.0724    2.0116   -2.2847 H   0  0  0  0  0  0  0  0  0  0  0  0
   -1.4483    1.5228   -3.2936 H   0  0  0  0  0  0  0  0  0  0  0  0
   -1.6589    1.6778   -1.5493 H   0  0  0  0  0  0  0  0  0  0  0  0
   -0.2248    1.1268    0.9691 C   0  0  0  0  0  0  0  0  0  0  0  0
   -1.2793    1.7485    0.9059 O   0  0  0  0  0  0  0  0  0  0  0  0
    0.7850    1.6268    1.7716 N   0  0  0  0  0  0  0  0  0  0  0  0
    1.6072    1.0461    1.9081 H   0  0  0  0  0  0  0  0  0  0  0  0
    0.6957    2.8988    2.4791 C   0  0  0  0  0  0  0  0  0  0  0  0
   -0.1350    2.8839    3.1925 H   0  0  0  0  0  0  0  0  0  0  0  0
    1.6213    3.0901    3.0306 H   0  0  0  0  0  0  0  0  0  0  0  0
    0.5393    3.7206    1.7725 H   0  0  0  0  0  0  0  0  0  0  0  0
  1  2  1  0  0  0  0
  2  3  1  0  0  0  0
  2  4  1  0  0  0  0
  2  5  1  0  0  0  0
  5  6  2  0  0  0  0
  5  7  1  0  0  0  0
  7  8  1  0  0  0  0
  7  9  1  0  0  0  0
  9 10  1  0  0  0  0
  9 11  1  0  0  0  0
  9 24  1  0  0  0  0
 11 12  1  0  0  0  0
 11 13  1  0  0  0  0
 11 17  1  0  0  0  0
 13 14  1  0  0  0  0
 13 15  1  0  0  0  0
 13 16  1  0  0  0  0
 17 18  1  0  0  0  0
 17 19  1  0  0  0  0
 17 20  1  0  0  0  0
 20 21  1  0  0  0  0
 20 22  1  0  0  0  0
 20 23  1  0  0  0  0
 24 25  2  0  0  0  0
 24 26  1  0  0  0  0
 26 27  1  0  0  0  0
 26 28  1  0  0  0  0
 28 29  1  0  0  0  0
 28 30  1  0  0  0  0
 28 31  1  0  0  0  0
M  END
$$$$

  -OEChem-03222214053D

 31 30  0     1  0  0  0  0  0999 V2000
   -2.9080   -3.8883    1.6532 H   0  0  0  0  0  0  0  0  0  0  0  0
   -2.9586   -2.8763    1.2417 C   0  0  0  0  0  0  0  0  0  0  0  0
   -3.5119   -2.2407    1.9371 H   0  0  0  0  0  0  0  0  0  0  0  0
   -3.4899   -2.9100    0.2875 H   0  0  0  0  0  0  0  0  0  0  0  0
   -1.5604   -2.3247    1.0364 C   0  0  0  0  0  0  0  0  0  0  0  0
   -0.5887   -3.0077    1.3206 O   0  0  0  0  0  0  0  0  0  0  0  0
   -1.3972   -1.0437    0.5526 N   0  0  0  0  0  0  0  0  0  0  0  0
   -2.2346   -0.4727    0.4480 H   0  0  0  0  0  0  0  0  0  0  0  0
   -0.1071   -0.3482    0.4120 C   0  0  1  0  0  0  0  0  0  0  0  0
    0.6233   -0.8347    1.0663 H   0  0  0  0  0  0  0  0  0  0  0  0
    0.4567   -0.3867   -1.0396 C   0  0  1  0  0  0  0  0  0  0  0  0
    1.2816    0.3312   -1.1062 H   0  0  0  0  0  0  0  0  0  0  0  0
    1.0520   -1.7803   -1.3022 C   0  0  0  0  0  0  0  0  0  0  0  0
    0.2653   -2.5407   -1.3239 H   0  0  0  0  0  0  0  0  0  0  0  0
    1.5753   -1.7975   -2.2632 H   0  0  0  0  0  0  0  0  0  0  0  0
    1.7711   -2.0484   -0.5220 H   0  0  0  0  0  0  0  0  0  0  0  0
   -0.5667   -0.0778   -2.1656 C   0  0  0  0  0  0  0  0  0  0  0  0
   -0.2688   -0.6025   -3.0792 H   0  0  0  0  0  0  0  0  0  0  0  0
   -1.5640   -0.4415   -1.9040 H   0  0  0  0  0  0  0  0  0  0  0  0
   -0.6397    1.4126   -2.5084 C   0  0  0  0  0  0  0  0  0  0  0  0
    0.3503    1.7932   -2.7780 H   0  0  0  0  0  0  0  0  0  0  0  0
   -1.3105    1.5643   -3.3594 H   0  0  0  0  0  0  0  0  0  0  0  0
   -1.0219    1.9968   -1.6698 H   0  0  0  0  0  0  0  0  0  0  0  0
   -0.2319    1.0949    0.9442 C   0  0  0  0  0  0  0  0  0  0  0  0
   -1.2870    1.7087    0.8249 O   0  0  0  0  0  0  0  0  0  0  0  0
    0.7525    1.6211    1.7610 N   0  0  0  0  0  0  0  0  0  0  0  0
    1.5753    1.0507    1.9332 H   0  0  0  0  0  0  0  0  0  0  0  0
    0.6329    2.9083    2.4352 C   0  0  0  0  0  0  0  0  0  0  0  0
   -0.2164    2.9017    3.1264 H   0  0  0  0  0  0  0  0  0  0  0  0
    1.5416    3.1220    3.0060 H   0  0  0  0  0  0  0  0  0  0  0  0
    0.4871    3.7113    1.7051 H   0  0  0  0  0  0  0  0  0  0  0  0
  1  2  1  0  0  0  0
  2  3  1  0  0  0  0
  2  4  1  0  0  0  0
  2  5  1  0  0  0  0
  5  6  2  0  0  0  0
  5  7  1  0  0  0  0
  7  8  1  0  0  0  0
  7  9  1  0  0  0  0
  9 10  1  0  0  0  0
  9 11  1  0  0  0  0
  9 24  1  0  0  0  0
 11 12  1  0  0  0  0
 11 13  1  0  0  0  0
 11 17  1  0  0  0  0
 13 14  1  0  0  0  0
 13 15  1  0  0  0  0
 13 16  1  0  0  0  0
 17 18  1  0  0  0  0
 17 19  1  0  0  0  0
 17 20  1  0  0  0  0
 20 21  1  0  0  0  0
 20 22  1  0  0  0  0
 20 23  1  0  0  0  0
 24 25  2  0  0  0  0
 24 26  1  0  0  0  0
 26 27  1  0  0  0  0
 26 28  1  0  0  0  0
 28 29  1  0  0  0  0
 28 30  1  0  0  0  0
 28 31  1  0  0  0  0
M  END
$$$$

  -OEChem-03222214053D

 31 30  0     1  0  0  0  0  0999 V2000
   -2.9199   -3.9065    1.6529 H   0  0  0  0  0  0  0  0  0  0  0  0
   -2.9627   -2.8985    1.2310 C   0  0  0  0  0  0  0  0  0  0  0  0
   -3.5355   -2.2579    1.9059 H   0  0  0  0  0  0  0  0  0  0  0  0
   -3.4696   -2.9428    0.2641 H   0  0  0  0  0  0  0  0  0  0  0  0
   -1.5609   -2.3452    1.0559 C   0  0  0  0  0  0  0  0  0  0  0  0
   -0.5945   -3.0193    1.3770 O   0  0  0  0  0  0  0  0  0  0  0  0
   -1.3870   -1.0739    0.5512 N   0  0  0  0  0  0  0  0  0  0  0  0
   -2.2216   -0.5089    0.4025 H   0  0  0  0  0  0  0  0  0  0  0  0
   -0.0920   -0.3852    0.4207 C   0  0  1  0  0  0  0  0  0  0  0  0
    0.6412   -0.8674    1.0751 H   0  0  0  0  0  0  0  0  0  0  0  0
    0.4622   -0.4003   -1.0321 C   0  0  1  0  0  0  0  0  0  0  0  0
    1.2919    0.3132   -1.0891 H   0  0  0  0  0  0  0  0  0  0  0  0
    1.0483   -1.7908   -1.3258 C   0  0  0  0  0  0  0  0  0  0  0  0
    0.2614   -2.5515   -1.3294 H   0  0  0  0  0  0  0  0  0  0  0  0
    1.5414   -1.7975   -2.3027 H   0  0  0  0  0  0  0  0  0  0  0  0
    1.7907   -2.0648   -0.5699 H   0  0  0  0  0  0  0  0  0  0  0  0
   -0.5833   -0.0568   -2.1291 C   0  0  0  0  0  0  0  0  0  0  0  0
   -0.4956   -0.7546   -2.9682 H   0  0  0  0  0  0  0  0  0  0  0  0
   -1.6055   -0.1422   -1.7523 H   0  0  0  0  0  0  0  0  0  0  0  0
   -0.3754    1.3588   -2.6711 C   0  0  0  0  0  0  0  0  0  0  0  0
    0.6190    1.4561   -3.1177 H   0  0  0  0  0  0  0  0  0  0  0  0
   -1.1227    1.5787   -3.4393 H   0  0  0  0  0  0  0  0  0  0  0  0
   -0.4745    2.0993   -1.8724 H   0  0  0  0  0  0  0  0  0  0  0  0
   -0.2303    1.0659    0.9251 C   0  0  0  0  0  0  0  0  0  0  0  0
   -1.2546    1.7023    0.7005 O   0  0  0  0  0  0  0  0  0  0  0  0
    0.7333    1.6121    1.7529 N   0  0  0  0  0  0  0  0  0  0  0  0
    1.5343    1.0336    1.9890 H   0  0  0  0  0  0  0  0  0  0  0  0
    0.6155    2.9349    2.3539 C   0  0  0  0  0  0  0  0  0  0  0  0
   -0.2707    2.9871    2.9951 H   0  0  0  0  0  0  0  0  0  0  0  0
    1.4971    3.1531    2.9642 H   0  0  0  0  0  0  0  0  0  0  0  0
    0.5343    3.7022    1.5768 H   0  0  0  0  0  0  0  0  0  0  0  0
  1  2  1  0  0  0  0
  2  3  1  0  0  0  0
  2  4  1  0  0  0  0
  2  5  1  0  0  0  0
  5  6  2  0  0  0  0
  5  7  1  0  0  0  0
  7  8  1  0  0  0  0
  7  9  1  0  0  0  0
  9 10  1  0  0  0  0
  9 11  1  0  0  0  0
  9 24  1  0  0  0  0
 11 12  1  0  0  0  0
 11 13  1  0  0  0  0
 11 17  1  0  0  0  0
 13 14  1  0  0  0  0
 13 15  1  0  0  0  0
 13 16  1  0  0  0  0
 17 18  1  0  0  0  0
 17 19  1  0  0  0  0
 17 20  1  0  0  0  0
 20 21  1  0  0  0  0
 20 22  1  0  0  0  0
 20 23  1  0  0  0  0
 24 25  2  0  0  0  0
 24 26  1  0  0  0  0
 26 27  1  0  0  0  0
 26 28  1  0  0  0  0
 28 29  1  0  0  0  0
 28 30  1  0  0  0  0
 28 31  1  0  0  0  0
M  END
$$$$

  -OEChem-03222214053D

 31 30  0     1  0  0  0  0  0999 V2000
   -2.9331   -3.9148    1.6403 H   0  0  0  0  0  0  0  0  0  0  0  0
   -2.9712   -2.9098    1.2108 C   0  0  0  0  0  0  0  0  0  0  0  0
   -3.5576   -2.2665    1.8713 H   0  0  0  0  0  0  0  0  0  0  0  0
   -3.4599   -2.9615    0.2350 H   0  0  0  0  0  0  0  0  0  0  0  0
   -1.5685   -2.3534    1.0573 C   0  0  0  0  0  0  0  0  0  0  0  0
   -0.6059   -3.0238    1.3968 O   0  0  0  0  0  0  0  0  0  0  0  0
   -1.3893   -1.0844    0.5490 N   0  0  0  0  0  0  0  0  0  0  0  0
   -2.2226   -0.5251    0.3745 H   0  0  0  0  0  0  0  0  0  0  0  0
   -0.0923   -0.3971    0.4315 C   0  0  1  0  0  0  0  0  0  0  0  0
    0.6386   -0.8826    1.0862 H   0  0  0  0  0  0  0  0  0  0  0  0
    0.4571   -0.4085   -1.0202 C   0  0  1  0  0  0  0  0  0  0  0  0
    1.2776    0.3162   -1.0691 H   0  0  0  0  0  0  0  0  0  0  0  0
    1.0592   -1.7869   -1.3330 C   0  0  0  0  0  0  0  0  0  0  0  0
    0.2877   -2.5630   -1.3135 H   0  0  0  0  0  0  0  0  0  0  0  0
    1.5217   -1.7824   -2.3250 H   0  0  0  0  0  0  0  0  0  0  0  0
    1.8283   -2.0460   -0.5988 H   0  0  0  0  0  0  0  0  0  0  0  0
   -0.6025   -0.0550   -2.1001 C   0  0  0  0  0  0  0  0  0  0  0  0
   -0.7395   -0.8900   -2.7950 H   0  0  0  0  0  0  0  0  0  0  0  0
   -1.5772    0.1476   -1.6481 H   0  0  0  0  0  0  0  0  0  0  0  0
   -0.1869    1.1873   -2.8890 C   0  0  0  0  0  0  0  0  0  0  0  0
    0.7706    1.0196   -3.3917 H   0  0  0  0  0  0  0  0  0  0  0  0
   -0.9409    1.4208   -3.6466 H   0  0  0  0  0  0  0  0  0  0  0  0
   -0.0890    2.0491   -2.2211 H   0  0  0  0  0  0  0  0  0  0  0  0
   -0.2256    1.0580    0.9259 C   0  0  0  0  0  0  0  0  0  0  0  0
   -1.2268    1.7125    0.6553 O   0  0  0  0  0  0  0  0  0  0  0  0
    0.7320    1.6039    1.7605 N   0  0  0  0  0  0  0  0  0  0  0  0
    1.5230    1.0198    2.0157 H   0  0  0  0  0  0  0  0  0  0  0  0
    0.6356    2.9468    2.3194 C   0  0  0  0  0  0  0  0  0  0  0  0
   -0.2676    3.0443    2.9312 H   0  0  0  0  0  0  0  0  0  0  0  0
    1.5044    3.1569    2.9504 H   0  0  0  0  0  0  0  0  0  0  0  0
    0.6015    3.6932    1.5187 H   0  0  0  0  0  0  0  0  0  0  0  0
  1  2  1  0  0  0  0
  2  3  1  0  0  0  0
  2  4  1  0  0  0  0
  2  5  1  0  0  0  0
  5  6  2  0  0  0  0
  5  7  1  0  0  0  0
  7  8  1  0  0  0  0
  7  9  1  0  0  0  0
  9 10  1  0  0  0  0
  9 11  1  0  0  0  0
  9 24  1  0  0  0  0
 11 12  1  0  0  0  0
 11 13  1  0  0  0  0
 11 17  1  0  0  0  0
 13 14  1  0  0  0  0
 13 15  1  0  0  0  0
 13 16  1  0  0  0  0
 17 18  1  0  0  0  0
 17 19  1  0  0  0  0
 17 20  1  0  0  0  0
 20 21  1  0  0  0  0
 20 22  1  0  0  0  0
 20 23  1  0  0  0  0
 24 25  2  0  0  0  0
 24 26  1  0  0  0  0
 26 27  1  0  0  0  0
 26 28  1  0  0  0  0
 28 29  1  0  0  0  0
 28 30  1  0  0  0  0
 28 31  1  0  0  0  0
M  END
$$$$

  -OEChem-03222214053D

 31 30  0     1  0  0  0  0  0999 V2000
   -2.9414   -3.9048    1.6130 H   0  0  0  0  0  0  0  0  0  0  0  0
   -2.9774   -2.8965    1.1910 C   0  0  0  0  0  0  0  0  0  0  0  0
   -3.5646   -2.2576    1.8550 H   0  0  0  0  0  0  0  0  0  0  0  0
   -3.4643   -2.9405    0.2139 H   0  0  0  0  0  0  0  0  0  0  0  0
   -1.5739   -2.3397    1.0450 C   0  0  0  0  0  0  0  0  0  0  0  0
   -0.6131   -3.0103    1.3890 O   0  0  0  0  0  0  0  0  0  0  0  0
   -1.3924   -1.0688    0.5418 N   0  0  0  0  0  0  0  0  0  0  0  0
   -2.2252   -0.5106    0.3617 H   0  0  0  0  0  0  0  0  0  0  0  0
   -0.0948   -0.3816    0.4304 C   0  0  1  0  0  0  0  0  0  0  0  0
    0.6328   -0.8702    1.0865 H   0  0  0  0  0  0  0  0  0  0  0  0
    0.4535   -0.4124   -1.0198 C   0  0  1  0  0  0  0  0  0  0  0  0
    1.2601    0.3274   -1.0733 H   0  0  0  0  0  0  0  0  0  0  0  0
    1.0738   -1.7826   -1.3296 C   0  0  0  0  0  0  0  0  0  0  0  0
    0.3169   -2.5719   -1.2881 H   0  0  0  0  0  0  0  0  0  0  0  0
    1.5180   -1.7810   -2.3297 H   0  0  0  0  0  0  0  0  0  0  0  0
    1.8596   -2.0198   -0.6059 H   0  0  0  0  0  0  0  0  0  0  0  0
   -0.6129   -0.0718   -2.0925 C   0  0  0  0  0  0  0  0  0  0  0  0
   -0.9638   -0.9823   -2.5891 H   0  0  0  0  0  0  0  0  0  0  0  0
   -1.4859    0.4003   -1.6322 H   0  0  0  0  0  0  0  0  0  0  0  0
   -0.0592    0.9052   -3.1304 C   0  0  0  0  0  0  0  0  0  0  0  0
    0.8124    0.4759   -3.6340 H   0  0  0  0  0  0  0  0  0  0  0  0
   -0.8221    1.1259   -3.8831 H   0  0  0  0  0  0  0  0  0  0  0  0
    0.2365    1.8445   -2.6524 H   0  0  0  0  0  0  0  0  0  0  0  0
   -0.2171    1.0741    0.9274 C   0  0  0  0  0  0  0  0  0  0  0  0
   -1.2180    1.7344    0.6706 O   0  0  0  0  0  0  0  0  0  0  0  0
    0.7459    1.6085    1.7634 N   0  0  0  0  0  0  0  0  0  0  0  0
    1.5320    1.0164    2.0151 H   0  0  0  0  0  0  0  0  0  0  0  0
    0.6503    2.9410    2.3465 C   0  0  0  0  0  0  0  0  0  0  0  0
   -0.2407    3.0205    2.9782 H   0  0  0  0  0  0  0  0  0  0  0  0
    1.5303    3.1474    2.9631 H   0  0  0  0  0  0  0  0  0  0  0  0
    0.5942    3.7006    1.5596 H   0  0  0  0  0  0  0  0  0  0  0  0
  1  2  1  0  0  0  0
  2  3  1  0  0  0  0
  2  4  1  0  0  0  0
  2  5  1  0  0  0  0
  5  6  2  0  0  0  0
  5  7  1  0  0  0  0
  7  8  1  0  0  0  0
  7  9  1  0  0  0  0
  9 10  1  0  0  0  0
  9 11  1  0  0  0  0
  9 24  1  0  0  0  0
 11 12  1  0  0  0  0
 11 13  1  0  0  0  0
 11 17  1  0  0  0  0
 13 14  1  0  0  0  0
 13 15  1  0  0  0  0
 13 16  1  0  0  0  0
 17 18  1  0  0  0  0
 17 19  1  0  0  0  0
 17 20  1  0  0  0  0
 20 21  1  0  0  0  0
 20 22  1  0  0  0  0
 20 23  1  0  0  0  0
 24 25  2  0  0  0  0
 24 26  1  0  0  0  0
 26 27  1  0  0  0  0
 26 28  1  0  0  0  0
 28 29  1  0  0  0  0
 28 30  1  0  0  0  0
 28 31  1  0  0  0  0
M  END
$$$$

  -OEChem-03222214053D

 31 30  0     1  0  0  0  0  0999 V2000
   -2.9456   -3.8969    1.5932 H   0  0  0  0  0  0  0  0  0  0  0  0
   -2.9796   -2.8874    1.1743 C   0  0  0  0  0  0  0  0  0  0  0  0
   -3.5692   -2.2505    1.8380 H   0  0  0  0  0  0  0  0  0  0  0  0
   -3.4625   -2.9285    0.1951 H   0  0  0  0  0  0  0  0  0  0  0  0
   -1.5752   -2.3310    1.0356 C   0  0  0  0  0  0  0  0  0  0  0  0
   -0.6159   -3.0038    1.3794 O   0  0  0  0  0  0  0  0  0  0  0  0
   -1.3920   -1.0582    0.5378 N   0  0  0  0  0  0  0  0  0  0  0  0
   -2.2241   -0.4985    0.3596 H   0  0  0  0  0  0  0  0  0  0  0  0
   -0.0944   -0.3712    0.4288 C   0  0  1  0  0  0  0  0  0  0  0  0
    0.6300   -0.8616    1.0872 H   0  0  0  0  0  0  0  0  0  0  0  0
    0.4569   -0.4125   -1.0204 C   0  0  1  0  0  0  0  0  0  0  0  0
    1.2573    0.3332   -1.0823 H   0  0  0  0  0  0  0  0  0  0  0  0
    1.0793   -1.7857   -1.3180 C   0  0  0  0  0  0  0  0  0  0  0  0
    0.3197   -2.5728   -1.2866 H   0  0  0  0  0  0  0  0  0  0  0  0
    1.5414   -1.7916   -2.3094 H   0  0  0  0  0  0  0  0  0  0  0  0
    1.8525   -2.0233   -0.5809 H   0  0  0  0  0  0  0  0  0  0  0  0
   -0.6141   -0.0796   -2.0871 C   0  0  0  0  0  0  0  0  0  0  0  0
   -1.1532   -0.9865   -2.3801 H   0  0  0  0  0  0  0  0  0  0  0  0
   -1.3504    0.6179   -1.6773 H   0  0  0  0  0  0  0  0  0  0  0  0
    0.0060    0.5795   -3.3210 C   0  0  0  0  0  0  0  0  0  0  0  0
    0.7332   -0.0878   -3.7929 H   0  0  0  0  0  0  0  0  0  0  0  0
   -0.7738    0.8131   -4.0522 H   0  0  0  0  0  0  0  0  0  0  0  0
    0.5104    1.5110   -3.0455 H   0  0  0  0  0  0  0  0  0  0  0  0
   -0.2115    1.0836    0.9311 C   0  0  0  0  0  0  0  0  0  0  0  0
   -1.2163    1.7435    0.6897 O   0  0  0  0  0  0  0  0  0  0  0  0
    0.7546    1.6120    1.7675 N   0  0  0  0  0  0  0  0  0  0  0  0
    1.5420    1.0184    2.0117 H   0  0  0  0  0  0  0  0  0  0  0  0
    0.6604    2.9396    2.3620 C   0  0  0  0  0  0  0  0  0  0  0  0
   -0.2284    3.0132    2.9974 H   0  0  0  0  0  0  0  0  0  0  0  0
    1.5425    3.1419    2.9771 H   0  0  0  0  0  0  0  0  0  0  0  0
    0.6006    3.7056    1.5816 H   0  0  0  0  0  0  0  0  0  0  0  0
  1  2  1  0  0  0  0
  2  3  1  0  0  0  0
  2  4  1  0  0  0  0
  2  5  1  0  0  0  0
  5  6  2  0  0  0  0
  5  7  1  0  0  0  0
  7  8  1  0  0  0  0
  7  9  1  0  0  0  0
  9 10  1  0  0  0  0
  9 11  1  0  0  0  0
  9 24  1  0  0  0  0
 11 12  1  0  0  0  0
 11 13  1  0  0  0  0
 11 17  1  0  0  0  0
 13 14  1  0  0  0  0
 13 15  1  0  0  0  0
 13 16  1  0  0  0  0
 17 18  1  0  0  0  0
 17 19  1  0  0  0  0
 17 20  1  0  0  0  0
 20 21  1  0  0  0  0
 20 22  1  0  0  0  0
 20 23  1  0  0  0  0
 24 25  2  0  0  0  0
 24 26  1  0  0  0  0
 26 27  1  0  0  0  0
 26 28  1  0  0  0  0
 28 29  1  0  0  0  0
 28 30  1  0  0  0  0
 28 31  1  0  0  0  0
M  END
$$$$

  -OEChem-03222214053D

 31 30  0     1  0  0  0  0  0999 V2000
   -2.9480   -3.8904    1.5983 H   0  0  0  0  0  0  0  0  0  0  0  0
   -2.9804   -2.8818    1.1766 C   0  0  0  0  0  0  0  0  0  0  0  0
   -3.5669   -2.2416    1.8400 H   0  0  0  0  0  0  0  0  0  0  0  0
   -3.4657   -2.9240    0.1987 H   0  0  0  0  0  0  0  0  0  0  0  0
   -1.5749   -2.3298    1.0324 C   0  0  0  0  0  0  0  0  0  0  0  0
   -0.6166   -3.0062    1.3721 O   0  0  0  0  0  0  0  0  0  0  0  0
   -1.3890   -1.0577    0.5338 N   0  0  0  0  0  0  0  0  0  0  0  0
   -2.2198   -0.4943    0.3607 H   0  0  0  0  0  0  0  0  0  0  0  0
   -0.0900   -0.3733    0.4256 C   0  0  1  0  0  0  0  0  0  0  0  0
    0.6308   -0.8628    1.0886 H   0  0  0  0  0  0  0  0  0  0  0  0
    0.4695   -0.4138   -1.0221 C   0  0  1  0  0  0  0  0  0  0  0  0
    1.2717    0.3295   -1.0894 H   0  0  0  0  0  0  0  0  0  0  0  0
    1.0873   -1.7952   -1.2995 C   0  0  0  0  0  0  0  0  0  0  0  0
    0.3137   -2.5690   -1.3222 H   0  0  0  0  0  0  0  0  0  0  0  0
    1.6126   -1.8020   -2.2583 H   0  0  0  0  0  0  0  0  0  0  0  0
    1.8111   -2.0551   -0.5208 H   0  0  0  0  0  0  0  0  0  0  0  0
   -0.6044   -0.0773   -2.0852 C   0  0  0  0  0  0  0  0  0  0  0  0
   -1.3065   -0.9109   -2.1884 H   0  0  0  0  0  0  0  0  0  0  0  0
   -1.1774    0.7972   -1.7636 H   0  0  0  0  0  0  0  0  0  0  0  0
    0.0048    0.2419   -3.4532 C   0  0  0  0  0  0  0  0  0  0  0  0
    0.5082   -0.6325   -3.8745 H   0  0  0  0  0  0  0  0  0  0  0  0
   -0.7833    0.5485   -4.1477 H   0  0  0  0  0  0  0  0  0  0  0  0
    0.7281    1.0589   -3.3693 H   0  0  0  0  0  0  0  0  0  0  0  0
   -0.2091    1.0813    0.9276 C   0  0  0  0  0  0  0  0  0  0  0  0
   -1.2156    1.7390    0.6868 O   0  0  0  0  0  0  0  0  0  0  0  0
    0.7547    1.6109    1.7659 N   0  0  0  0  0  0  0  0  0  0  0  0
    1.5441    1.0193    2.0090 H   0  0  0  0  0  0  0  0  0  0  0  0
    0.6581    2.9386    2.3602 C   0  0  0  0  0  0  0  0  0  0  0  0
   -0.2319    3.0118    2.9941 H   0  0  0  0  0  0  0  0  0  0  0  0
    1.5389    3.1423    2.9766 H   0  0  0  0  0  0  0  0  0  0  0  0
    0.5986    3.7042    1.5794 H   0  0  0  0  0  0  0  0  0  0  0  0
  1  2  1  0  0  0  0
  2  3  1  0  0  0  0
  2  4  1  0  0  0  0
  2  5  1  0  0  0  0
  5  6  2  0  0  0  0
  5  7  1  0  0  0  0
  7  8  1  0  0  0  0
  7  9  1  0  0  0  0
  9 10  1  0  0  0  0
  9 11  1  0  0  0  0
  9 24  1  0  0  0  0
 11 12  1  0  0  0  0
 11 13  1  0  0  0  0
 11 17  1  0  0  0  0
 13 14  1  0  0  0  0
 13 15  1  0  0  0  0
 13 16  1  0  0  0  0
 17 18  1  0  0  0  0
 17 19  1  0  0  0  0
 17 20  1  0  0  0  0
 20 21  1  0  0  0  0
 20 22  1  0  0  0  0
 20 23  1  0  0  0  0
 24 25  2  0  0  0  0
 24 26  1  0  0  0  0
 26 27  1  0  0  0  0
 26 28  1  0  0  0  0
 28 29  1  0  0  0  0
 28 30  1  0  0  0  0
 28 31  1  0  0  0  0
M  END
$$$$

  -OEChem-03222214053D

 31 30  0     1  0  0  0  0  0999 V2000
   -2.9575   -3.8815    1.5723 H   0  0  0  0  0  0  0  0  0  0  0  0
   -2.9884   -2.8689    1.1603 C   0  0  0  0  0  0  0  0  0  0  0  0
   -3.5723   -2.2333    1.8304 H   0  0  0  0  0  0  0  0  0  0  0  0
   -3.4756   -2.9007    0.1829 H   0  0  0  0  0  0  0  0  0  0  0  0
   -1.5819   -2.3184    1.0194 C   0  0  0  0  0  0  0  0  0  0  0  0
   -0.6247   -2.9987    1.3545 O   0  0  0  0  0  0  0  0  0  0  0  0
   -1.3956   -1.0420    0.5315 N   0  0  0  0  0  0  0  0  0  0  0  0
   -2.2274   -0.4771    0.3685 H   0  0  0  0  0  0  0  0  0  0  0  0
   -0.0982   -0.3547    0.4173 C   0  0  1  0  0  0  0  0  0  0  0  0
    0.6216   -0.8528    1.0751 H   0  0  0  0  0  0  0  0  0  0  0  0
    0.4680   -0.4105   -1.0283 C   0  0  1  0  0  0  0  0  0  0  0  0
    1.4121    0.1449   -1.0324 H   0  0  0  0  0  0  0  0  0  0  0  0
    0.7915   -1.8662   -1.4108 C   0  0  0  0  0  0  0  0  0  0  0  0
   -0.1266   -2.4366   -1.5823 H   0  0  0  0  0  0  0  0  0  0  0  0
    1.3990   -1.9034   -2.3194 H   0  0  0  0  0  0  0  0  0  0  0  0
    1.3586   -2.3555   -0.6126 H   0  0  0  0  0  0  0  0  0  0  0  0
   -0.4777    0.2558   -2.0587 C   0  0  0  0  0  0  0  0  0  0  0  0
   -1.4566   -0.2330   -2.0376 H   0  0  0  0  0  0  0  0  0  0  0  0
   -0.6261    1.3055   -1.7893 H   0  0  0  0  0  0  0  0  0  0  0  0
    0.0604    0.2135   -3.4919 C   0  0  0  0  0  0  0  0  0  0  0  0
    0.0791   -0.8108   -3.8749 H   0  0  0  0  0  0  0  0  0  0  0  0
   -0.5830    0.8083   -4.1474 H   0  0  0  0  0  0  0  0  0  0  0  0
    1.0728    0.6268   -3.5333 H   0  0  0  0  0  0  0  0  0  0  0  0
   -0.2083    1.0960    0.9325 C   0  0  0  0  0  0  0  0  0  0  0  0
   -1.2271    1.7481    0.7294 O   0  0  0  0  0  0  0  0  0  0  0  0
    0.7661    1.6161    1.7643 N   0  0  0  0  0  0  0  0  0  0  0  0
    1.5594    1.0226    1.9886 H   0  0  0  0  0  0  0  0  0  0  0  0
    0.6678    2.9287    2.3906 C   0  0  0  0  0  0  0  0  0  0  0  0
   -0.2061    2.9747    3.0488 H   0  0  0  0  0  0  0  0  0  0  0  0
    1.5619    3.1303    2.9883 H   0  0  0  0  0  0  0  0  0  0  0  0
    0.5778    3.7108    1.6293 H   0  0  0  0  0  0  0  0  0  0  0  0
  1  2  1  0  0  0  0
  2  3  1  0  0  0  0
  2  4  1  0  0  0  0
  2  5  1  0  0  0  0
  5  6  2  0  0  0  0
  5  7  1  0  0  0  0
  7  8  1  0  0  0  0
  7  9  1  0  0  0  0
  9 10  1  0  0  0  0
  9 11  1  0  0  0  0
  9 24  1  0  0  0  0
 11 12  1  0  0  0  0
 11 13  1  0  0  0  0
 11 17  1  0  0  0  0
 13 14  1  0  0  0  0
 13 15  1  0  0  0  0
 13 16  1  0  0  0  0
 17 18  1  0  0  0  0
 17 19  1  0  0  0  0
 17 20  1  0  0  0  0
 20 21  1  0  0  0  0
 20 22  1  0  0  0  0
 20 23  1  0  0  0  0
 24 25  2  0  0  0  0
 24 26  1  0  0  0  0
 26 27  1  0  0  0  0
 26 28  1  0  0  0  0
 28 29  1  0  0  0  0
 28 30  1  0  0  0  0
 28 31  1  0  0  0  0
M  END
$$$$

  -OEChem-03222214053D

 31 30  0     1  0  0  0  0  0999 V2000
   -2.9665   -3.8871    1.5836 H   0  0  0  0  0  0  0  0  0  0  0  0
   -2.9935   -2.8776    1.1639 C   0  0  0  0  0  0  0  0  0  0  0  0
   -3.5846   -2.2376    1.8234 H   0  0  0  0  0  0  0  0  0  0  0  0
   -3.4702   -2.9169    0.1816 H   0  0  0  0  0  0  0  0  0  0  0  0
   -1.5858   -2.3279    1.0331 C   0  0  0  0  0  0  0  0  0  0  0  0
   -0.6323   -3.0063    1.3822 O   0  0  0  0  0  0  0  0  0  0  0  0
   -1.3935   -1.0559    0.5360 N   0  0  0  0  0  0  0  0  0  0  0  0
   -2.2226   -0.4924    0.3553 H   0  0  0  0  0  0  0  0  0  0  0  0
   -0.0927   -0.3739    0.4249 C   0  0  1  0  0  0  0  0  0  0  0  0
    0.6253   -0.8703    1.0861 H   0  0  0  0  0  0  0  0  0  0  0  0
    0.4779   -0.4190   -1.0197 C   0  0  1  0  0  0  0  0  0  0  0  0
    1.4262    0.1293   -1.0255 H   0  0  0  0  0  0  0  0  0  0  0  0
    0.7988   -1.8784   -1.3937 C   0  0  0  0  0  0  0  0  0  0  0  0
   -0.1206   -2.4477   -1.5618 H   0  0  0  0  0  0  0  0  0  0  0  0
    1.4077   -1.9218   -2.3014 H   0  0  0  0  0  0  0  0  0  0  0  0
    1.3647   -2.3645   -0.5928 H   0  0  0  0  0  0  0  0  0  0  0  0
   -0.4669    0.2634   -2.0458 C   0  0  0  0  0  0  0  0  0  0  0  0
   -1.5018   -0.0384   -1.8597 H   0  0  0  0  0  0  0  0  0  0  0  0
   -0.4128    1.3481   -1.9077 H   0  0  0  0  0  0  0  0  0  0  0  0
   -0.1482   -0.0547   -3.5103 C   0  0  0  0  0  0  0  0  0  0  0  0
   -0.3451   -1.1067   -3.7368 H   0  0  0  0  0  0  0  0  0  0  0  0
   -0.7755    0.5555   -4.1672 H   0  0  0  0  0  0  0  0  0  0  0  0
    0.9006    0.1669   -3.7302 H   0  0  0  0  0  0  0  0  0  0  0  0
   -0.2058    1.0803    0.9287 C   0  0  0  0  0  0  0  0  0  0  0  0
   -1.2111    1.7410    0.6890 O   0  0  0  0  0  0  0  0  0  0  0  0
    0.7620    1.6064    1.7644 N   0  0  0  0  0  0  0  0  0  0  0  0
    1.5477    1.0104    2.0086 H   0  0  0  0  0  0  0  0  0  0  0  0
    0.6701    2.9336    2.3605 C   0  0  0  0  0  0  0  0  0  0  0  0
   -0.2220    3.0105    2.9913 H   0  0  0  0  0  0  0  0  0  0  0  0
    1.5497    3.1310    2.9806 H   0  0  0  0  0  0  0  0  0  0  0  0
    0.6179    3.7008    1.5809 H   0  0  0  0  0  0  0  0  0  0  0  0
  1  2  1  0  0  0  0
  2  3  1  0  0  0  0
  2  4  1  0  0  0  0
  2  5  1  0  0  0  0
  5  6  2  0  0  0  0
  5  7  1  0  0  0  0
  7  8  1  0  0  0  0
  7  9  1  0  0  0  0
  9 10  1  0  0  0  0
  9 11  1  0  0  0  0
  9 24  1  0  0  0  0
 11 12  1  0  0  0  0
 11 13  1  0  0  0  0
 11 17  1  0  0  0  0
 13 14  1  0  0  0  0
 13 15  1  0  0  0  0
 13 16  1  0  0  0  0
 17 18  1  0  0  0  0
 17 19  1  0  0  0  0
 17 20  1  0  0  0  0
 20 21  1  0  0  0  0
 20 22  1  0  0  0  0
 20 23  1  0  0  0  0
 24 25  2  0  0  0  0
 24 26  1  0  0  0  0
 26 27  1  0  0  0  0
 26 28  1  0  0  0  0
 28 29  1  0  0  0  0
 28 30  1  0  0  0  0
 28 31  1  0  0  0  0
M  END
$$$$

  -OEChem-03222214053D

 31 30  0     1  0  0  0  0  0999 V2000
   -2.9825   -3.8821    1.5949 H   0  0  0  0  0  0  0  0  0  0  0  0
   -3.0049   -2.8738    1.1720 C   0  0  0  0  0  0  0  0  0  0  0  0
   -3.5913   -2.2285    1.8306 H   0  0  0  0  0  0  0  0  0  0  0  0
   -3.4839   -2.9137    0.1908 H   0  0  0  0  0  0  0  0  0  0  0  0
   -1.5944   -2.3319    1.0372 C   0  0  0  0  0  0  0  0  0  0  0  0
   -0.6438   -3.0124    1.3899 O   0  0  0  0  0  0  0  0  0  0  0  0
   -1.3967   -1.0627    0.5353 N   0  0  0  0  0  0  0  0  0  0  0  0
   -2.2236   -0.4973    0.3508 H   0  0  0  0  0  0  0  0  0  0  0  0
   -0.0935   -0.3843    0.4268 C   0  0  1  0  0  0  0  0  0  0  0  0
    0.6210   -0.8806    1.0916 H   0  0  0  0  0  0  0  0  0  0  0  0
    0.4828   -0.4277   -1.0156 C   0  0  1  0  0  0  0  0  0  0  0  0
    1.4298    0.1228   -1.0195 H   0  0  0  0  0  0  0  0  0  0  0  0
    0.8218   -1.8886   -1.3719 C   0  0  0  0  0  0  0  0  0  0  0  0
   -0.0887   -2.4817   -1.5001 H   0  0  0  0  0  0  0  0  0  0  0  0
    1.4051   -1.9381   -2.2959 H   0  0  0  0  0  0  0  0  0  0  0  0
    1.4203   -2.3467   -0.5783 H   0  0  0  0  0  0  0  0  0  0  0  0
   -0.4578    0.2612   -2.0476 C   0  0  0  0  0  0  0  0  0  0  0  0
   -1.4975    0.1806   -1.7178 H   0  0  0  0  0  0  0  0  0  0  0  0
   -0.2146    1.3285   -2.0782 H   0  0  0  0  0  0  0  0  0  0  0  0
   -0.3995   -0.2983   -3.4736 C   0  0  0  0  0  0  0  0  0  0  0  0
   -0.7549   -1.3325   -3.5076 H   0  0  0  0  0  0  0  0  0  0  0  0
   -1.0371    0.2996   -4.1319 H   0  0  0  0  0  0  0  0  0  0  0  0
    0.6240   -0.2586   -3.8587 H   0  0  0  0  0  0  0  0  0  0  0  0
   -0.2049    1.0724    0.9237 C   0  0  0  0  0  0  0  0  0  0  0  0
   -1.2057    1.7357    0.6736 O   0  0  0  0  0  0  0  0  0  0  0  0
    0.7604    1.5999    1.7612 N   0  0  0  0  0  0  0  0  0  0  0  0
    1.5451    1.0044    2.0095 H   0  0  0  0  0  0  0  0  0  0  0  0
    0.6684    2.9293    2.3519 C   0  0  0  0  0  0  0  0  0  0  0  0
   -0.2148    3.0030    2.9952 H   0  0  0  0  0  0  0  0  0  0  0  0
    1.5557    3.1361    2.9579 H   0  0  0  0  0  0  0  0  0  0  0  0
    0.5994    3.6922    1.5692 H   0  0  0  0  0  0  0  0  0  0  0  0
  1  2  1  0  0  0  0
  2  3  1  0  0  0  0
  2  4  1  0  0  0  0
  2  5  1  0  0  0  0
  5  6  2  0  0  0  0
  5  7  1  0  0  0  0
  7  8  1  0  0  0  0
  7  9  1  0  0  0  0
  9 10  1  0  0  0  0
  9 11  1  0  0  0  0
  9 24  1  0  0  0  0
 11 12  1  0  0  0  0
 11 13  1  0  0  0  0
 11 17  1  0  0  0  0
 13 14  1  0  0  0  0
 13 15  1  0  0  0  0
 13 16  1  0  0  0  0
 17 18  1  0  0  0  0
 17 19  1  0  0  0  0
 17 20  1  0  0  0  0
 20 21  1  0  0  0  0
 20 22  1  0  0  0  0
 20 23  1  0  0  0  0
 24 25  2  0  0  0  0
 24 26  1  0  0  0  0
 26 27  1  0  0  0  0
 26 28  1  0  0  0  0
 28 29  1  0  0  0  0
 28 30  1  0  0  0  0
 28 31  1  0  0  0  0
M  END
$$$$

  -OEChem-03222214053D

 31 30  0     1  0  0  0  0  0999 V2000
   -2.9884   -3.8849    1.5743 H   0  0  0  0  0  0  0  0  0  0  0  0
   -3.0101   -2.8749    1.1553 C   0  0  0  0  0  0  0  0  0  0  0  0
   -3.6061   -2.2346    1.8101 H   0  0  0  0  0  0  0  0  0  0  0  0
   -3.4784   -2.9125    0.1688 H   0  0  0  0  0  0  0  0  0  0  0  0
   -1.6006   -2.3266    1.0376 C   0  0  0  0  0  0  0  0  0  0  0  0
   -0.6507   -3.0040    1.3985 O   0  0  0  0  0  0  0  0  0  0  0  0
   -1.4034   -1.0562    0.5384 N   0  0  0  0  0  0  0  0  0  0  0  0
   -2.2309   -0.4954    0.3435 H   0  0  0  0  0  0  0  0  0  0  0  0
   -0.1009   -0.3767    0.4307 C   0  0  1  0  0  0  0  0  0  0  0  0
    0.6124   -0.8739    1.0962 H   0  0  0  0  0  0  0  0  0  0  0  0
    0.4725   -0.4319   -1.0120 C   0  0  1  0  0  0  0  0  0  0  0  0
    1.4103    0.1339   -1.0159 H   0  0  0  0  0  0  0  0  0  0  0  0
    0.8499   -1.8882   -1.3493 C   0  0  0  0  0  0  0  0  0  0  0  0
   -0.0404   -2.5185   -1.4327 H   0  0  0  0  0  0  0  0  0  0  0  0
    1.4046   -1.9371   -2.2907 H   0  0  0  0  0  0  0  0  0  0  0  0
    1.4894   -2.3065   -0.5656 H   0  0  0  0  0  0  0  0  0  0  0  0
   -0.4682    0.2476   -2.0544 C   0  0  0  0  0  0  0  0  0  0  0  0
   -1.4549    0.4169   -1.6146 H   0  0  0  0  0  0  0  0  0  0  0  0
   -0.0579    1.2340   -2.2942 H   0  0  0  0  0  0  0  0  0  0  0  0
   -0.6953   -0.5162   -3.3643 C   0  0  0  0  0  0  0  0  0  0  0  0
   -1.1799   -1.4791   -3.1779 H   0  0  0  0  0  0  0  0  0  0  0  0
   -1.3449    0.0675   -4.0238 H   0  0  0  0  0  0  0  0  0  0  0  0
    0.2527   -0.6852   -3.8838 H   0  0  0  0  0  0  0  0  0  0  0  0
   -0.2028    1.0810    0.9287 C   0  0  0  0  0  0  0  0  0  0  0  0
   -1.2020    1.7501    0.6884 O   0  0  0  0  0  0  0  0  0  0  0  0
    0.7684    1.6020    1.7640 N   0  0  0  0  0  0  0  0  0  0  0  0
    1.5483    1.0003    2.0123 H   0  0  0  0  0  0  0  0  0  0  0  0
    0.6836    2.9296    2.3601 C   0  0  0  0  0  0  0  0  0  0  0  0
   -0.2012    3.0062    3.0007 H   0  0  0  0  0  0  0  0  0  0  0  0
    1.5704    3.1277    2.9698 H   0  0  0  0  0  0  0  0  0  0  0  0
    0.6221    3.6964    1.5807 H   0  0  0  0  0  0  0  0  0  0  0  0
  1  2  1  0  0  0  0
  2  3  1  0  0  0  0
  2  4  1  0  0  0  0
  2  5  1  0  0  0  0
  5  6  2  0  0  0  0
  5  7  1  0  0  0  0
  7  8  1  0  0  0  0
  7  9  1  0  0  0  0
  9 10  1  0  0  0  0
  9 11  1  0  0  0  0
  9 24  1  0  0  0  0
 11 12  1  0  0  0  0
 11 13  1  0  0  0  0
 11 17  1  0  0  0  0
 13 14  1  0  0  0  0
 13 15  1  0  0  0  0
 13 16  1  0  0  0  0
 17 18  1  0  0  0  0
 17 19  1  0  0  0  0
 17 20  1  0  0  0  0
 20 21  1  0  0  0  0
 20 22  1  0  0  0  0
 20 23  1  0  0  0  0
 24 25  2  0  0  0  0
 24 26  1  0  0  0  0
 26 27  1  0  0  0  0
 26 28  1  0  0  0  0
 28 29  1  0  0  0  0
 28 30  1  0  0  0  0
 28 31  1  0  0  0  0
M  END
$$$$

  -OEChem-03222214053D

 31 30  0     1  0  0  0  0  0999 V2000
   -2.9925   -3.8845    1.5611 H   0  0  0  0  0  0  0  0  0  0  0  0
   -3.0174   -2.8747    1.1419 C   0  0  0  0  0  0  0  0  0  0  0  0
   -3.6170   -2.2367    1.7956 H   0  0  0  0  0  0  0  0  0  0  0  0
   -3.4841   -2.9144    0.1547 H   0  0  0  0  0  0  0  0  0  0  0  0
   -1.6098   -2.3208    1.0263 C   0  0  0  0  0  0  0  0  0  0  0  0
   -0.6573   -3.0000    1.3767 O   0  0  0  0  0  0  0  0  0  0  0  0
   -1.4176   -1.0449    0.5394 N   0  0  0  0  0  0  0  0  0  0  0  0
   -2.2473   -0.4862    0.3489 H   0  0  0  0  0  0  0  0  0  0  0  0
   -0.1185   -0.3600    0.4332 C   0  0  1  0  0  0  0  0  0  0  0  0
    0.5943   -0.8606    1.0962 H   0  0  0  0  0  0  0  0  0  0  0  0
    0.4524   -0.4296   -1.0088 C   0  0  1  0  0  0  0  0  0  0  0  0
    1.3758    0.1599   -1.0066 H   0  0  0  0  0  0  0  0  0  0  0  0
    0.8771   -1.8736   -1.3400 C   0  0  0  0  0  0  0  0  0  0  0  0
    0.0128   -2.5417   -1.3932 H   0  0  0  0  0  0  0  0  0  0  0  0
    1.4080   -1.9083   -2.2958 H   0  0  0  0  0  0  0  0  0  0  0  0
    1.5526   -2.2562   -0.5687 H   0  0  0  0  0  0  0  0  0  0  0  0
   -0.4860    0.2314   -2.0651 C   0  0  0  0  0  0  0  0  0  0  0  0
   -1.3654    0.6588   -1.5764 H   0  0  0  0  0  0  0  0  0  0  0  0
    0.0534    1.0652   -2.5262 H   0  0  0  0  0  0  0  0  0  0  0  0
   -0.9925   -0.6829   -3.1871 C   0  0  0  0  0  0  0  0  0  0  0  0
   -1.5639   -1.5203   -2.7758 H   0  0  0  0  0  0  0  0  0  0  0  0
   -1.6496   -0.1178   -3.8551 H   0  0  0  0  0  0  0  0  0  0  0  0
   -0.1608   -1.0724   -3.7815 H   0  0  0  0  0  0  0  0  0  0  0  0
   -0.2086    1.0951    0.9434 C   0  0  0  0  0  0  0  0  0  0  0  0
   -1.2115    1.7682    0.7323 O   0  0  0  0  0  0  0  0  0  0  0  0
    0.7728    1.6023    1.7754 N   0  0  0  0  0  0  0  0  0  0  0  0
    1.5582    0.9985    2.0003 H   0  0  0  0  0  0  0  0  0  0  0  0
    0.7072    2.9287    2.3770 C   0  0  0  0  0  0  0  0  0  0  0  0
   -0.1757    3.0153    3.0190 H   0  0  0  0  0  0  0  0  0  0  0  0
    1.5972    3.1121    2.9865 H   0  0  0  0  0  0  0  0  0  0  0  0
    0.6558    3.6994    1.6007 H   0  0  0  0  0  0  0  0  0  0  0  0
  1  2  1  0  0  0  0
  2  3  1  0  0  0  0
  2  4  1  0  0  0  0
  2  5  1  0  0  0  0
  5  6  2  0  0  0  0
  5  7  1  0  0  0  0
  7  8  1  0  0  0  0
  7  9  1  0  0  0  0
  9 10  1  0  0  0  0
  9 11  1  0  0  0  0
  9 24  1  0  0  0  0
 11 12  1  0  0  0  0
 11 13  1  0  0  0  0
 11 17  1  0  0  0  0
 13 14  1  0  0  0  0
 13 15  1  0  0  0  0
 13 16  1  0  0  0  0
 17 18  1  0  0  0  0
 17 19  1  0  0  0  0
 17 20  1  0  0  0  0
 20 21  1  0  0  0  0
 20 22  1  0  0  0  0
 20 23  1  0  0  0  0
 24 25  2  0  0  0  0
 24 26  1  0  0  0  0
 26 27  1  0  0  0  0
 26 28  1  0  0  0  0
 28 29  1  0  0  0  0
 28 30  1  0  0  0  0
 28 31  1  0  0  0  0
M  END
$$$$

  -OEChem-03222214053D

 31 30  0     1  0  0  0  0  0999 V2000
   -2.9952   -3.8713    1.5622 H   0  0  0  0  0  0  0  0  0  0  0  0
   -3.0209   -2.8594    1.1484 C   0  0  0  0  0  0  0  0  0  0  0  0
   -3.6138   -2.2234    1.8103 H   0  0  0  0  0  0  0  0  0  0  0  0
   -3.4949   -2.8925    0.1644 H   0  0  0  0  0  0  0  0  0  0  0  0
   -1.6130   -2.3083    1.0253 C   0  0  0  0  0  0  0  0  0  0  0  0
   -0.6596   -2.9900    1.3682 O   0  0  0  0  0  0  0  0  0  0  0  0
   -1.4217   -1.0308    0.5426 N   0  0  0  0  0  0  0  0  0  0  0  0
   -2.2515   -0.4702    0.3583 H   0  0  0  0  0  0  0  0  0  0  0  0
   -0.1231   -0.3477    0.4305 C   0  0  1  0  0  0  0  0  0  0  0  0
    0.5906   -0.8505    1.0913 H   0  0  0  0  0  0  0  0  0  0  0  0
    0.4428   -0.4300   -1.0130 C   0  0  1  0  0  0  0  0  0  0  0  0
    1.3593    0.1701   -1.0089 H   0  0  0  0  0  0  0  0  0  0  0  0
    0.8834   -1.8664   -1.3499 C   0  0  0  0  0  0  0  0  0  0  0  0
    0.0317   -2.5524   -1.3698 H   0  0  0  0  0  0  0  0  0  0  0  0
    1.3778   -1.8935   -2.3258 H   0  0  0  0  0  0  0  0  0  0  0  0
    1.5933   -2.2306   -0.6006 H   0  0  0  0  0  0  0  0  0  0  0  0
   -0.4871    0.2183   -2.0807 C   0  0  0  0  0  0  0  0  0  0  0  0
   -1.2048    0.8921   -1.6074 H   0  0  0  0  0  0  0  0  0  0  0  0
    0.1332    0.8334   -2.7408 H   0  0  0  0  0  0  0  0  0  0  0  0
   -1.2669   -0.7627   -2.9645 C   0  0  0  0  0  0  0  0  0  0  0  0
   -1.8838   -1.4258   -2.3507 H   0  0  0  0  0  0  0  0  0  0  0  0
   -1.9257   -0.2084   -3.6396 H   0  0  0  0  0  0  0  0  0  0  0  0
   -0.5907   -1.3681   -3.5750 H   0  0  0  0  0  0  0  0  0  0  0  0
   -0.2089    1.1054    0.9477 C   0  0  0  0  0  0  0  0  0  0  0  0
   -1.2202    1.7737    0.7627 O   0  0  0  0  0  0  0  0  0  0  0  0
    0.7785    1.6080    1.7753 N   0  0  0  0  0  0  0  0  0  0  0  0
    1.5654    1.0029    1.9911 H   0  0  0  0  0  0  0  0  0  0  0  0
    0.7050    2.9216    2.4038 C   0  0  0  0  0  0  0  0  0  0  0  0
   -0.1599    2.9793    3.0729 H   0  0  0  0  0  0  0  0  0  0  0  0
    1.6092    3.1113    2.9902 H   0  0  0  0  0  0  0  0  0  0  0  0
    0.6155    3.7050    1.6438 H   0  0  0  0  0  0  0  0  0  0  0  0
  1  2  1  0  0  0  0
  2  3  1  0  0  0  0
  2  4  1  0  0  0  0
  2  5  1  0  0  0  0
  5  6  2  0  0  0  0
  5  7  1  0  0  0  0
  7  8  1  0  0  0  0
  7  9  1  0  0  0  0
  9 10  1  0  0  0  0
  9 11  1  0  0  0  0
  9 24  1  0  0  0  0
 11 12  1  0  0  0  0
 11 13  1  0  0  0  0
 11 17  1  0  0  0  0
 13 14  1  0  0  0  0
 13 15  1  0  0  0  0
 13 16  1  0  0  0  0
 17 18  1  0  0  0  0
 17 19  1  0  0  0  0
 17 20  1  0  0  0  0
 20 21  1  0  0  0  0
 20 22  1  0  0  0  0
 20 23  1  0  0  0  0
 24 25  2  0  0  0  0
 24 26  1  0  0  0  0
 26 27  1  0  0  0  0
 26 28  1  0  0  0  0
 28 29  1  0  0  0  0
 28 30  1  0  0  0  0
 28 31  1  0  0  0  0
M  END
$$$$

  -OEChem-03222214053D

 31 30  0     1  0  0  0  0  0999 V2000
   -2.9857   -3.8713    1.6108 H   0  0  0  0  0  0  0  0  0  0  0  0
   -3.0160   -2.8603    1.1950 C   0  0  0  0  0  0  0  0  0  0  0  0
   -3.5990   -2.2218    1.8632 H   0  0  0  0  0  0  0  0  0  0  0  0
   -3.5037   -2.8952    0.2178 H   0  0  0  0  0  0  0  0  0  0  0  0
   -1.6092   -2.3115    1.0516 C   0  0  0  0  0  0  0  0  0  0  0  0
   -0.6521   -2.9927    1.3852 O   0  0  0  0  0  0  0  0  0  0  0  0
   -1.4222   -1.0357    0.5629 N   0  0  0  0  0  0  0  0  0  0  0  0
   -2.2529   -0.4715    0.3924 H   0  0  0  0  0  0  0  0  0  0  0  0
   -0.1244   -0.3559    0.4346 C   0  0  1  0  0  0  0  0  0  0  0  0
    0.5951   -0.8565    1.0905 H   0  0  0  0  0  0  0  0  0  0  0  0
    0.4418   -0.4266   -1.0109 C   0  0  1  0  0  0  0  0  0  0  0  0
    1.3624    0.1669   -1.0000 H   0  0  0  0  0  0  0  0  0  0  0  0
    0.8615   -1.8625   -1.3697 C   0  0  0  0  0  0  0  0  0  0  0  0
    0.0050   -2.5430   -1.3630 H   0  0  0  0  0  0  0  0  0  0  0  0
    1.3179   -1.8865   -2.3640 H   0  0  0  0  0  0  0  0  0  0  0  0
    1.5954   -2.2343   -0.6480 H   0  0  0  0  0  0  0  0  0  0  0  0
   -0.4676    0.2215   -2.0919 C   0  0  0  0  0  0  0  0  0  0  0  0
   -0.9937    1.0845   -1.6772 H   0  0  0  0  0  0  0  0  0  0  0  0
    0.1785    0.6023   -2.8895 H   0  0  0  0  0  0  0  0  0  0  0  0
   -1.4961   -0.7121   -2.7441 C   0  0  0  0  0  0  0  0  0  0  0  0
   -2.1492   -1.1634   -1.9928 H   0  0  0  0  0  0  0  0  0  0  0  0
   -2.1183   -0.1433   -3.4417 H   0  0  0  0  0  0  0  0  0  0  0  0
   -1.0017   -1.5092   -3.3068 H   0  0  0  0  0  0  0  0  0  0  0  0
   -0.2175    1.0959    0.9521 C   0  0  0  0  0  0  0  0  0  0  0  0
   -1.2356    1.7556    0.7724 O   0  0  0  0  0  0  0  0  0  0  0  0
    0.7722    1.6060    1.7721 N   0  0  0  0  0  0  0  0  0  0  0  0
    1.5650    1.0063    1.9822 H   0  0  0  0  0  0  0  0  0  0  0  0
    0.6892    2.9153    2.4079 C   0  0  0  0  0  0  0  0  0  0  0  0
   -0.1720    2.9602    3.0829 H   0  0  0  0  0  0  0  0  0  0  0  0
    1.5951    3.1115    2.9893 H   0  0  0  0  0  0  0  0  0  0  0  0
    0.5864    3.7018    1.6528 H   0  0  0  0  0  0  0  0  0  0  0  0
  1  2  1  0  0  0  0
  2  3  1  0  0  0  0
  2  4  1  0  0  0  0
  2  5  1  0  0  0  0
  5  6  2  0  0  0  0
  5  7  1  0  0  0  0
  7  8  1  0  0  0  0
  7  9  1  0  0  0  0
  9 10  1  0  0  0  0
  9 11  1  0  0  0  0
  9 24  1  0  0  0  0
 11 12  1  0  0  0  0
 11 13  1  0  0  0  0
 11 17  1  0  0  0  0
 13 14  1  0  0  0  0
 13 15  1  0  0  0  0
 13 16  1  0  0  0  0
 17 18  1  0  0  0  0
 17 19  1  0  0  0  0
 17 20  1  0  0  0  0
 20 21  1  0  0  0  0
 20 22  1  0  0  0  0
 20 23  1  0  0  0  0
 24 25  2  0  0  0  0
 24 26  1  0  0  0  0
 26 27  1  0  0  0  0
 26 28  1  0  0  0  0
 28 29  1  0  0  0  0
 28 30  1  0  0  0  0
 28 31  1  0  0  0  0
M  END
$$$$

  -OEChem-03222214053D

 31 30  0     1  0  0  0  0  0999 V2000
   -2.9573   -3.8961    1.6617 H   0  0  0  0  0  0  0  0  0  0  0  0
   -2.9938   -2.8855    1.2455 C   0  0  0  0  0  0  0  0  0  0  0  0
   -3.5743   -2.2485    1.9171 H   0  0  0  0  0  0  0  0  0  0  0  0
   -3.4878   -2.9226    0.2716 H   0  0  0  0  0  0  0  0  0  0  0  0
   -1.5898   -2.3329    1.0911 C   0  0  0  0  0  0  0  0  0  0  0  0
   -0.6275   -3.0114    1.4153 O   0  0  0  0  0  0  0  0  0  0  0  0
   -1.4109   -1.0589    0.5951 N   0  0  0  0  0  0  0  0  0  0  0  0
   -2.2442   -0.4972    0.4289 H   0  0  0  0  0  0  0  0  0  0  0  0
   -0.1168   -0.3772    0.4487 C   0  0  1  0  0  0  0  0  0  0  0  0
    0.6140   -0.8741    1.0951 H   0  0  0  0  0  0  0  0  0  0  0  0
    0.4397   -0.4197   -1.0029 C   0  0  1  0  0  0  0  0  0  0  0  0
    1.3697    0.1590   -0.9892 H   0  0  0  0  0  0  0  0  0  0  0  0
    0.8272   -1.8567   -1.3890 C   0  0  0  0  0  0  0  0  0  0  0  0
   -0.0395   -2.5232   -1.3695 H   0  0  0  0  0  0  0  0  0  0  0  0
    1.2581   -1.8773   -2.3947 H   0  0  0  0  0  0  0  0  0  0  0  0
    1.5718   -2.2493   -0.6895 H   0  0  0  0  0  0  0  0  0  0  0  0
   -0.4539    0.2378   -2.0911 C   0  0  0  0  0  0  0  0  0  0  0  0
   -0.7656    1.2318   -1.7583 H   0  0  0  0  0  0  0  0  0  0  0  0
    0.1656    0.3858   -2.9816 H   0  0  0  0  0  0  0  0  0  0  0  0
   -1.7018   -0.5427   -2.5289 C   0  0  0  0  0  0  0  0  0  0  0  0
   -2.4151   -0.6479   -1.7092 H   0  0  0  0  0  0  0  0  0  0  0  0
   -2.2024   -0.0027   -3.3382 H   0  0  0  0  0  0  0  0  0  0  0  0
   -1.4377   -1.5364   -2.9007 H   0  0  0  0  0  0  0  0  0  0  0  0
   -0.2228    1.0736    0.9645 C   0  0  0  0  0  0  0  0  0  0  0  0
   -1.2433    1.7261    0.7715 O   0  0  0  0  0  0  0  0  0  0  0  0
    0.7660    1.5994    1.7755 N   0  0  0  0  0  0  0  0  0  0  0  0
    1.5621    1.0066    1.9920 H   0  0  0  0  0  0  0  0  0  0  0  0
    0.6745    2.9139    2.3990 C   0  0  0  0  0  0  0  0  0  0  0  0
   -0.1972    2.9650    3.0599 H   0  0  0  0  0  0  0  0  0  0  0  0
    1.5710    3.1137    2.9935 H   0  0  0  0  0  0  0  0  0  0  0  0
    0.5849    3.6942    1.6360 H   0  0  0  0  0  0  0  0  0  0  0  0
  1  2  1  0  0  0  0
  2  3  1  0  0  0  0
  2  4  1  0  0  0  0
  2  5  1  0  0  0  0
  5  6  2  0  0  0  0
  5  7  1  0  0  0  0
  7  8  1  0  0  0  0
  7  9  1  0  0  0  0
  9 10  1  0  0  0  0
  9 11  1  0  0  0  0
  9 24  1  0  0  0  0
 11 12  1  0  0  0  0
 11 13  1  0  0  0  0
 11 17  1  0  0  0  0
 13 14  1  0  0  0  0
 13 15  1  0  0  0  0
 13 16  1  0  0  0  0
 17 18  1  0  0  0  0
 17 19  1  0  0  0  0
 17 20  1  0  0  0  0
 20 21  1  0  0  0  0
 20 22  1  0  0  0  0
 20 23  1  0  0  0  0
 24 25  2  0  0  0  0
 24 26  1  0  0  0  0
 26 27  1  0  0  0  0
 26 28  1  0  0  0  0
 28 29  1  0  0  0  0
 28 30  1  0  0  0  0
 28 31  1  0  0  0  0
M  END
$$$$

  -OEChem-03222214053D

 31 30  0     1  0  0  0  0  0999 V2000
   -2.9325   -3.9181    1.6956 H   0  0  0  0  0  0  0  0  0  0  0  0
   -2.9748   -2.9073    1.2804 C   0  0  0  0  0  0  0  0  0  0  0  0
   -3.5445   -2.2701    1.9612 H   0  0  0  0  0  0  0  0  0  0  0  0
   -3.4842   -2.9440    0.3144 H   0  0  0  0  0  0  0  0  0  0  0  0
   -1.5732   -2.3542    1.1054 C   0  0  0  0  0  0  0  0  0  0  0  0
   -0.6061   -3.0320    1.4162 O   0  0  0  0  0  0  0  0  0  0  0  0
   -1.4016   -1.0797    0.6085 N   0  0  0  0  0  0  0  0  0  0  0  0
   -2.2375   -0.5188    0.4530 H   0  0  0  0  0  0  0  0  0  0  0  0
   -0.1099   -0.3938    0.4567 C   0  0  1  0  0  0  0  0  0  0  0  0
    0.6282   -0.8902    1.0954 H   0  0  0  0  0  0  0  0  0  0  0  0
    0.4402   -0.4085   -0.9978 C   0  0  1  0  0  0  0  0  0  0  0  0
    1.3807    0.1529   -0.9820 H   0  0  0  0  0  0  0  0  0  0  0  0
    0.7955   -1.8469   -1.4100 C   0  0  0  0  0  0  0  0  0  0  0  0
   -0.0899   -2.4880   -1.4293 H   0  0  0  0  0  0  0  0  0  0  0  0
    1.2508   -1.8575   -2.4049 H   0  0  0  0  0  0  0  0  0  0  0  0
    1.5108   -2.2779   -0.7025 H   0  0  0  0  0  0  0  0  0  0  0  0
   -0.4442    0.2621   -2.0851 C   0  0  0  0  0  0  0  0  0  0  0  0
   -0.5431    1.3277   -1.8551 H   0  0  0  0  0  0  0  0  0  0  0  0
    0.0901    0.1948   -3.0383 H   0  0  0  0  0  0  0  0  0  0  0  0
   -1.8512   -0.3105   -2.2983 C   0  0  0  0  0  0  0  0  0  0  0  0
   -2.5083   -0.0518   -1.4644 H   0  0  0  0  0  0  0  0  0  0  0  0
   -2.2859    0.1172   -3.2068 H   0  0  0  0  0  0  0  0  0  0  0  0
   -1.8263   -1.3973   -2.4125 H   0  0  0  0  0  0  0  0  0  0  0  0
   -0.2252    1.0548    0.9742 C   0  0  0  0  0  0  0  0  0  0  0  0
   -1.2425    1.7069    0.7637 O   0  0  0  0  0  0  0  0  0  0  0  0
    0.7607    1.5883    1.7836 N   0  0  0  0  0  0  0  0  0  0  0  0
    1.5548    0.9968    2.0105 H   0  0  0  0  0  0  0  0  0  0  0  0
    0.6653    2.9081    2.3953 C   0  0  0  0  0  0  0  0  0  0  0  0
   -0.2047    2.9613    3.0582 H   0  0  0  0  0  0  0  0  0  0  0  0
    1.5629    3.1175    2.9850 H   0  0  0  0  0  0  0  0  0  0  0  0
    0.5696    3.6811    1.6255 H   0  0  0  0  0  0  0  0  0  0  0  0
  1  2  1  0  0  0  0
  2  3  1  0  0  0  0
  2  4  1  0  0  0  0
  2  5  1  0  0  0  0
  5  6  2  0  0  0  0
  5  7  1  0  0  0  0
  7  8  1  0  0  0  0
  7  9  1  0  0  0  0
  9 10  1  0  0  0  0
  9 11  1  0  0  0  0
  9 24  1  0  0  0  0
 11 12  1  0  0  0  0
 11 13  1  0  0  0  0
 11 17  1  0  0  0  0
 13 14  1  0  0  0  0
 13 15  1  0  0  0  0
 13 16  1  0  0  0  0
 17 18  1  0  0  0  0
 17 19  1  0  0  0  0
 17 20  1  0  0  0  0
 20 21  1  0  0  0  0
 20 22  1  0  0  0  0
 20 23  1  0  0  0  0
 24 25  2  0  0  0  0
 24 26  1  0  0  0  0
 26 27  1  0  0  0  0
 26 28  1  0  0  0  0
 28 29  1  0  0  0  0
 28 30  1  0  0  0  0
 28 31  1  0  0  0  0
M  END
$$$$

  -OEChem-03222214053D

 31 30  0     1  0  0  0  0  0999 V2000
   -2.9041   -3.9442    1.7094 H   0  0  0  0  0  0  0  0  0  0  0  0
   -2.9578   -2.9327    1.2971 C   0  0  0  0  0  0  0  0  0  0  0  0
   -3.5330   -2.3038    1.9807 H   0  0  0  0  0  0  0  0  0  0  0  0
   -3.4684   -2.9717    0.3318 H   0  0  0  0  0  0  0  0  0  0  0  0
   -1.5624   -2.3646    1.1209 C   0  0  0  0  0  0  0  0  0  0  0  0
   -0.5875   -3.0350    1.4233 O   0  0  0  0  0  0  0  0  0  0  0  0
   -1.4053   -1.0860    0.6296 N   0  0  0  0  0  0  0  0  0  0  0  0
   -2.2475   -0.5348    0.4751 H   0  0  0  0  0  0  0  0  0  0  0  0
   -0.1201   -0.3885    0.4675 C   0  0  1  0  0  0  0  0  0  0  0  0
    0.6236   -0.8835    1.1006 H   0  0  0  0  0  0  0  0  0  0  0  0
    0.4325   -0.3872   -0.9877 C   0  0  1  0  0  0  0  0  0  0  0  0
    1.3830    0.1568   -0.9691 H   0  0  0  0  0  0  0  0  0  0  0  0
    0.7537   -1.8317   -1.4071 C   0  0  0  0  0  0  0  0  0  0  0  0
   -0.1587   -2.4286   -1.4947 H   0  0  0  0  0  0  0  0  0  0  0  0
    1.2672   -1.8445   -2.3733 H   0  0  0  0  0  0  0  0  0  0  0  0
    1.4069   -2.3086   -0.6694 H   0  0  0  0  0  0  0  0  0  0  0  0
   -0.4379    0.2754   -2.0931 C   0  0  0  0  0  0  0  0  0  0  0  0
   -0.3452    1.3615   -1.9894 H   0  0  0  0  0  0  0  0  0  0  0  0
   -0.0192    0.0151   -3.0706 H   0  0  0  0  0  0  0  0  0  0  0  0
   -1.9351   -0.0518   -2.1105 C   0  0  0  0  0  0  0  0  0  0  0  0
   -2.4459    0.3950   -1.2539 H   0  0  0  0  0  0  0  0  0  0  0  0
   -2.3894    0.3569   -3.0180 H   0  0  0  0  0  0  0  0  0  0  0  0
   -2.0973   -1.1334   -2.1041 H   0  0  0  0  0  0  0  0  0  0  0  0
   -0.2298    1.0584    0.9917 C   0  0  0  0  0  0  0  0  0  0  0  0
   -1.2469    1.7147    0.7964 O   0  0  0  0  0  0  0  0  0  0  0  0
    0.7676    1.5879    1.7896 N   0  0  0  0  0  0  0  0  0  0  0  0
    1.5671    0.9968    1.9985 H   0  0  0  0  0  0  0  0  0  0  0  0
    0.6850    2.9071    2.4041 C   0  0  0  0  0  0  0  0  0  0  0  0
   -0.1803    2.9651    3.0728 H   0  0  0  0  0  0  0  0  0  0  0  0
    1.5878    3.1090    2.9885 H   0  0  0  0  0  0  0  0  0  0  0  0
    0.5898    3.6821    1.6363 H   0  0  0  0  0  0  0  0  0  0  0  0
  1  2  1  0  0  0  0
  2  3  1  0  0  0  0
  2  4  1  0  0  0  0
  2  5  1  0  0  0  0
  5  6  2  0  0  0  0
  5  7  1  0  0  0  0
  7  8  1  0  0  0  0
  7  9  1  0  0  0  0
  9 10  1  0  0  0  0
  9 11  1  0  0  0  0
  9 24  1  0  0  0  0
 11 12  1  0  0  0  0
 11 13  1  0  0  0  0
 11 17  1  0  0  0  0
 13 14  1  0  0  0  0
 13 15  1  0  0  0  0
 13 16  1  0  0  0  0
 17 18  1  0  0  0  0
 17 19  1  0  0  0  0
 17 20  1  0  0  0  0
 20 21  1  0  0  0  0
 20 22  1  0  0  0  0
 20 23  1  0  0  0  0
 24 25  2  0  0  0  0
 24 26  1  0  0  0  0
 26 27  1  0  0  0  0
 26 28  1  0  0  0  0
 28 29  1  0  0  0  0
 28 30  1  0  0  0  0
 28 31  1  0  0  0  0
M  END
$$$$

  -OEChem-03222214053D

 31 30  0     1  0  0  0  0  0999 V2000
   -2.8762   -3.9598    1.6977 H   0  0  0  0  0  0  0  0  0  0  0  0
   -2.9463   -2.9438    1.2993 C   0  0  0  0  0  0  0  0  0  0  0  0
   -3.5223   -2.3310    1.9969 H   0  0  0  0  0  0  0  0  0  0  0  0
   -3.4662   -2.9768    0.3389 H   0  0  0  0  0  0  0  0  0  0  0  0
   -1.5600   -2.3559    1.1163 C   0  0  0  0  0  0  0  0  0  0  0  0
   -0.5745   -3.0201    1.3970 O   0  0  0  0  0  0  0  0  0  0  0  0
   -1.4252   -1.0657    0.6483 N   0  0  0  0  0  0  0  0  0  0  0  0
   -2.2776   -0.5258    0.5119 H   0  0  0  0  0  0  0  0  0  0  0  0
   -0.1531   -0.3465    0.4710 C   0  0  1  0  0  0  0  0  0  0  0  0
    0.5942   -0.8434    1.0981 H   0  0  0  0  0  0  0  0  0  0  0  0
    0.4055   -0.3588   -0.9839 C   0  0  1  0  0  0  0  0  0  0  0  0
    1.3509    0.1942   -0.9672 H   0  0  0  0  0  0  0  0  0  0  0  0
    0.7459   -1.8079   -1.3721 C   0  0  0  0  0  0  0  0  0  0  0  0
   -0.1649   -2.4023   -1.4942 H   0  0  0  0  0  0  0  0  0  0  0  0
    1.3020   -1.8315   -2.3142 H   0  0  0  0  0  0  0  0  0  0  0  0
    1.3668   -2.2787   -0.6034 H   0  0  0  0  0  0  0  0  0  0  0  0
   -0.4541    0.2576   -2.1282 C   0  0  0  0  0  0  0  0  0  0  0  0
   -0.1847    1.3164   -2.2012 H   0  0  0  0  0  0  0  0  0  0  0  0
   -0.1749   -0.2024   -3.0817 H   0  0  0  0  0  0  0  0  0  0  0  0
   -1.9802    0.2042   -1.9974 C   0  0  0  0  0  0  0  0  0  0  0  0
   -2.3348    0.7817   -1.1428 H   0  0  0  0  0  0  0  0  0  0  0  0
   -2.4391    0.6268   -2.8963 H   0  0  0  0  0  0  0  0  0  0  0  0
   -2.3192   -0.8311   -1.8979 H   0  0  0  0  0  0  0  0  0  0  0  0
   -0.2339    1.0954    1.0177 C   0  0  0  0  0  0  0  0  0  0  0  0
   -1.2594    1.7561    0.9040 O   0  0  0  0  0  0  0  0  0  0  0  0
    0.7967    1.5996    1.7903 N   0  0  0  0  0  0  0  0  0  0  0  0
    1.6013    1.0004    1.9504 H   0  0  0  0  0  0  0  0  0  0  0  0
    0.7422    2.8978    2.4514 C   0  0  0  0  0  0  0  0  0  0  0  0
   -0.0897    2.9312    3.1627 H   0  0  0  0  0  0  0  0  0  0  0  0
    1.6719    3.0831    2.9977 H   0  0  0  0  0  0  0  0  0  0  0  0
    0.6091    3.6971    1.7148 H   0  0  0  0  0  0  0  0  0  0  0  0
  1  2  1  0  0  0  0
  2  3  1  0  0  0  0
  2  4  1  0  0  0  0
  2  5  1  0  0  0  0
  5  6  2  0  0  0  0
  5  7  1  0  0  0  0
  7  8  1  0  0  0  0
  7  9  1  0  0  0  0
  9 10  1  0  0  0  0
  9 11  1  0  0  0  0
  9 24  1  0  0  0  0
 11 12  1  0  0  0  0
 11 13  1  0  0  0  0
 11 17  1  0  0  0  0
 13 14  1  0  0  0  0
 13 15  1  0  0  0  0
 13 16  1  0  0  0  0
 17 18  1  0  0  0  0
 17 19  1  0  0  0  0
 17 20  1  0  0  0  0
 20 21  1  0  0  0  0
 20 22  1  0  0  0  0
 20 23  1  0  0  0  0
 24 25  2  0  0  0  0
 24 26  1  0  0  0  0
 26 27  1  0  0  0  0
 26 28  1  0  0  0  0
 28 29  1  0  0  0  0
 28 30  1  0  0  0  0
 28 31  1  0  0  0  0
M  END
$$$$

  -OEChem-03222214053D

 31 30  0     1  0  0  0  0  0999 V2000
   -2.8600   -3.9480    1.7021 H   0  0  0  0  0  0  0  0  0  0  0  0
   -2.9416   -2.9284    1.3154 C   0  0  0  0  0  0  0  0  0  0  0  0
   -3.4991   -2.3227    2.0339 H   0  0  0  0  0  0  0  0  0  0  0  0
   -3.4868   -2.9530    0.3689 H   0  0  0  0  0  0  0  0  0  0  0  0
   -1.5613   -2.3369    1.1016 C   0  0  0  0  0  0  0  0  0  0  0  0
   -0.5690   -3.0060    1.3437 O   0  0  0  0  0  0  0  0  0  0  0  0
   -1.4411   -1.0367    0.6569 N   0  0  0  0  0  0  0  0  0  0  0  0
   -2.2975   -0.4924    0.5719 H   0  0  0  0  0  0  0  0  0  0  0  0
   -0.1774   -0.3075    0.4630 C   0  0  1  0  0  0  0  0  0  0  0  0
    0.5718   -0.8079    1.0851 H   0  0  0  0  0  0  0  0  0  0  0  0
    0.3816   -0.3435   -0.9930 C   0  0  1  0  0  0  0  0  0  0  0  0
    1.3148    0.2302   -0.9771 H   0  0  0  0  0  0  0  0  0  0  0  0
    0.7684   -1.7906   -1.3465 C   0  0  0  0  0  0  0  0  0  0  0  0
   -0.1241   -2.4130   -1.4639 H   0  0  0  0  0  0  0  0  0  0  0  0
    1.3340   -1.8176   -2.2831 H   0  0  0  0  0  0  0  0  0  0  0  0
    1.3957   -2.2276   -0.5632 H   0  0  0  0  0  0  0  0  0  0  0  0
   -0.4681    0.2326   -2.1700 C   0  0  0  0  0  0  0  0  0  0  0  0
   -0.0184    1.1895   -2.4543 H   0  0  0  0  0  0  0  0  0  0  0  0
   -0.3767   -0.4226   -3.0423 H   0  0  0  0  0  0  0  0  0  0  0  0
   -1.9598    0.5002   -1.9490 C   0  0  0  0  0  0  0  0  0  0  0  0
   -2.1273    1.2669   -1.1938 H   0  0  0  0  0  0  0  0  0  0  0  0
   -2.4059    0.8569   -2.8823 H   0  0  0  0  0  0  0  0  0  0  0  0
   -2.4792   -0.4169   -1.6593 H   0  0  0  0  0  0  0  0  0  0  0  0
   -0.2365    1.1260    1.0367 C   0  0  0  0  0  0  0  0  0  0  0  0
   -1.2835    1.7620    1.0410 O   0  0  0  0  0  0  0  0  0  0  0  0
    0.8215    1.6077    1.7868 N   0  0  0  0  0  0  0  0  0  0  0  0
    1.6411    1.0145    1.8785 H   0  0  0  0  0  0  0  0  0  0  0  0
    0.7781    2.8664    2.5218 C   0  0  0  0  0  0  0  0  0  0  0  0
   -0.0133    2.8417    3.2782 H   0  0  0  0  0  0  0  0  0  0  0  0
    1.7331    3.0429    3.0257 H   0  0  0  0  0  0  0  0  0  0  0  0
    0.5877    3.7017    1.8398 H   0  0  0  0  0  0  0  0  0  0  0  0
  1  2  1  0  0  0  0
  2  3  1  0  0  0  0
  2  4  1  0  0  0  0
  2  5  1  0  0  0  0
  5  6  2  0  0  0  0
  5  7  1  0  0  0  0
  7  8  1  0  0  0  0
  7  9  1  0  0  0  0
  9 10  1  0  0  0  0
  9 11  1  0  0  0  0
  9 24  1  0  0  0  0
 11 12  1  0  0  0  0
 11 13  1  0  0  0  0
 11 17  1  0  0  0  0
 13 14  1  0  0  0  0
 13 15  1  0  0  0  0
 13 16  1  0  0  0  0
 17 18  1  0  0  0  0
 17 19  1  0  0  0  0
 17 20  1  0  0  0  0
 20 21  1  0  0  0  0
 20 22  1  0  0  0  0
 20 23  1  0  0  0  0
 24 25  2  0  0  0  0
 24 26  1  0  0  0  0
 26 27  1  0  0  0  0
 26 28  1  0  0  0  0
 28 29  1  0  0  0  0
 28 30  1  0  0  0  0
 28 31  1  0  0  0  0
M  END
$$$$

  -OEChem-03222214053D

 31 30  0     1  0  0  0  0  0999 V2000
   -2.8705   -3.9306    1.6825 H   0  0  0  0  0  0  0  0  0  0  0  0
   -2.9486   -2.9021    1.3192 C   0  0  0  0  0  0  0  0  0  0  0  0
   -3.4826   -2.3056    2.0628 H   0  0  0  0  0  0  0  0  0  0  0  0
   -3.5151   -2.9005    0.3849 H   0  0  0  0  0  0  0  0  0  0  0  0
   -1.5661   -2.3225    1.0864 C   0  0  0  0  0  0  0  0  0  0  0  0
   -0.5767   -3.0031    1.3088 O   0  0  0  0  0  0  0  0  0  0  0  0
   -1.4403   -1.0200    0.6498 N   0  0  0  0  0  0  0  0  0  0  0  0
   -2.2911   -0.4624    0.5985 H   0  0  0  0  0  0  0  0  0  0  0  0
   -0.1720   -0.2985    0.4556 C   0  0  1  0  0  0  0  0  0  0  0  0
    0.5764   -0.8043    1.0743 H   0  0  0  0  0  0  0  0  0  0  0  0
    0.3743   -0.3487   -1.0047 C   0  0  1  0  0  0  0  0  0  0  0  0
    1.2972    0.2412   -0.9860 H   0  0  0  0  0  0  0  0  0  0  0  0
    0.7915   -1.7879   -1.3537 C   0  0  0  0  0  0  0  0  0  0  0  0
   -0.0863   -2.4346   -1.4475 H   0  0  0  0  0  0  0  0  0  0  0  0
    1.3376   -1.8070   -2.3020 H   0  0  0  0  0  0  0  0  0  0  0  0
    1.4452   -2.2011   -0.5792 H   0  0  0  0  0  0  0  0  0  0  0  0
   -0.4695    0.2248   -2.1883 C   0  0  0  0  0  0  0  0  0  0  0  0
    0.1343    0.9880   -2.6900 H   0  0  0  0  0  0  0  0  0  0  0  0
   -0.6356   -0.5709   -2.9220 H   0  0  0  0  0  0  0  0  0  0  0  0
   -1.8418    0.8398   -1.9036 C   0  0  0  0  0  0  0  0  0  0  0  0
   -1.7433    1.7663   -1.3356 H   0  0  0  0  0  0  0  0  0  0  0  0
   -2.3308    1.0881   -2.8504 H   0  0  0  0  0  0  0  0  0  0  0  0
   -2.4911    0.1450   -1.3674 H   0  0  0  0  0  0  0  0  0  0  0  0
   -0.2304    1.1294    1.0429 C   0  0  0  0  0  0  0  0  0  0  0  0
   -1.2907    1.7427    1.0911 O   0  0  0  0  0  0  0  0  0  0  0  0
    0.8296    1.6030    1.7954 N   0  0  0  0  0  0  0  0  0  0  0  0
    1.6573    1.0176    1.8601 H   0  0  0  0  0  0  0  0  0  0  0  0
    0.7754    2.8335    2.5761 C   0  0  0  0  0  0  0  0  0  0  0  0
    0.0131    2.7570    3.3586 H   0  0  0  0  0  0  0  0  0  0  0  0
    1.7422    3.0227    3.0520 H   0  0  0  0  0  0  0  0  0  0  0  0
    0.5357    3.6862    1.9321 H   0  0  0  0  0  0  0  0  0  0  0  0
  1  2  1  0  0  0  0
  2  3  1  0  0  0  0
  2  4  1  0  0  0  0
  2  5  1  0  0  0  0
  5  6  2  0  0  0  0
  5  7  1  0  0  0  0
  7  8  1  0  0  0  0
  7  9  1  0  0  0  0
  9 10  1  0  0  0  0
  9 11  1  0  0  0  0
  9 24  1  0  0  0  0
 11 12  1  0  0  0  0
 11 13  1  0  0  0  0
 11 17  1  0  0  0  0
 13 14  1  0  0  0  0
 13 15  1  0  0  0  0
 13 16  1  0  0  0  0
 17 18  1  0  0  0  0
 17 19  1  0  0  0  0
 17 20  1  0  0  0  0
 20 21  1  0  0  0  0
 20 22  1  0  0  0  0
 20 23  1  0  0  0  0
 24 25  2  0  0  0  0
 24 26  1  0  0  0  0
 26 27  1  0  0  0  0
 26 28  1  0  0  0  0
 28 29  1  0  0  0  0
 28 30  1  0  0  0  0
 28 31  1  0  0  0  0
M  END
$$$$

  -OEChem-03222214053D

 31 30  0     1  0  0  0  0  0999 V2000
   -2.8940   -3.9145    1.6279 H   0  0  0  0  0  0  0  0  0  0  0  0
   -2.9645   -2.8827    1.2725 C   0  0  0  0  0  0  0  0  0  0  0  0
   -3.5000   -2.2894    2.0177 H   0  0  0  0  0  0  0  0  0  0  0  0
   -3.5253   -2.8702    0.3348 H   0  0  0  0  0  0  0  0  0  0  0  0
   -1.5775   -2.3090    1.0537 C   0  0  0  0  0  0  0  0  0  0  0  0
   -0.5931   -2.9945    1.2829 O   0  0  0  0  0  0  0  0  0  0  0  0
   -1.4416   -1.0040    0.6280 N   0  0  0  0  0  0  0  0  0  0  0  0
   -2.2899   -0.4436    0.5692 H   0  0  0  0  0  0  0  0  0  0  0  0
   -0.1684   -0.2860    0.4535 C   0  0  1  0  0  0  0  0  0  0  0  0
    0.5723   -0.7980    1.0763 H   0  0  0  0  0  0  0  0  0  0  0  0
    0.3806   -0.3544   -1.0044 C   0  0  1  0  0  0  0  0  0  0  0  0
    1.2953    0.2479   -0.9849 H   0  0  0  0  0  0  0  0  0  0  0  0
    0.8125   -1.7882   -1.3544 C   0  0  0  0  0  0  0  0  0  0  0  0
   -0.0561   -2.4490   -1.4343 H   0  0  0  0  0  0  0  0  0  0  0  0
    1.3444   -1.8016   -2.3107 H   0  0  0  0  0  0  0  0  0  0  0  0
    1.4821   -2.1891   -0.5870 H   0  0  0  0  0  0  0  0  0  0  0  0
   -0.4643    0.2132   -2.1852 C   0  0  0  0  0  0  0  0  0  0  0  0
    0.2108    0.7419   -2.8659 H   0  0  0  0  0  0  0  0  0  0  0  0
   -0.8826   -0.6295   -2.7457 H   0  0  0  0  0  0  0  0  0  0  0  0
   -1.6440    1.1332   -1.8703 C   0  0  0  0  0  0  0  0  0  0  0  0
   -1.2917    2.0704   -1.4315 H   0  0  0  0  0  0  0  0  0  0  0  0
   -2.1743    1.3785   -2.7954 H   0  0  0  0  0  0  0  0  0  0  0  0
   -2.3563    0.6566   -1.1931 H   0  0  0  0  0  0  0  0  0  0  0  0
   -0.2250    1.1389    1.0498 C   0  0  0  0  0  0  0  0  0  0  0  0
   -1.2842    1.7547    1.0966 O   0  0  0  0  0  0  0  0  0  0  0  0
    0.8290    1.6029    1.8168 N   0  0  0  0  0  0  0  0  0  0  0  0
    1.6524    1.0125    1.8893 H   0  0  0  0  0  0  0  0  0  0  0  0
    0.7711    2.8286    2.6047 C   0  0  0  0  0  0  0  0  0  0  0  0
    0.0159    2.7422    3.3930 H   0  0  0  0  0  0  0  0  0  0  0  0
    1.7406    3.0232    3.0732 H   0  0  0  0  0  0  0  0  0  0  0  0
    0.5192    3.6828    1.9672 H   0  0  0  0  0  0  0  0  0  0  0  0
  1  2  1  0  0  0  0
  2  3  1  0  0  0  0
  2  4  1  0  0  0  0
  2  5  1  0  0  0  0
  5  6  2  0  0  0  0
  5  7  1  0  0  0  0
  7  8  1  0  0  0  0
  7  9  1  0  0  0  0
  9 10  1  0  0  0  0
  9 11  1  0  0  0  0
  9 24  1  0  0  0  0
 11 12  1  0  0  0  0
 11 13  1  0  0  0  0
 11 17  1  0  0  0  0
 13 14  1  0  0  0  0
 13 15  1  0  0  0  0
 13 16  1  0  0  0  0
 17 18  1  0  0  0  0
 17 19  1  0  0  0  0
 17 20  1  0  0  0  0
 20 21  1  0  0  0  0
 20 22  1  0  0  0  0
 20 23  1  0  0  0  0
 24 25  2  0  0  0  0
 24 26  1  0  0  0  0
 26 27  1  0  0  0  0
 26 28  1  0  0  0  0
 28 29  1  0  0  0  0
 28 30  1  0  0  0  0
 28 31  1  0  0  0  0
M  END
$$$$

  -OEChem-03222214053D

 31 30  0     1  0  0  0  0  0999 V2000
   -2.8960   -3.9089    1.5845 H   0  0  0  0  0  0  0  0  0  0  0  0
   -2.9669   -2.8759    1.2324 C   0  0  0  0  0  0  0  0  0  0  0  0
   -3.5154   -2.2883    1.9727 H   0  0  0  0  0  0  0  0  0  0  0  0
   -3.5152   -2.8624    0.2874 H   0  0  0  0  0  0  0  0  0  0  0  0
   -1.5798   -2.2947    1.0338 C   0  0  0  0  0  0  0  0  0  0  0  0
   -0.5955   -2.9781    1.2693 O   0  0  0  0  0  0  0  0  0  0  0  0
   -1.4449   -0.9868    0.6166 N   0  0  0  0  0  0  0  0  0  0  0  0
   -2.2952   -0.4301    0.5530 H   0  0  0  0  0  0  0  0  0  0  0  0
   -0.1740   -0.2635    0.4479 C   0  0  1  0  0  0  0  0  0  0  0  0
    0.5622   -0.7760    1.0756 H   0  0  0  0  0  0  0  0  0  0  0  0
    0.3845   -0.3515   -1.0053 C   0  0  1  0  0  0  0  0  0  0  0  0
    1.2950    0.2574   -0.9937 H   0  0  0  0  0  0  0  0  0  0  0  0
    0.8199   -1.7849   -1.3494 C   0  0  0  0  0  0  0  0  0  0  0  0
   -0.0462   -2.4489   -1.4268 H   0  0  0  0  0  0  0  0  0  0  0  0
    1.3511   -1.8007   -2.3060 H   0  0  0  0  0  0  0  0  0  0  0  0
    1.4912   -2.1795   -0.5805 H   0  0  0  0  0  0  0  0  0  0  0  0
   -0.4714    0.1965   -2.1810 C   0  0  0  0  0  0  0  0  0  0  0  0
    0.2075    0.4915   -2.9880 H   0  0  0  0  0  0  0  0  0  0  0  0
   -1.0934   -0.6187   -2.5654 H   0  0  0  0  0  0  0  0  0  0  0  0
   -1.4146    1.3627   -1.8961 C   0  0  0  0  0  0  0  0  0  0  0  0
   -0.8620    2.2180   -1.4965 H   0  0  0  0  0  0  0  0  0  0  0  0
   -1.9018    1.6780   -2.8235 H   0  0  0  0  0  0  0  0  0  0  0  0
   -2.1968    1.0687   -1.1915 H   0  0  0  0  0  0  0  0  0  0  0  0
   -0.2232    1.1600    1.0497 C   0  0  0  0  0  0  0  0  0  0  0  0
   -1.2798    1.7793    1.1074 O   0  0  0  0  0  0  0  0  0  0  0  0
    0.8354    1.6149    1.8157 N   0  0  0  0  0  0  0  0  0  0  0  0
    1.6589    1.0232    1.8762 H   0  0  0  0  0  0  0  0  0  0  0  0
    0.7860    2.8346    2.6136 C   0  0  0  0  0  0  0  0  0  0  0  0
    0.0285    2.7481    3.3997 H   0  0  0  0  0  0  0  0  0  0  0  0
    1.7560    3.0171    3.0861 H   0  0  0  0  0  0  0  0  0  0  0  0
    0.5430    3.6961    1.9828 H   0  0  0  0  0  0  0  0  0  0  0  0
  1  2  1  0  0  0  0
  2  3  1  0  0  0  0
  2  4  1  0  0  0  0
  2  5  1  0  0  0  0
  5  6  2  0  0  0  0
  5  7  1  0  0  0  0
  7  8  1  0  0  0  0
  7  9  1  0  0  0  0
  9 10  1  0  0  0  0
  9 11  1  0  0  0  0
  9 24  1  0  0  0  0
 11 12  1  0  0  0  0
 11 13  1  0  0  0  0
 11 17  1  0  0  0  0
 13 14  1  0  0  0  0
 13 15  1  0  0  0  0
 13 16  1  0  0  0  0
 17 18  1  0  0  0  0
 17 19  1  0  0  0  0
 17 20  1  0  0  0  0
 20 21  1  0  0  0  0
 20 22  1  0  0  0  0
 20 23  1  0  0  0  0
 24 25  2  0  0  0  0
 24 26  1  0  0  0  0
 26 27  1  0  0  0  0
 26 28  1  0  0  0  0
 28 29  1  0  0  0  0
 28 30  1  0  0  0  0
 28 31  1  0  0  0  0
M  END
$$$$

  -OEChem-03222214053D

 31 30  0     1  0  0  0  0  0999 V2000
   -2.8940   -3.9013    1.5754 H   0  0  0  0  0  0  0  0  0  0  0  0
   -2.9629   -2.8724    1.2112 C   0  0  0  0  0  0  0  0  0  0  0  0
   -3.5214   -2.2781    1.9385 H   0  0  0  0  0  0  0  0  0  0  0  0
   -3.4998   -2.8702    0.2595 H   0  0  0  0  0  0  0  0  0  0  0  0
   -1.5748   -2.2901    1.0227 C   0  0  0  0  0  0  0  0  0  0  0  0
   -0.5922   -2.9713    1.2708 O   0  0  0  0  0  0  0  0  0  0  0  0
   -1.4371   -0.9832    0.6026 N   0  0  0  0  0  0  0  0  0  0  0  0
   -2.2872   -0.4276    0.5270 H   0  0  0  0  0  0  0  0  0  0  0  0
   -0.1652   -0.2603    0.4402 C   0  0  1  0  0  0  0  0  0  0  0  0
    0.5686   -0.7711    1.0720 H   0  0  0  0  0  0  0  0  0  0  0  0
    0.3988   -0.3517   -1.0104 C   0  0  1  0  0  0  0  0  0  0  0  0
    1.3174    0.2449   -1.0053 H   0  0  0  0  0  0  0  0  0  0  0  0
    0.8069   -1.7923   -1.3573 C   0  0  0  0  0  0  0  0  0  0  0  0
   -0.0719   -2.4379   -1.4461 H   0  0  0  0  0  0  0  0  0  0  0  0
    1.3467   -1.8161   -2.3089 H   0  0  0  0  0  0  0  0  0  0  0  0
    1.4628   -2.2042   -0.5840 H   0  0  0  0  0  0  0  0  0  0  0  0
   -0.4655    0.1982   -2.1750 C   0  0  0  0  0  0  0  0  0  0  0  0
    0.1718    0.2653   -3.0629 H   0  0  0  0  0  0  0  0  0  0  0  0
   -1.2584   -0.5231   -2.3986 H   0  0  0  0  0  0  0  0  0  0  0  0
   -1.1289    1.5580   -1.9709 C   0  0  0  0  0  0  0  0  0  0  0  0
   -0.4132    2.2859   -1.5768 H   0  0  0  0  0  0  0  0  0  0  0  0
   -1.5068    1.9327   -2.9269 H   0  0  0  0  0  0  0  0  0  0  0  0
   -1.9795    1.4735   -1.2903 H   0  0  0  0  0  0  0  0  0  0  0  0
   -0.2224    1.1635    1.0388 C   0  0  0  0  0  0  0  0  0  0  0  0
   -1.2815    1.7792    1.0879 O   0  0  0  0  0  0  0  0  0  0  0  0
    0.8291    1.6226    1.8119 N   0  0  0  0  0  0  0  0  0  0  0  0
    1.6504    1.0293    1.8867 H   0  0  0  0  0  0  0  0  0  0  0  0
    0.7684    2.8432    2.6073 C   0  0  0  0  0  0  0  0  0  0  0  0
   -0.0132    2.7652    3.3704 H   0  0  0  0  0  0  0  0  0  0  0  0
    1.7255    3.0160    3.1088 H   0  0  0  0  0  0  0  0  0  0  0  0
    0.5526    3.7063    1.9687 H   0  0  0  0  0  0  0  0  0  0  0  0
  1  2  1  0  0  0  0
  2  3  1  0  0  0  0
  2  4  1  0  0  0  0
  2  5  1  0  0  0  0
  5  6  2  0  0  0  0
  5  7  1  0  0  0  0
  7  8  1  0  0  0  0
  7  9  1  0  0  0  0
  9 10  1  0  0  0  0
  9 11  1  0  0  0  0
  9 24  1  0  0  0  0
 11 12  1  0  0  0  0
 11 13  1  0  0  0  0
 11 17  1  0  0  0  0
 13 14  1  0  0  0  0
 13 15  1  0  0  0  0
 13 16  1  0  0  0  0
 17 18  1  0  0  0  0
 17 19  1  0  0  0  0
 17 20  1  0  0  0  0
 20 21  1  0  0  0  0
 20 22  1  0  0  0  0
 20 23  1  0  0  0  0
 24 25  2  0  0  0  0
 24 26  1  0  0  0  0
 26 27  1  0  0  0  0
 26 28  1  0  0  0  0
 28 29  1  0  0  0  0
 28 30  1  0  0  0  0
 28 31  1  0  0  0  0
M  END
$$$$

  -OEChem-03222214053D

 31 30  0     1  0  0  0  0  0999 V2000
   -2.9338   -3.8746    1.5676 H   0  0  0  0  0  0  0  0  0  0  0  0
   -2.9865   -2.8498    1.1893 C   0  0  0  0  0  0  0  0  0  0  0  0
   -3.5515   -2.2408    1.8992 H   0  0  0  0  0  0  0  0  0  0  0  0
   -3.5072   -2.8552    0.2287 H   0  0  0  0  0  0  0  0  0  0  0  0
   -1.5902   -2.2826    1.0174 C   0  0  0  0  0  0  0  0  0  0  0  0
   -0.6178   -2.9673    1.2951 O   0  0  0  0  0  0  0  0  0  0  0  0
   -1.4344   -0.9843    0.5780 N   0  0  0  0  0  0  0  0  0  0  0  0
   -2.2782   -0.4218    0.4835 H   0  0  0  0  0  0  0  0  0  0  0  0
   -0.1537   -0.2721    0.4349 C   0  0  1  0  0  0  0  0  0  0  0  0
    0.5671   -0.7769    1.0861 H   0  0  0  0  0  0  0  0  0  0  0  0
    0.4340   -0.3695   -1.0053 C   0  0  1  0  0  0  0  0  0  0  0  0
    1.3690    0.2010   -0.9955 H   0  0  0  0  0  0  0  0  0  0  0  0
    0.8013   -1.8230   -1.3455 C   0  0  0  0  0  0  0  0  0  0  0  0
   -0.0976   -2.4364   -1.4598 H   0  0  0  0  0  0  0  0  0  0  0  0
    1.3659   -1.8647   -2.2819 H   0  0  0  0  0  0  0  0  0  0  0  0
    1.4220   -2.2590   -0.5566 H   0  0  0  0  0  0  0  0  0  0  0  0
   -0.4228    0.1933   -2.1669 C   0  0  0  0  0  0  0  0  0  0  0  0
    0.1316    0.0367   -3.0983 H   0  0  0  0  0  0  0  0  0  0  0  0
   -1.3531   -0.3789   -2.2433 H   0  0  0  0  0  0  0  0  0  0  0  0
   -0.7718    1.6796   -2.0912 C   0  0  0  0  0  0  0  0  0  0  0  0
    0.0837    2.2652   -1.7410 H   0  0  0  0  0  0  0  0  0  0  0  0
   -1.6231    1.8454   -1.4283 H   0  0  0  0  0  0  0  0  0  0  0  0
   -1.0548    2.0431   -3.0836 H   0  0  0  0  0  0  0  0  0  0  0  0
   -0.2320    1.1590    1.0104 C   0  0  0  0  0  0  0  0  0  0  0  0
   -1.2958    1.7686    1.0178 O   0  0  0  0  0  0  0  0  0  0  0  0
    0.7941    1.6351    1.8069 N   0  0  0  0  0  0  0  0  0  0  0  0
    1.6189    1.0509    1.9094 H   0  0  0  0  0  0  0  0  0  0  0  0
    0.7066    2.8709    2.5761 C   0  0  0  0  0  0  0  0  0  0  0  0
   -0.1040    2.8094    3.3100 H   0  0  0  0  0  0  0  0  0  0  0  0
    1.6440    3.0510    3.1109 H   0  0  0  0  0  0  0  0  0  0  0  0
    0.5185    3.7221    1.9132 H   0  0  0  0  0  0  0  0  0  0  0  0
  1  2  1  0  0  0  0
  2  3  1  0  0  0  0
  2  4  1  0  0  0  0
  2  5  1  0  0  0  0
  5  6  2  0  0  0  0
  5  7  1  0  0  0  0
  7  8  1  0  0  0  0
  7  9  1  0  0  0  0
  9 10  1  0  0  0  0
  9 11  1  0  0  0  0
  9 24  1  0  0  0  0
 11 12  1  0  0  0  0
 11 13  1  0  0  0  0
 11 17  1  0  0  0  0
 13 14  1  0  0  0  0
 13 15  1  0  0  0  0
 13 16  1  0  0  0  0
 17 18  1  0  0  0  0
 17 19  1  0  0  0  0
 17 20  1  0  0  0  0
 20 21  1  0  0  0  0
 20 22  1  0  0  0  0
 20 23  1  0  0  0  0
 24 25  2  0  0  0  0
 24 26  1  0  0  0  0
 26 27  1  0  0  0  0
 26 28  1  0  0  0  0
 28 29  1  0  0  0  0
 28 30  1  0  0  0  0
 28 31  1  0  0  0  0
M  END
$$$$

  -OEChem-03222214053D

 31 30  0     1  0  0  0  0  0999 V2000
   -2.9175   -3.8789    1.5824 H   0  0  0  0  0  0  0  0  0  0  0  0
   -2.9684   -2.8543    1.2036 C   0  0  0  0  0  0  0  0  0  0  0  0
   -3.5196   -2.2405    1.9203 H   0  0  0  0  0  0  0  0  0  0  0  0
   -3.5018   -2.8568    0.2500 H   0  0  0  0  0  0  0  0  0  0  0  0
   -1.5707   -2.2970    1.0124 C   0  0  0  0  0  0  0  0  0  0  0  0
   -0.5989   -2.9866    1.2796 O   0  0  0  0  0  0  0  0  0  0  0  0
   -1.4118   -1.0023    0.5643 N   0  0  0  0  0  0  0  0  0  0  0  0
   -2.2523   -0.4319    0.4842 H   0  0  0  0  0  0  0  0  0  0  0  0
   -0.1279   -0.2963    0.4166 C   0  0  1  0  0  0  0  0  0  0  0  0
    0.6013   -0.8007    1.0590 H   0  0  0  0  0  0  0  0  0  0  0  0
    0.4394   -0.3714   -1.0323 C   0  0  1  0  0  0  0  0  0  0  0  0
    1.3877    0.1768   -1.0343 H   0  0  0  0  0  0  0  0  0  0  0  0
    0.7682   -1.8275   -1.4013 C   0  0  0  0  0  0  0  0  0  0  0  0
   -0.1464   -2.4173   -1.5152 H   0  0  0  0  0  0  0  0  0  0  0  0
    1.3216   -1.8670   -2.3447 H   0  0  0  0  0  0  0  0  0  0  0  0
    1.3876   -2.2911   -0.6271 H   0  0  0  0  0  0  0  0  0  0  0  0
   -0.4484    0.2274   -2.1523 C   0  0  0  0  0  0  0  0  0  0  0  0
   -0.0626   -0.1178   -3.1171 H   0  0  0  0  0  0  0  0  0  0  0  0
   -1.4714   -0.1508   -2.0607 H   0  0  0  0  0  0  0  0  0  0  0  0
   -0.4767    1.7573   -2.2087 C   0  0  0  0  0  0  0  0  0  0  0  0
    0.5299    2.1691   -2.0883 H   0  0  0  0  0  0  0  0  0  0  0  0
   -0.8673    2.0814   -3.1781 H   0  0  0  0  0  0  0  0  0  0  0  0
   -1.1269    2.1744   -1.4396 H   0  0  0  0  0  0  0  0  0  0  0  0
   -0.2239    1.1339    0.9883 C   0  0  0  0  0  0  0  0  0  0  0  0
   -1.2951    1.7313    0.9785 O   0  0  0  0  0  0  0  0  0  0  0  0
    0.7911    1.6246    1.7899 N   0  0  0  0  0  0  0  0  0  0  0  0
    1.6218    1.0505    1.9001 H   0  0  0  0  0  0  0  0  0  0  0  0
    0.6893    2.8676    2.5450 C   0  0  0  0  0  0  0  0  0  0  0  0
   -0.1159    2.8024    3.2844 H   0  0  0  0  0  0  0  0  0  0  0  0
    1.6274    3.0682    3.0717 H   0  0  0  0  0  0  0  0  0  0  0  0
    0.4845    3.7082    1.8735 H   0  0  0  0  0  0  0  0  0  0  0  0
  1  2  1  0  0  0  0
  2  3  1  0  0  0  0
  2  4  1  0  0  0  0
  2  5  1  0  0  0  0
  5  6  2  0  0  0  0
  5  7  1  0  0  0  0
  7  8  1  0  0  0  0
  7  9  1  0  0  0  0
  9 10  1  0  0  0  0
  9 11  1  0  0  0  0
  9 24  1  0  0  0  0
 11 12  1  0  0  0  0
 11 13  1  0  0  0  0
 11 17  1  0  0  0  0
 13 14  1  0  0  0  0
 13 15  1  0  0  0  0
 13 16  1  0  0  0  0
 17 18  1  0  0  0  0
 17 19  1  0  0  0  0
 17 20  1  0  0  0  0
 20 21  1  0  0  0  0
 20 22  1  0  0  0  0
 20 23  1  0  0  0  0
 24 25  2  0  0  0  0
 24 26  1  0  0  0  0
 26 27  1  0  0  0  0
 26 28  1  0  0  0  0
 28 29  1  0  0  0  0
 28 30  1  0  0  0  0
 28 31  1  0  0  0  0
M  END
$$$$

  -OEChem-03222214053D

 31 30  0     1  0  0  0  0  0999 V2000
   -2.9275   -3.8768    1.6039 H   0  0  0  0  0  0  0  0  0  0  0  0
   -2.9701   -2.8605    1.2023 C   0  0  0  0  0  0  0  0  0  0  0  0
   -3.5277   -2.2300    1.8992 H   0  0  0  0  0  0  0  0  0  0  0  0
   -3.4922   -2.8823    0.2427 H   0  0  0  0  0  0  0  0  0  0  0  0
   -1.5678   -2.3124    1.0161 C   0  0  0  0  0  0  0  0  0  0  0  0
   -0.6019   -3.0005    1.3072 O   0  0  0  0  0  0  0  0  0  0  0  0
   -1.3953   -1.0278    0.5447 N   0  0  0  0  0  0  0  0  0  0  0  0
   -2.2307   -0.4546    0.4361 H   0  0  0  0  0  0  0  0  0  0  0  0
   -0.1028   -0.3333    0.4132 C   0  0  1  0  0  0  0  0  0  0  0  0
    0.6249   -0.8328    1.0610 H   0  0  0  0  0  0  0  0  0  0  0  0
    0.4597   -0.3903   -1.0376 C   0  0  1  0  0  0  0  0  0  0  0  0
    1.4189    0.1386   -1.0392 H   0  0  0  0  0  0  0  0  0  0  0  0
    0.7571   -1.8463   -1.4314 C   0  0  0  0  0  0  0  0  0  0  0  0
   -0.1693   -2.4172   -1.5467 H   0  0  0  0  0  0  0  0  0  0  0  0
    1.3025   -1.8803   -2.3796 H   0  0  0  0  0  0  0  0  0  0  0  0
    1.3730   -2.3332   -0.6688 H   0  0  0  0  0  0  0  0  0  0  0  0
   -0.4474    0.2502   -2.1196 C   0  0  0  0  0  0  0  0  0  0  0  0
   -0.2898   -0.2594   -3.0760 H   0  0  0  0  0  0  0  0  0  0  0  0
   -1.5011    0.1179   -1.8558 H   0  0  0  0  0  0  0  0  0  0  0  0
   -0.1633    1.7395   -2.3462 C   0  0  0  0  0  0  0  0  0  0  0  0
    0.8812    1.8873   -2.6369 H   0  0  0  0  0  0  0  0  0  0  0  0
   -0.8008    2.1180   -3.1508 H   0  0  0  0  0  0  0  0  0  0  0  0
   -0.3616    2.3336   -1.4531 H   0  0  0  0  0  0  0  0  0  0  0  0
   -0.2251    1.1046    0.9580 C   0  0  0  0  0  0  0  0  0  0  0  0
   -1.2815    1.7181    0.8418 O   0  0  0  0  0  0  0  0  0  0  0  0
    0.7577    1.6228    1.7815 N   0  0  0  0  0  0  0  0  0  0  0  0
    1.5793    1.0499    1.9517 H   0  0  0  0  0  0  0  0  0  0  0  0
    0.6335    2.9008    2.4719 C   0  0  0  0  0  0  0  0  0  0  0  0
   -0.2159    2.8823    3.1629 H   0  0  0  0  0  0  0  0  0  0  0  0
    1.5413    3.1106    3.0456 H   0  0  0  0  0  0  0  0  0  0  0  0
    0.4846    3.7124    1.7519 H   0  0  0  0  0  0  0  0  0  0  0  0
  1  2  1  0  0  0  0
  2  3  1  0  0  0  0
  2  4  1  0  0  0  0
  2  5  1  0  0  0  0
  5  6  2  0  0  0  0
  5  7  1  0  0  0  0
  7  8  1  0  0  0  0
  7  9  1  0  0  0  0
  9 10  1  0  0  0  0
  9 11  1  0  0  0  0
  9 24  1  0  0  0  0
 11 12  1  0  0  0  0
 11 13  1  0  0  0  0
 11 17  1  0  0  0  0
 13 14  1  0  0  0  0
 13 15  1  0  0  0  0
 13 16  1  0  0  0  0
 17 18  1  0  0  0  0
 17 19  1  0  0  0  0
 17 20  1  0  0  0  0
 20 21  1  0  0  0  0
 20 22  1  0  0  0  0
 20 23  1  0  0  0  0
 24 25  2  0  0  0  0
 24 26  1  0  0  0  0
 26 27  1  0  0  0  0
 26 28  1  0  0  0  0
 28 29  1  0  0  0  0
 28 30  1  0  0  0  0
 28 31  1  0  0  0  0
M  END
$$$$

  -OEChem-03222214053D

 31 30  0     1  0  0  0  0  0999 V2000
   -2.9382   -3.9004    1.5917 H   0  0  0  0  0  0  0  0  0  0  0  0
   -2.9765   -2.8886    1.1785 C   0  0  0  0  0  0  0  0  0  0  0  0
   -3.5583   -2.2548    1.8521 H   0  0  0  0  0  0  0  0  0  0  0  0
   -3.4707   -2.9242    0.2047 H   0  0  0  0  0  0  0  0  0  0  0  0
   -1.5735   -2.3318    1.0261 C   0  0  0  0  0  0  0  0  0  0  0  0
   -0.6105   -3.0085    1.3516 O   0  0  0  0  0  0  0  0  0  0  0  0
   -1.3962   -1.0539    0.5383 N   0  0  0  0  0  0  0  0  0  0  0  0
   -2.2314   -0.4915    0.3841 H   0  0  0  0  0  0  0  0  0  0  0  0
   -0.1022   -0.3598    0.4213 C   0  0  1  0  0  0  0  0  0  0  0  0
    0.6238   -0.8559    1.0735 H   0  0  0  0  0  0  0  0  0  0  0  0
    0.4611   -0.3997   -1.0255 C   0  0  1  0  0  0  0  0  0  0  0  0
    1.4200    0.1301   -1.0202 H   0  0  0  0  0  0  0  0  0  0  0  0
    0.7590   -1.8484   -1.4433 C   0  0  0  0  0  0  0  0  0  0  0  0
   -0.1652   -2.4253   -1.5458 H   0  0  0  0  0  0  0  0  0  0  0  0
    1.2840   -1.8651   -2.4034 H   0  0  0  0  0  0  0  0  0  0  0  0
    1.3935   -2.3396   -0.6988 H   0  0  0  0  0  0  0  0  0  0  0  0
   -0.4708    0.2653   -2.0719 C   0  0  0  0  0  0  0  0  0  0  0  0
   -0.5482   -0.3663   -2.9631 H   0  0  0  0  0  0  0  0  0  0  0  0
   -1.4836    0.3791   -1.6744 H   0  0  0  0  0  0  0  0  0  0  0  0
    0.0558    1.6348   -2.5086 C   0  0  0  0  0  0  0  0  0  0  0  0
    1.0431    1.5359   -2.9702 H   0  0  0  0  0  0  0  0  0  0  0  0
   -0.6247    2.0820   -3.2393 H   0  0  0  0  0  0  0  0  0  0  0  0
    0.1346    2.3119   -1.6531 H   0  0  0  0  0  0  0  0  0  0  0  0
   -0.2227    1.0890    0.9387 C   0  0  0  0  0  0  0  0  0  0  0  0
   -1.2441    1.7358    0.7317 O   0  0  0  0  0  0  0  0  0  0  0  0
    0.7481    1.6169    1.7698 N   0  0  0  0  0  0  0  0  0  0  0  0
    1.5480    1.0312    1.9916 H   0  0  0  0  0  0  0  0  0  0  0  0
    0.6466    2.9360    2.3820 C   0  0  0  0  0  0  0  0  0  0  0  0
   -0.2350    2.9916    3.0293 H   0  0  0  0  0  0  0  0  0  0  0  0
    1.5343    3.1411    2.9880 H   0  0  0  0  0  0  0  0  0  0  0  0
    0.5673    3.7100    1.6115 H   0  0  0  0  0  0  0  0  0  0  0  0
  1  2  1  0  0  0  0
  2  3  1  0  0  0  0
  2  4  1  0  0  0  0
  2  5  1  0  0  0  0
  5  6  2  0  0  0  0
  5  7  1  0  0  0  0
  7  8  1  0  0  0  0
  7  9  1  0  0  0  0
  9 10  1  0  0  0  0
  9 11  1  0  0  0  0
  9 24  1  0  0  0  0
 11 12  1  0  0  0  0
 11 13  1  0  0  0  0
 11 17  1  0  0  0  0
 13 14  1  0  0  0  0
 13 15  1  0  0  0  0
 13 16  1  0  0  0  0
 17 18  1  0  0  0  0
 17 19  1  0  0  0  0
 17 20  1  0  0  0  0
 20 21  1  0  0  0  0
 20 22  1  0  0  0  0
 20 23  1  0  0  0  0
 24 25  2  0  0  0  0
 24 26  1  0  0  0  0
 26 27  1  0  0  0  0
 26 28  1  0  0  0  0
 28 29  1  0  0  0  0
 28 30  1  0  0  0  0
 28 31  1  0  0  0  0
M  END
$$$$

  -OEChem-03222214053D

 31 30  0     1  0  0  0  0  0999 V2000
   -2.9425   -3.9035    1.5745 H   0  0  0  0  0  0  0  0  0  0  0  0
   -2.9836   -2.8894    1.1676 C   0  0  0  0  0  0  0  0  0  0  0  0
   -3.5695   -2.2619    1.8437 H   0  0  0  0  0  0  0  0  0  0  0  0
   -3.4752   -2.9209    0.1923 H   0  0  0  0  0  0  0  0  0  0  0  0
   -1.5822   -2.3268    1.0230 C   0  0  0  0  0  0  0  0  0  0  0  0
   -0.6185   -3.0006    1.3524 O   0  0  0  0  0  0  0  0  0  0  0  0
   -1.4073   -1.0481    0.5362 N   0  0  0  0  0  0  0  0  0  0  0  0
   -2.2436   -0.4908    0.3710 H   0  0  0  0  0  0  0  0  0  0  0  0
   -0.1149   -0.3517    0.4220 C   0  0  1  0  0  0  0  0  0  0  0  0
    0.6091   -0.8491    1.0752 H   0  0  0  0  0  0  0  0  0  0  0  0
    0.4490   -0.3995   -1.0221 C   0  0  1  0  0  0  0  0  0  0  0  0
    1.3985    0.1470   -1.0073 H   0  0  0  0  0  0  0  0  0  0  0  0
    0.7759   -1.8415   -1.4397 C   0  0  0  0  0  0  0  0  0  0  0  0
   -0.1348   -2.4424   -1.5224 H   0  0  0  0  0  0  0  0  0  0  0  0
    1.2826   -1.8481   -2.4097 H   0  0  0  0  0  0  0  0  0  0  0  0
    1.4360   -2.3127   -0.7048 H   0  0  0  0  0  0  0  0  0  0  0  0
   -0.4874    0.2580   -2.0695 C   0  0  0  0  0  0  0  0  0  0  0  0
   -0.7922   -0.4781   -2.8205 H   0  0  0  0  0  0  0  0  0  0  0  0
   -1.4049    0.6248   -1.6013 H   0  0  0  0  0  0  0  0  0  0  0  0
    0.2022    1.4249   -2.7779 C   0  0  0  0  0  0  0  0  0  0  0  0
    1.1017    1.0803   -3.2977 H   0  0  0  0  0  0  0  0  0  0  0  0
   -0.4743    1.8709   -3.5133 H   0  0  0  0  0  0  0  0  0  0  0  0
    0.4855    2.1973   -2.0555 H   0  0  0  0  0  0  0  0  0  0  0  0
   -0.2214    1.1000    0.9365 C   0  0  0  0  0  0  0  0  0  0  0  0
   -1.2366    1.7577    0.7349 O   0  0  0  0  0  0  0  0  0  0  0  0
    0.7576    1.6177    1.7644 N   0  0  0  0  0  0  0  0  0  0  0  0
    1.5511    1.0228    1.9847 H   0  0  0  0  0  0  0  0  0  0  0  0
    0.6674    2.9332    2.3857 C   0  0  0  0  0  0  0  0  0  0  0  0
   -0.2013    2.9842    3.0504 H   0  0  0  0  0  0  0  0  0  0  0  0
    1.5668    3.1350    2.9753 H   0  0  0  0  0  0  0  0  0  0  0  0
    0.5734    3.7121    1.6218 H   0  0  0  0  0  0  0  0  0  0  0  0
  1  2  1  0  0  0  0
  2  3  1  0  0  0  0
  2  4  1  0  0  0  0
  2  5  1  0  0  0  0
  5  6  2  0  0  0  0
  5  7  1  0  0  0  0
  7  8  1  0  0  0  0
  7  9  1  0  0  0  0
  9 10  1  0  0  0  0
  9 11  1  0  0  0  0
  9 24  1  0  0  0  0
 11 12  1  0  0  0  0
 11 13  1  0  0  0  0
 11 17  1  0  0  0  0
 13 14  1  0  0  0  0
 13 15  1  0  0  0  0
 13 16  1  0  0  0  0
 17 18  1  0  0  0  0
 17 19  1  0  0  0  0
 17 20  1  0  0  0  0
 20 21  1  0  0  0  0
 20 22  1  0  0  0  0
 20 23  1  0  0  0  0
 24 25  2  0  0  0  0
 24 26  1  0  0  0  0
 26 27  1  0  0  0  0
 26 28  1  0  0  0  0
 28 29  1  0  0  0  0
 28 30  1  0  0  0  0
 28 31  1  0  0  0  0
M  END
$$$$

  -OEChem-03222214053D

 31 30  0     1  0  0  0  0  0999 V2000
   -2.9440   -3.9001    1.5676 H   0  0  0  0  0  0  0  0  0  0  0  0
   -2.9872   -2.8869    1.1585 C   0  0  0  0  0  0  0  0  0  0  0  0
   -3.5745   -2.2593    1.8330 H   0  0  0  0  0  0  0  0  0  0  0  0
   -3.4785   -2.9215    0.1832 H   0  0  0  0  0  0  0  0  0  0  0  0
   -1.5871   -2.3213    1.0130 C   0  0  0  0  0  0  0  0  0  0  0  0
   -0.6210   -2.9965    1.3325 O   0  0  0  0  0  0  0  0  0  0  0  0
   -1.4169   -1.0377    0.5375 N   0  0  0  0  0  0  0  0  0  0  0  0
   -2.2555   -0.4808    0.3825 H   0  0  0  0  0  0  0  0  0  0  0  0
   -0.1269   -0.3376    0.4219 C   0  0  1  0  0  0  0  0  0  0  0  0
    0.5972   -0.8391    1.0723 H   0  0  0  0  0  0  0  0  0  0  0  0
    0.4346   -0.3952   -1.0224 C   0  0  1  0  0  0  0  0  0  0  0  0
    1.3733    0.1694   -1.0038 H   0  0  0  0  0  0  0  0  0  0  0  0
    0.7856   -1.8319   -1.4369 C   0  0  0  0  0  0  0  0  0  0  0  0
   -0.1140   -2.4503   -1.5105 H   0  0  0  0  0  0  0  0  0  0  0  0
    1.2854   -1.8339   -2.4103 H   0  0  0  0  0  0  0  0  0  0  0  0
    1.4590   -2.2875   -0.7042 H   0  0  0  0  0  0  0  0  0  0  0  0
   -0.4994    0.2485   -2.0779 C   0  0  0  0  0  0  0  0  0  0  0  0
   -1.0220   -0.5293   -2.6441 H   0  0  0  0  0  0  0  0  0  0  0  0
   -1.2695    0.8591   -1.6003 H   0  0  0  0  0  0  0  0  0  0  0  0
    0.2824    1.1425   -3.0414 C   0  0  0  0  0  0  0  0  0  0  0  0
    1.0521    0.5647   -3.5624 H   0  0  0  0  0  0  0  0  0  0  0  0
   -0.3937    1.5716   -3.7870 H   0  0  0  0  0  0  0  0  0  0  0  0
    0.7637    1.9622   -2.4985 H   0  0  0  0  0  0  0  0  0  0  0  0
   -0.2234    1.1109    0.9489 C   0  0  0  0  0  0  0  0  0  0  0  0
   -1.2437    1.7689    0.7765 O   0  0  0  0  0  0  0  0  0  0  0  0
    0.7652    1.6178    1.7725 N   0  0  0  0  0  0  0  0  0  0  0  0
    1.5653    1.0234    1.9692 H   0  0  0  0  0  0  0  0  0  0  0  0
    0.6866    2.9286    2.4059 C   0  0  0  0  0  0  0  0  0  0  0  0
   -0.1870    2.9850    3.0638 H   0  0  0  0  0  0  0  0  0  0  0  0
    1.5830    3.1136    3.0054 H   0  0  0  0  0  0  0  0  0  0  0  0
    0.6091    3.7157    1.6484 H   0  0  0  0  0  0  0  0  0  0  0  0
  1  2  1  0  0  0  0
  2  3  1  0  0  0  0
  2  4  1  0  0  0  0
  2  5  1  0  0  0  0
  5  6  2  0  0  0  0
  5  7  1  0  0  0  0
  7  8  1  0  0  0  0
  7  9  1  0  0  0  0
  9 10  1  0  0  0  0
  9 11  1  0  0  0  0
  9 24  1  0  0  0  0
 11 12  1  0  0  0  0
 11 13  1  0  0  0  0
 11 17  1  0  0  0  0
 13 14  1  0  0  0  0
 13 15  1  0  0  0  0
 13 16  1  0  0  0  0
 17 18  1  0  0  0  0
 17 19  1  0  0  0  0
 17 20  1  0  0  0  0
 20 21  1  0  0  0  0
 20 22  1  0  0  0  0
 20 23  1  0  0  0  0
 24 25  2  0  0  0  0
 24 26  1  0  0  0  0
 26 27  1  0  0  0  0
 26 28  1  0  0  0  0
 28 29  1  0  0  0  0
 28 30  1  0  0  0  0
 28 31  1  0  0  0  0
M  END
$$$$

  -OEChem-03222214053D

 31 30  0     1  0  0  0  0  0999 V2000
   -2.9465   -3.8893    1.5691 H   0  0  0  0  0  0  0  0  0  0  0  0
   -2.9883   -2.8754    1.1611 C   0  0  0  0  0  0  0  0  0  0  0  0
   -3.5695   -2.2466    1.8401 H   0  0  0  0  0  0  0  0  0  0  0  0
   -3.4857   -2.9071    0.1888 H   0  0  0  0  0  0  0  0  0  0  0  0
   -1.5871   -2.3146    1.0070 C   0  0  0  0  0  0  0  0  0  0  0  0
   -0.6216   -2.9943    1.3187 O   0  0  0  0  0  0  0  0  0  0  0  0
   -1.4150   -1.0304    0.5339 N   0  0  0  0  0  0  0  0  0  0  0  0
   -2.2525   -0.4695    0.3878 H   0  0  0  0  0  0  0  0  0  0  0  0
   -0.1242   -0.3324    0.4161 C   0  0  1  0  0  0  0  0  0  0  0  0
    0.5997   -0.8340    1.0666 H   0  0  0  0  0  0  0  0  0  0  0  0
    0.4380   -0.3952   -1.0288 C   0  0  1  0  0  0  0  0  0  0  0  0
    1.3741    0.1738   -1.0155 H   0  0  0  0  0  0  0  0  0  0  0  0
    0.7862   -1.8368   -1.4333 C   0  0  0  0  0  0  0  0  0  0  0  0
   -0.1171   -2.4475   -1.5236 H   0  0  0  0  0  0  0  0  0  0  0  0
    1.3073   -1.8504   -2.3948 H   0  0  0  0  0  0  0  0  0  0  0  0
    1.4399   -2.2957   -0.6851 H   0  0  0  0  0  0  0  0  0  0  0  0
   -0.4965    0.2464   -2.0824 C   0  0  0  0  0  0  0  0  0  0  0  0
   -1.2132   -0.4959   -2.4480 H   0  0  0  0  0  0  0  0  0  0  0  0
   -1.0763    1.0601   -1.6410 H   0  0  0  0  0  0  0  0  0  0  0  0
    0.2926    0.8294   -3.2572 C   0  0  0  0  0  0  0  0  0  0  0  0
    0.8670    0.0493   -3.7651 H   0  0  0  0  0  0  0  0  0  0  0  0
   -0.3937    1.2789   -3.9812 H   0  0  0  0  0  0  0  0  0  0  0  0
    0.9830    1.6040   -2.9089 H   0  0  0  0  0  0  0  0  0  0  0  0
   -0.2225    1.1142    0.9478 C   0  0  0  0  0  0  0  0  0  0  0  0
   -1.2489    1.7662    0.7892 O   0  0  0  0  0  0  0  0  0  0  0  0
    0.7671    1.6192    1.7711 N   0  0  0  0  0  0  0  0  0  0  0  0
    1.5717    1.0278    1.9576 H   0  0  0  0  0  0  0  0  0  0  0  0
    0.6829    2.9218    2.4201 C   0  0  0  0  0  0  0  0  0  0  0  0
   -0.1813    2.9608    3.0917 H   0  0  0  0  0  0  0  0  0  0  0  0
    1.5863    3.1107    3.0080 H   0  0  0  0  0  0  0  0  0  0  0  0
    0.5847    3.7162    1.6726 H   0  0  0  0  0  0  0  0  0  0  0  0
  1  2  1  0  0  0  0
  2  3  1  0  0  0  0
  2  4  1  0  0  0  0
  2  5  1  0  0  0  0
  5  6  2  0  0  0  0
  5  7  1  0  0  0  0
  7  8  1  0  0  0  0
  7  9  1  0  0  0  0
  9 10  1  0  0  0  0
  9 11  1  0  0  0  0
  9 24  1  0  0  0  0
 11 12  1  0  0  0  0
 11 13  1  0  0  0  0
 11 17  1  0  0  0  0
 13 14  1  0  0  0  0
 13 15  1  0  0  0  0
 13 16  1  0  0  0  0
 17 18  1  0  0  0  0
 17 19  1  0  0  0  0
 17 20  1  0  0  0  0
 20 21  1  0  0  0  0
 20 22  1  0  0  0  0
 20 23  1  0  0  0  0
 24 25  2  0  0  0  0
 24 26  1  0  0  0  0
 26 27  1  0  0  0  0
 26 28  1  0  0  0  0
 28 29  1  0  0  0  0
 28 30  1  0  0  0  0
 28 31  1  0  0  0  0
M  END
$$$$

  -OEChem-03222214053D

 31 30  0     1  0  0  0  0  0999 V2000
   -2.9509   -3.8849    1.5668 H   0  0  0  0  0  0  0  0  0  0  0  0
   -2.9874   -2.8722    1.1556 C   0  0  0  0  0  0  0  0  0  0  0  0
   -3.5718   -2.2400    1.8286 H   0  0  0  0  0  0  0  0  0  0  0  0
   -3.4782   -2.9056    0.1800 H   0  0  0  0  0  0  0  0  0  0  0  0
   -1.5835   -2.3153    1.0100 C   0  0  0  0  0  0  0  0  0  0  0  0
   -0.6221   -2.9946    1.3347 O   0  0  0  0  0  0  0  0  0  0  0  0
   -1.4043   -1.0338    0.5322 N   0  0  0  0  0  0  0  0  0  0  0  0
   -2.2393   -0.4717    0.3764 H   0  0  0  0  0  0  0  0  0  0  0  0
   -0.1108   -0.3398    0.4162 C   0  0  1  0  0  0  0  0  0  0  0  0
    0.6114   -0.8398    1.0695 H   0  0  0  0  0  0  0  0  0  0  0  0
    0.4523   -0.4013   -1.0297 C   0  0  1  0  0  0  0  0  0  0  0  0
    1.3911    0.1632   -1.0267 H   0  0  0  0  0  0  0  0  0  0  0  0
    0.7877   -1.8509   -1.4208 C   0  0  0  0  0  0  0  0  0  0  0  0
   -0.1249   -2.4383   -1.5603 H   0  0  0  0  0  0  0  0  0  0  0  0
    1.3625   -1.8795   -2.3504 H   0  0  0  0  0  0  0  0  0  0  0  0
    1.3896   -2.3273   -0.6407 H   0  0  0  0  0  0  0  0  0  0  0  0
   -0.4895    0.2497   -2.0712 C   0  0  0  0  0  0  0  0  0  0  0  0
   -1.3627   -0.3900   -2.2349 H   0  0  0  0  0  0  0  0  0  0  0  0
   -0.8532    1.2107   -1.6993 H   0  0  0  0  0  0  0  0  0  0  0  0
    0.2092    0.5152   -3.4078 C   0  0  0  0  0  0  0  0  0  0  0  0
    0.5026   -0.4211   -3.8905 H   0  0  0  0  0  0  0  0  0  0  0  0
   -0.4684    1.0483   -4.0817 H   0  0  0  0  0  0  0  0  0  0  0  0
    1.1018    1.1306   -3.2589 H   0  0  0  0  0  0  0  0  0  0  0  0
   -0.2152    1.1077    0.9430 C   0  0  0  0  0  0  0  0  0  0  0  0
   -1.2410    1.7574    0.7704 O   0  0  0  0  0  0  0  0  0  0  0  0
    0.7676    1.6191    1.7706 N   0  0  0  0  0  0  0  0  0  0  0  0
    1.5711    1.0295    1.9681 H   0  0  0  0  0  0  0  0  0  0  0  0
    0.6773    2.9263    2.4097 C   0  0  0  0  0  0  0  0  0  0  0  0
   -0.1970    2.9725    3.0676 H   0  0  0  0  0  0  0  0  0  0  0  0
    1.5720    3.1159    3.0106 H   0  0  0  0  0  0  0  0  0  0  0  0
    0.5936    3.7161    1.6558 H   0  0  0  0  0  0  0  0  0  0  0  0
  1  2  1  0  0  0  0
  2  3  1  0  0  0  0
  2  4  1  0  0  0  0
  2  5  1  0  0  0  0
  5  6  2  0  0  0  0
  5  7  1  0  0  0  0
  7  8  1  0  0  0  0
  7  9  1  0  0  0  0
  9 10  1  0  0  0  0
  9 11  1  0  0  0  0
  9 24  1  0  0  0  0
 11 12  1  0  0  0  0
 11 13  1  0  0  0  0
 11 17  1  0  0  0  0
 13 14  1  0  0  0  0
 13 15  1  0  0  0  0
 13 16  1  0  0  0  0
 17 18  1  0  0  0  0
 17 19  1  0  0  0  0
 17 20  1  0  0  0  0
 20 21  1  0  0  0  0
 20 22  1  0  0  0  0
 20 23  1  0  0  0  0
 24 25  2  0  0  0  0
 24 26  1  0  0  0  0
 26 27  1  0  0  0  0
 26 28  1  0  0  0  0
 28 29  1  0  0  0  0
 28 30  1  0  0  0  0
 28 31  1  0  0  0  0
M  END
$$$$

  -OEChem-03222214053D

 31 30  0     1  0  0  0  0  0999 V2000
   -2.9762   -3.8721    1.5564 H   0  0  0  0  0  0  0  0  0  0  0  0
   -3.0036   -2.8581    1.1476 C   0  0  0  0  0  0  0  0  0  0  0  0
   -3.5860   -2.2228    1.8194 H   0  0  0  0  0  0  0  0  0  0  0  0
   -3.4903   -2.8848    0.1697 H   0  0  0  0  0  0  0  0  0  0  0  0
   -1.5957   -2.3108    1.0092 C   0  0  0  0  0  0  0  0  0  0  0  0
   -0.6409   -2.9956    1.3416 O   0  0  0  0  0  0  0  0  0  0  0  0
   -1.4088   -1.0278    0.5380 N   0  0  0  0  0  0  0  0  0  0  0  0
   -2.2417   -0.4636    0.3784 H   0  0  0  0  0  0  0  0  0  0  0  0
   -0.1133   -0.3374    0.4151 C   0  0  1  0  0  0  0  0  0  0  0  0
    0.6055   -0.8481    1.0641 H   0  0  0  0  0  0  0  0  0  0  0  0
    0.4570   -0.4036   -1.0326 C   0  0  1  0  0  0  0  0  0  0  0  0
    1.4949   -0.0582   -0.9763 H   0  0  0  0  0  0  0  0  0  0  0  0
    0.4971   -1.8522   -1.5534 C   0  0  0  0  0  0  0  0  0  0  0  0
   -0.5106   -2.2128   -1.7816 H   0  0  0  0  0  0  0  0  0  0  0  0
    1.1045   -1.9230   -2.4601 H   0  0  0  0  0  0  0  0  0  0  0  0
    0.9451   -2.5137   -0.8057 H   0  0  0  0  0  0  0  0  0  0  0  0
   -0.2806    0.5489   -2.0068 C   0  0  0  0  0  0  0  0  0  0  0  0
   -1.3476    0.3039   -2.0218 H   0  0  0  0  0  0  0  0  0  0  0  0
   -0.1822    1.5808   -1.6567 H   0  0  0  0  0  0  0  0  0  0  0  0
    0.2632    0.5009   -3.4378 C   0  0  0  0  0  0  0  0  0  0  0  0
    0.0487   -0.4634   -3.9074 H   0  0  0  0  0  0  0  0  0  0  0  0
   -0.2092    1.2827   -4.0403 H   0  0  0  0  0  0  0  0  0  0  0  0
    1.3450    0.6658   -3.4430 H   0  0  0  0  0  0  0  0  0  0  0  0
   -0.2160    1.1061    0.9534 C   0  0  0  0  0  0  0  0  0  0  0  0
   -1.2396    1.7586    0.7764 O   0  0  0  0  0  0  0  0  0  0  0  0
    0.7696    1.6162    1.7782 N   0  0  0  0  0  0  0  0  0  0  0  0
    1.5688    1.0224    1.9807 H   0  0  0  0  0  0  0  0  0  0  0  0
    0.6783    2.9215    2.4211 C   0  0  0  0  0  0  0  0  0  0  0  0
   -0.1857    2.9580    3.0930 H   0  0  0  0  0  0  0  0  0  0  0  0
    1.5810    3.1188    3.0071 H   0  0  0  0  0  0  0  0  0  0  0  0
    0.5746    3.7117    1.6700 H   0  0  0  0  0  0  0  0  0  0  0  0
  1  2  1  0  0  0  0
  2  3  1  0  0  0  0
  2  4  1  0  0  0  0
  2  5  1  0  0  0  0
  5  6  2  0  0  0  0
  5  7  1  0  0  0  0
  7  8  1  0  0  0  0
  7  9  1  0  0  0  0
  9 10  1  0  0  0  0
  9 11  1  0  0  0  0
  9 24  1  0  0  0  0
 11 12  1  0  0  0  0
 11 13  1  0  0  0  0
 11 17  1  0  0  0  0
 13 14  1  0  0  0  0
 13 15  1  0  0  0  0
 13 16  1  0  0  0  0
 17 18  1  0  0  0  0
 17 19  1  0  0  0  0
 17 20  1  0  0  0  0
 20 21  1  0  0  0  0
 20 22  1  0  0  0  0
 20 23  1  0  0  0  0
 24 25  2  0  0  0  0
 24 26  1  0  0  0  0
 26 27  1  0  0  0  0
 26 28  1  0  0  0  0
 28 29  1  0  0  0  0
 28 30  1  0  0  0  0
 28 31  1  0  0  0  0
M  END
$$$$

  -OEChem-03222214053D

 31 30  0     1  0  0  0  0  0999 V2000
   -2.9867   -3.8788    1.5519 H   0  0  0  0  0  0  0  0  0  0  0  0
   -3.0112   -2.8654    1.1411 C   0  0  0  0  0  0  0  0  0  0  0  0
   -3.6036   -2.2306    1.8046 H   0  0  0  0  0  0  0  0  0  0  0  0
   -3.4856   -2.8955    0.1572 H   0  0  0  0  0  0  0  0  0  0  0  0
   -1.6026   -2.3151    1.0198 C   0  0  0  0  0  0  0  0  0  0  0  0
   -0.6516   -2.9950    1.3721 O   0  0  0  0  0  0  0  0  0  0  0  0
   -1.4098   -1.0365    0.5386 N   0  0  0  0  0  0  0  0  0  0  0  0
   -2.2405   -0.4760    0.3562 H   0  0  0  0  0  0  0  0  0  0  0  0
   -0.1112   -0.3503    0.4194 C   0  0  1  0  0  0  0  0  0  0  0  0
    0.6043   -0.8587    1.0740 H   0  0  0  0  0  0  0  0  0  0  0  0
    0.4668   -0.4148   -1.0251 C   0  0  1  0  0  0  0  0  0  0  0  0
    1.5066   -0.0744   -0.9739 H   0  0  0  0  0  0  0  0  0  0  0  0
    0.5058   -1.8689   -1.5331 C   0  0  0  0  0  0  0  0  0  0  0  0
   -0.5022   -2.2334   -1.7533 H   0  0  0  0  0  0  0  0  0  0  0  0
    1.1099   -1.9468   -2.4416 H   0  0  0  0  0  0  0  0  0  0  0  0
    0.9571   -2.5232   -0.7809 H   0  0  0  0  0  0  0  0  0  0  0  0
   -0.2740    0.5486   -1.9895 C   0  0  0  0  0  0  0  0  0  0  0  0
   -1.3530    0.4725   -1.8199 H   0  0  0  0  0  0  0  0  0  0  0  0
    0.0233    1.5779   -1.7640 H   0  0  0  0  0  0  0  0  0  0  0  0
   -0.0135    0.2889   -3.4767 C   0  0  0  0  0  0  0  0  0  0  0  0
   -0.4357   -0.6708   -3.7889 H   0  0  0  0  0  0  0  0  0  0  0  0
   -0.4805    1.0752   -4.0774 H   0  0  0  0  0  0  0  0  0  0  0  0
    1.0613    0.2893   -3.6828 H   0  0  0  0  0  0  0  0  0  0  0  0
   -0.2114    1.0988    0.9436 C   0  0  0  0  0  0  0  0  0  0  0  0
   -1.2246    1.7604    0.7424 O   0  0  0  0  0  0  0  0  0  0  0  0
    0.7711    1.6111    1.7707 N   0  0  0  0  0  0  0  0  0  0  0  0
    1.5640    1.0136    1.9861 H   0  0  0  0  0  0  0  0  0  0  0  0
    0.6878    2.9268    2.3931 C   0  0  0  0  0  0  0  0  0  0  0  0
   -0.1854    2.9848    3.0511 H   0  0  0  0  0  0  0  0  0  0  0  0
    1.5842    3.1207    2.9898 H   0  0  0  0  0  0  0  0  0  0  0  0
    0.6062    3.7074    1.6294 H   0  0  0  0  0  0  0  0  0  0  0  0
  1  2  1  0  0  0  0
  2  3  1  0  0  0  0
  2  4  1  0  0  0  0
  2  5  1  0  0  0  0
  5  6  2  0  0  0  0
  5  7  1  0  0  0  0
  7  8  1  0  0  0  0
  7  9  1  0  0  0  0
  9 10  1  0  0  0  0
  9 11  1  0  0  0  0
  9 24  1  0  0  0  0
 11 12  1  0  0  0  0
 11 13  1  0  0  0  0
 11 17  1  0  0  0  0
 13 14  1  0  0  0  0
 13 15  1  0  0  0  0
 13 16  1  0  0  0  0
 17 18  1  0  0  0  0
 17 19  1  0  0  0  0
 17 20  1  0  0  0  0
 20 21  1  0  0  0  0
 20 22  1  0  0  0  0
 20 23  1  0  0  0  0
 24 25  2  0  0  0  0
 24 26  1  0  0  0  0
 26 27  1  0  0  0  0
 26 28  1  0  0  0  0
 28 29  1  0  0  0  0
 28 30  1  0  0  0  0
 28 31  1  0  0  0  0
M  END
$$$$

  -OEChem-03222214053D

 31 30  0     1  0  0  0  0  0999 V2000
   -2.9966   -3.8814    1.5544 H   0  0  0  0  0  0  0  0  0  0  0  0
   -3.0219   -2.8698    1.1395 C   0  0  0  0  0  0  0  0  0  0  0  0
   -3.6175   -2.2336    1.7987 H   0  0  0  0  0  0  0  0  0  0  0  0
   -3.4930   -2.9046    0.1544 H   0  0  0  0  0  0  0  0  0  0  0  0
   -1.6139   -2.3181    1.0199 C   0  0  0  0  0  0  0  0  0  0  0  0
   -0.6620   -2.9995    1.3672 O   0  0  0  0  0  0  0  0  0  0  0  0
   -1.4220   -1.0389    0.5398 N   0  0  0  0  0  0  0  0  0  0  0  0
   -2.2532   -0.4786    0.3594 H   0  0  0  0  0  0  0  0  0  0  0  0
   -0.1238   -0.3520    0.4211 C   0  0  1  0  0  0  0  0  0  0  0  0
    0.5889   -0.8614    1.0777 H   0  0  0  0  0  0  0  0  0  0  0  0
    0.4617   -0.4177   -1.0196 C   0  0  1  0  0  0  0  0  0  0  0  0
    1.4981   -0.0683   -0.9643 H   0  0  0  0  0  0  0  0  0  0  0  0
    0.5283   -1.8780   -1.5089 C   0  0  0  0  0  0  0  0  0  0  0  0
   -0.4730   -2.2740   -1.7028 H   0  0  0  0  0  0  0  0  0  0  0  0
    1.1172   -1.9530   -2.4277 H   0  0  0  0  0  0  0  0  0  0  0  0
    1.0111   -2.5091   -0.7563 H   0  0  0  0  0  0  0  0  0  0  0  0
   -0.2775    0.5446   -1.9922 C   0  0  0  0  0  0  0  0  0  0  0  0
   -1.3177    0.6558   -1.6703 H   0  0  0  0  0  0  0  0  0  0  0  0
    0.1895    1.5334   -1.9332 H   0  0  0  0  0  0  0  0  0  0  0  0
   -0.3201    0.1012   -3.4587 C   0  0  0  0  0  0  0  0  0  0  0  0
   -0.8888   -0.8263   -3.5746 H   0  0  0  0  0  0  0  0  0  0  0  0
   -0.8055    0.8727   -4.0642 H   0  0  0  0  0  0  0  0  0  0  0  0
    0.6933   -0.0499   -3.8430 H   0  0  0  0  0  0  0  0  0  0  0  0
   -0.2139    1.0988    0.9443 C   0  0  0  0  0  0  0  0  0  0  0  0
   -1.2240    1.7667    0.7496 O   0  0  0  0  0  0  0  0  0  0  0  0
    0.7739    1.6060    1.7685 N   0  0  0  0  0  0  0  0  0  0  0  0
    1.5661    1.0060    1.9792 H   0  0  0  0  0  0  0  0  0  0  0  0
    0.7049    2.9265    2.3825 C   0  0  0  0  0  0  0  0  0  0  0  0
   -0.1734    3.0014    3.0323 H   0  0  0  0  0  0  0  0  0  0  0  0
    1.5986    3.1104    2.9864 H   0  0  0  0  0  0  0  0  0  0  0  0
    0.6420    3.7038    1.6138 H   0  0  0  0  0  0  0  0  0  0  0  0
  1  2  1  0  0  0  0
  2  3  1  0  0  0  0
  2  4  1  0  0  0  0
  2  5  1  0  0  0  0
  5  6  2  0  0  0  0
  5  7  1  0  0  0  0
  7  8  1  0  0  0  0
  7  9  1  0  0  0  0
  9 10  1  0  0  0  0
  9 11  1  0  0  0  0
  9 24  1  0  0  0  0
 11 12  1  0  0  0  0
 11 13  1  0  0  0  0
 11 17  1  0  0  0  0
 13 14  1  0  0  0  0
 13 15  1  0  0  0  0
 13 16  1  0  0  0  0
 17 18  1  0  0  0  0
 17 19  1  0  0  0  0
 17 20  1  0  0  0  0
 20 21  1  0  0  0  0
 20 22  1  0  0  0  0
 20 23  1  0  0  0  0
 24 25  2  0  0  0  0
 24 26  1  0  0  0  0
 26 27  1  0  0  0  0
 26 28  1  0  0  0  0
 28 29  1  0  0  0  0
 28 30  1  0  0  0  0
 28 31  1  0  0  0  0
M  END
$$$$

  -OEChem-03222214053D

 31 30  0     1  0  0  0  0  0999 V2000
   -3.0023   -3.8754    1.5548 H   0  0  0  0  0  0  0  0  0  0  0  0
   -3.0312   -2.8621    1.1444 C   0  0  0  0  0  0  0  0  0  0  0  0
   -3.6191   -2.2282    1.8128 H   0  0  0  0  0  0  0  0  0  0  0  0
   -3.5134   -2.8924    0.1643 H   0  0  0  0  0  0  0  0  0  0  0  0
   -1.6241   -2.3106    1.0118 C   0  0  0  0  0  0  0  0  0  0  0  0
   -0.6688   -2.9947    1.3444 O   0  0  0  0  0  0  0  0  0  0  0  0
   -1.4380   -1.0272    0.5408 N   0  0  0  0  0  0  0  0  0  0  0  0
   -2.2717   -0.4665    0.3743 H   0  0  0  0  0  0  0  0  0  0  0  0
   -0.1429   -0.3364    0.4171 C   0  0  1  0  0  0  0  0  0  0  0  0
    0.5700   -0.8484    1.0719 H   0  0  0  0  0  0  0  0  0  0  0  0
    0.4432   -0.4114   -1.0229 C   0  0  1  0  0  0  0  0  0  0  0  0
    1.4722   -0.0414   -0.9589 H   0  0  0  0  0  0  0  0  0  0  0  0
    0.5575   -1.8774   -1.4874 C   0  0  0  0  0  0  0  0  0  0  0  0
   -0.4290   -2.3213   -1.6499 H   0  0  0  0  0  0  0  0  0  0  0  0
    1.1296   -1.9456   -2.4171 H   0  0  0  0  0  0  0  0  0  0  0  0
    1.0814   -2.4731   -0.7334 H   0  0  0  0  0  0  0  0  0  0  0  0
   -0.2894    0.5353   -2.0212 C   0  0  0  0  0  0  0  0  0  0  0  0
   -1.2372    0.8656   -1.5876 H   0  0  0  0  0  0  0  0  0  0  0  0
    0.3250    1.4286   -2.1734 H   0  0  0  0  0  0  0  0  0  0  0  0
   -0.6398   -0.0648   -3.3877 C   0  0  0  0  0  0  0  0  0  0  0  0
   -1.3180   -0.9164   -3.2802 H   0  0  0  0  0  0  0  0  0  0  0  0
   -1.1385    0.6889   -4.0045 H   0  0  0  0  0  0  0  0  0  0  0  0
    0.2643   -0.3887   -3.9117 H   0  0  0  0  0  0  0  0  0  0  0  0
   -0.2203    1.1119    0.9503 C   0  0  0  0  0  0  0  0  0  0  0  0
   -1.2367    1.7799    0.7931 O   0  0  0  0  0  0  0  0  0  0  0  0
    0.7808    1.6061    1.7665 N   0  0  0  0  0  0  0  0  0  0  0  0
    1.5740    1.0010    1.9583 H   0  0  0  0  0  0  0  0  0  0  0  0
    0.7201    2.9143    2.4073 C   0  0  0  0  0  0  0  0  0  0  0  0
   -0.1367    2.9690    3.0871 H   0  0  0  0  0  0  0  0  0  0  0  0
    1.6319    3.0958    2.9845 H   0  0  0  0  0  0  0  0  0  0  0  0
    0.6248    3.7049    1.6555 H   0  0  0  0  0  0  0  0  0  0  0  0
  1  2  1  0  0  0  0
  2  3  1  0  0  0  0
  2  4  1  0  0  0  0
  2  5  1  0  0  0  0
  5  6  2  0  0  0  0
  5  7  1  0  0  0  0
  7  8  1  0  0  0  0
  7  9  1  0  0  0  0
  9 10  1  0  0  0  0
  9 11  1  0  0  0  0
  9 24  1  0  0  0  0
 11 12  1  0  0  0  0
 11 13  1  0  0  0  0
 11 17  1  0  0  0  0
 13 14  1  0  0  0  0
 13 15  1  0  0  0  0
 13 16  1  0  0  0  0
 17 18  1  0  0  0  0
 17 19  1  0  0  0  0
 17 20  1  0  0  0  0
 20 21  1  0  0  0  0
 20 22  1  0  0  0  0
 20 23  1  0  0  0  0
 24 25  2  0  0  0  0
 24 26  1  0  0  0  0
 26 27  1  0  0  0  0
 26 28  1  0  0  0  0
 28 29  1  0  0  0  0
 28 30  1  0  0  0  0
 28 31  1  0  0  0  0
M  END
$$$$

  -OEChem-03222214053D

 31 30  0     1  0  0  0  0  0999 V2000
   -3.0031   -3.8640    1.5508 H   0  0  0  0  0  0  0  0  0  0  0  0
   -3.0362   -2.8470    1.1501 C   0  0  0  0  0  0  0  0  0  0  0  0
   -3.6150   -2.2186    1.8314 H   0  0  0  0  0  0  0  0  0  0  0  0
   -3.5299   -2.8679    0.1756 H   0  0  0  0  0  0  0  0  0  0  0  0
   -1.6307   -2.2949    1.0058 C   0  0  0  0  0  0  0  0  0  0  0  0
   -0.6719   -2.9827    1.3204 O   0  0  0  0  0  0  0  0  0  0  0  0
   -1.4496   -1.0074    0.5442 N   0  0  0  0  0  0  0  0  0  0  0  0
   -2.2850   -0.4448    0.3934 H   0  0  0  0  0  0  0  0  0  0  0  0
   -0.1566   -0.3149    0.4127 C   0  0  1  0  0  0  0  0  0  0  0  0
    0.5577   -0.8291    1.0637 H   0  0  0  0  0  0  0  0  0  0  0  0
    0.4213   -0.4049   -1.0294 C   0  0  1  0  0  0  0  0  0  0  0  0
    1.4415   -0.0127   -0.9572 H   0  0  0  0  0  0  0  0  0  0  0  0
    0.5810   -1.8699   -1.4805 C   0  0  0  0  0  0  0  0  0  0  0  0
   -0.3892   -2.3554   -1.6191 H   0  0  0  0  0  0  0  0  0  0  0  0
    1.1369   -1.9223   -2.4212 H   0  0  0  0  0  0  0  0  0  0  0  0
    1.1414   -2.4364   -0.7304 H   0  0  0  0  0  0  0  0  0  0  0  0
   -0.3027    0.5220   -2.0539 C   0  0  0  0  0  0  0  0  0  0  0  0
   -1.0876    1.0991   -1.5612 H   0  0  0  0  0  0  0  0  0  0  0  0
    0.4251    1.2414   -2.4433 H   0  0  0  0  0  0  0  0  0  0  0  0
   -0.9608   -0.1834   -3.2455 C   0  0  0  0  0  0  0  0  0  0  0  0
   -1.7103   -0.9028   -2.9023 H   0  0  0  0  0  0  0  0  0  0  0  0
   -1.4618    0.5541   -3.8798 H   0  0  0  0  0  0  0  0  0  0  0  0
   -0.2162   -0.7030   -3.8555 H   0  0  0  0  0  0  0  0  0  0  0  0
   -0.2239    1.1296    0.9581 C   0  0  0  0  0  0  0  0  0  0  0  0
   -1.2497    1.7917    0.8422 O   0  0  0  0  0  0  0  0  0  0  0  0
    0.7898    1.6121    1.7658 N   0  0  0  0  0  0  0  0  0  0  0  0
    1.5872    1.0051    1.9326 H   0  0  0  0  0  0  0  0  0  0  0  0
    0.7287    2.8993    2.4475 C   0  0  0  0  0  0  0  0  0  0  0  0
   -0.1072    2.9195    3.1545 H   0  0  0  0  0  0  0  0  0  0  0  0
    1.6550    3.0773    3.0020 H   0  0  0  0  0  0  0  0  0  0  0  0
    0.5986    3.7108    1.7239 H   0  0  0  0  0  0  0  0  0  0  0  0
  1  2  1  0  0  0  0
  2  3  1  0  0  0  0
  2  4  1  0  0  0  0
  2  5  1  0  0  0  0
  5  6  2  0  0  0  0
  5  7  1  0  0  0  0
  7  8  1  0  0  0  0
  7  9  1  0  0  0  0
  9 10  1  0  0  0  0
  9 11  1  0  0  0  0
  9 24  1  0  0  0  0
 11 12  1  0  0  0  0
 11 13  1  0  0  0  0
 11 17  1  0  0  0  0
 13 14  1  0  0  0  0
 13 15  1  0  0  0  0
 13 16  1  0  0  0  0
 17 18  1  0  0  0  0
 17 19  1  0  0  0  0
 17 20  1  0  0  0  0
 20 21  1  0  0  0  0
 20 22  1  0  0  0  0
 20 23  1  0  0  0  0
 24 25  2  0  0  0  0
 24 26  1  0  0  0  0
 26 27  1  0  0  0  0
 26 28  1  0  0  0  0
 28 29  1  0  0  0  0
 28 30  1  0  0  0  0
 28 31  1  0  0  0  0
M  END
$$$$

  -OEChem-03222214053D

 31 30  0     1  0  0  0  0  0999 V2000
   -3.0022   -3.8549    1.5578 H   0  0  0  0  0  0  0  0  0  0  0  0
   -3.0356   -2.8371    1.1591 C   0  0  0  0  0  0  0  0  0  0  0  0
   -3.6097   -2.2093    1.8449 H   0  0  0  0  0  0  0  0  0  0  0  0
   -3.5348   -2.8556    0.1874 H   0  0  0  0  0  0  0  0  0  0  0  0
   -1.6296   -2.2873    1.0081 C   0  0  0  0  0  0  0  0  0  0  0  0
   -0.6700   -2.9785    1.3126 O   0  0  0  0  0  0  0  0  0  0  0  0
   -1.4479   -0.9988    0.5498 N   0  0  0  0  0  0  0  0  0  0  0  0
   -2.2821   -0.4323    0.4070 H   0  0  0  0  0  0  0  0  0  0  0  0
   -0.1539   -0.3095    0.4149 C   0  0  1  0  0  0  0  0  0  0  0  0
    0.5635   -0.8258    1.0610 H   0  0  0  0  0  0  0  0  0  0  0  0
    0.4123   -0.4043   -1.0317 C   0  0  1  0  0  0  0  0  0  0  0  0
    1.4299   -0.0054   -0.9572 H   0  0  0  0  0  0  0  0  0  0  0  0
    0.5802   -1.8640   -1.4925 C   0  0  0  0  0  0  0  0  0  0  0  0
   -0.3855   -2.3657   -1.6012 H   0  0  0  0  0  0  0  0  0  0  0  0
    1.1023   -1.9002   -2.4534 H   0  0  0  0  0  0  0  0  0  0  0  0
    1.1747   -2.4235   -0.7635 H   0  0  0  0  0  0  0  0  0  0  0  0
   -0.3016    0.5154   -2.0660 C   0  0  0  0  0  0  0  0  0  0  0  0
   -0.8620    1.3096   -1.5703 H   0  0  0  0  0  0  0  0  0  0  0  0
    0.4675    1.0065   -2.6708 H   0  0  0  0  0  0  0  0  0  0  0  0
   -1.2519   -0.2054   -3.0289 C   0  0  0  0  0  0  0  0  0  0  0  0
   -2.0171   -0.7535   -2.4710 H   0  0  0  0  0  0  0  0  0  0  0  0
   -1.7522    0.5253   -3.6716 H   0  0  0  0  0  0  0  0  0  0  0  0
   -0.7091   -0.9043   -3.6720 H   0  0  0  0  0  0  0  0  0  0  0  0
   -0.2229    1.1320    0.9671 C   0  0  0  0  0  0  0  0  0  0  0  0
   -1.2529    1.7891    0.8588 O   0  0  0  0  0  0  0  0  0  0  0  0
    0.7909    1.6147    1.7747 N   0  0  0  0  0  0  0  0  0  0  0  0
    1.5898    1.0090    1.9397 H   0  0  0  0  0  0  0  0  0  0  0  0
    0.7234    2.8965    2.4662 C   0  0  0  0  0  0  0  0  0  0  0  0
   -0.1165    2.9089    3.1688 H   0  0  0  0  0  0  0  0  0  0  0  0
    1.6461    3.0729    3.0270 H   0  0  0  0  0  0  0  0  0  0  0  0
    0.5947    3.7130    1.7478 H   0  0  0  0  0  0  0  0  0  0  0  0
  1  2  1  0  0  0  0
  2  3  1  0  0  0  0
  2  4  1  0  0  0  0
  2  5  1  0  0  0  0
  5  6  2  0  0  0  0
  5  7  1  0  0  0  0
  7  8  1  0  0  0  0
  7  9  1  0  0  0  0
  9 10  1  0  0  0  0
  9 11  1  0  0  0  0
  9 24  1  0  0  0  0
 11 12  1  0  0  0  0
 11 13  1  0  0  0  0
 11 17  1  0  0  0  0
 13 14  1  0  0  0  0
 13 15  1  0  0  0  0
 13 16  1  0  0  0  0
 17 18  1  0  0  0  0
 17 19  1  0  0  0  0
 17 20  1  0  0  0  0
 20 21  1  0  0  0  0
 20 22  1  0  0  0  0
 20 23  1  0  0  0  0
 24 25  2  0  0  0  0
 24 26  1  0  0  0  0
 26 27  1  0  0  0  0
 26 28  1  0  0  0  0
 28 29  1  0  0  0  0
 28 30  1  0  0  0  0
 28 31  1  0  0  0  0
M  END
$$$$

  -OEChem-03222214053D

 31 30  0     1  0  0  0  0  0999 V2000
   -2.9929   -3.8607    1.5829 H   0  0  0  0  0  0  0  0  0  0  0  0
   -3.0273   -2.8441    1.1814 C   0  0  0  0  0  0  0  0  0  0  0  0
   -3.6010   -2.2144    1.8658 H   0  0  0  0  0  0  0  0  0  0  0  0
   -3.5276   -2.8651    0.2103 H   0  0  0  0  0  0  0  0  0  0  0  0
   -1.6217   -2.2950    1.0266 C   0  0  0  0  0  0  0  0  0  0  0  0
   -0.6612   -2.9857    1.3294 O   0  0  0  0  0  0  0  0  0  0  0  0
   -1.4404   -1.0089    0.5623 N   0  0  0  0  0  0  0  0  0  0  0  0
   -2.2737   -0.4410    0.4187 H   0  0  0  0  0  0  0  0  0  0  0  0
   -0.1451   -0.3236    0.4239 C   0  0  1  0  0  0  0  0  0  0  0  0
    0.5749   -0.8388    1.0678 H   0  0  0  0  0  0  0  0  0  0  0  0
    0.4182   -0.4073   -1.0250 C   0  0  1  0  0  0  0  0  0  0  0  0
    1.4404   -0.0206   -0.9503 H   0  0  0  0  0  0  0  0  0  0  0  0
    0.5562   -1.8602   -1.5135 C   0  0  0  0  0  0  0  0  0  0  0  0
   -0.4172   -2.3520   -1.5954 H   0  0  0  0  0  0  0  0  0  0  0  0
    1.0400   -1.8845   -2.4948 H   0  0  0  0  0  0  0  0  0  0  0  0
    1.1709   -2.4366   -0.8150 H   0  0  0  0  0  0  0  0  0  0  0  0
   -0.2848    0.5177   -2.0566 C   0  0  0  0  0  0  0  0  0  0  0  0
   -0.6017    1.4550   -1.5952 H   0  0  0  0  0  0  0  0  0  0  0  0
    0.4497    0.7845   -2.8234 H   0  0  0  0  0  0  0  0  0  0  0  0
   -1.4836   -0.1128   -2.7742 C   0  0  0  0  0  0  0  0  0  0  0  0
   -2.2280   -0.4576   -2.0508 H   0  0  0  0  0  0  0  0  0  0  0  0
   -1.9554    0.6290   -3.4257 H   0  0  0  0  0  0  0  0  0  0  0  0
   -1.1729   -0.9584   -3.3946 H   0  0  0  0  0  0  0  0  0  0  0  0
   -0.2254    1.1175    0.9731 C   0  0  0  0  0  0  0  0  0  0  0  0
   -1.2550    1.7720    0.8448 O   0  0  0  0  0  0  0  0  0  0  0  0
    0.7811    1.6107    1.7831 N   0  0  0  0  0  0  0  0  0  0  0  0
    1.5838    1.0120    1.9541 H   0  0  0  0  0  0  0  0  0  0  0  0
    0.7073    2.9022    2.4557 C   0  0  0  0  0  0  0  0  0  0  0  0
   -0.1469    2.9294    3.1404 H   0  0  0  0  0  0  0  0  0  0  0  0
    1.6193    3.0807    3.0331 H   0  0  0  0  0  0  0  0  0  0  0  0
    0.5982    3.7095    1.7239 H   0  0  0  0  0  0  0  0  0  0  0  0
  1  2  1  0  0  0  0
  2  3  1  0  0  0  0
  2  4  1  0  0  0  0
  2  5  1  0  0  0  0
  5  6  2  0  0  0  0
  5  7  1  0  0  0  0
  7  8  1  0  0  0  0
  7  9  1  0  0  0  0
  9 10  1  0  0  0  0
  9 11  1  0  0  0  0
  9 24  1  0  0  0  0
 11 12  1  0  0  0  0
 11 13  1  0  0  0  0
 11 17  1  0  0  0  0
 13 14  1  0  0  0  0
 13 15  1  0  0  0  0
 13 16  1  0  0  0  0
 17 18  1  0  0  0  0
 17 19  1  0  0  0  0
 17 20  1  0  0  0  0
 20 21  1  0  0  0  0
 20 22  1  0  0  0  0
 20 23  1  0  0  0  0
 24 25  2  0  0  0  0
 24 26  1  0  0  0  0
 26 27  1  0  0  0  0
 26 28  1  0  0  0  0
 28 29  1  0  0  0  0
 28 30  1  0  0  0  0
 28 31  1  0  0  0  0
M  END
$$$$

  -OEChem-03222214053D

 31 30  0     1  0  0  0  0  0999 V2000
   -2.9759   -3.8772    1.6258 H   0  0  0  0  0  0  0  0  0  0  0  0
   -3.0129   -2.8627    1.2191 C   0  0  0  0  0  0  0  0  0  0  0  0
   -3.5781   -2.2281    1.9060 H   0  0  0  0  0  0  0  0  0  0  0  0
   -3.5228   -2.8880    0.2531 H   0  0  0  0  0  0  0  0  0  0  0  0
   -1.6083   -2.3167    1.0473 C   0  0  0  0  0  0  0  0  0  0  0  0
   -0.6457   -3.0064    1.3456 O   0  0  0  0  0  0  0  0  0  0  0  0
   -1.4299   -1.0334    0.5746 N   0  0  0  0  0  0  0  0  0  0  0  0
   -2.2634   -0.4644    0.4374 H   0  0  0  0  0  0  0  0  0  0  0  0
   -0.1349   -0.3483    0.4331 C   0  0  1  0  0  0  0  0  0  0  0  0
    0.5898   -0.8606    1.0740 H   0  0  0  0  0  0  0  0  0  0  0  0
    0.4281   -0.4075   -1.0176 C   0  0  1  0  0  0  0  0  0  0  0  0
    1.4573   -0.0399   -0.9446 H   0  0  0  0  0  0  0  0  0  0  0  0
    0.5282   -1.8521   -1.5377 C   0  0  0  0  0  0  0  0  0  0  0  0
   -0.4558   -2.3227   -1.6134 H   0  0  0  0  0  0  0  0  0  0  0  0
    0.9943   -1.8669   -2.5277 H   0  0  0  0  0  0  0  0  0  0  0  0
    1.1425   -2.4546   -0.8613 H   0  0  0  0  0  0  0  0  0  0  0  0
   -0.2658    0.5299   -2.0415 C   0  0  0  0  0  0  0  0  0  0  0  0
   -0.3431    1.5432   -1.6382 H   0  0  0  0  0  0  0  0  0  0  0  0
    0.3775    0.5972   -2.9249 H   0  0  0  0  0  0  0  0  0  0  0  0
   -1.6518    0.0749   -2.5137 C   0  0  0  0  0  0  0  0  0  0  0  0
   -2.3495    0.0163   -1.6748 H   0  0  0  0  0  0  0  0  0  0  0  0
   -2.0487    0.7969   -3.2336 H   0  0  0  0  0  0  0  0  0  0  0  0
   -1.6034   -0.9007   -3.0051 H   0  0  0  0  0  0  0  0  0  0  0  0
   -0.2300    1.0936    0.9757 C   0  0  0  0  0  0  0  0  0  0  0  0
   -1.2555    1.7475    0.8152 O   0  0  0  0  0  0  0  0  0  0  0  0
    0.7674    1.6006    1.7881 N   0  0  0  0  0  0  0  0  0  0  0  0
    1.5693    1.0059    1.9763 H   0  0  0  0  0  0  0  0  0  0  0  0
    0.6855    2.9027    2.4385 C   0  0  0  0  0  0  0  0  0  0  0  0
   -0.1724    2.9384    3.1181 H   0  0  0  0  0  0  0  0  0  0  0  0
    1.5939    3.0944    3.0175 H   0  0  0  0  0  0  0  0  0  0  0  0
    0.5771    3.6967    1.6923 H   0  0  0  0  0  0  0  0  0  0  0  0
  1  2  1  0  0  0  0
  2  3  1  0  0  0  0
  2  4  1  0  0  0  0
  2  5  1  0  0  0  0
  5  6  2  0  0  0  0
  5  7  1  0  0  0  0
  7  8  1  0  0  0  0
  7  9  1  0  0  0  0
  9 10  1  0  0  0  0
  9 11  1  0  0  0  0
  9 24  1  0  0  0  0
 11 12  1  0  0  0  0
 11 13  1  0  0  0  0
 11 17  1  0  0  0  0
 13 14  1  0  0  0  0
 13 15  1  0  0  0  0
 13 16  1  0  0  0  0
 17 18  1  0  0  0  0
 17 19  1  0  0  0  0
 17 20  1  0  0  0  0
 20 21  1  0  0  0  0
 20 22  1  0  0  0  0
 20 23  1  0  0  0  0
 24 25  2  0  0  0  0
 24 26  1  0  0  0  0
 26 27  1  0  0  0  0
 26 28  1  0  0  0  0
 28 29  1  0  0  0  0
 28 30  1  0  0  0  0
 28 31  1  0  0  0  0
M  END
$$$$

  -OEChem-03222214053D

 31 30  0     1  0  0  0  0  0999 V2000
   -2.9523   -3.9097    1.6232 H   0  0  0  0  0  0  0  0  0  0  0  0
   -2.9981   -2.8937    1.2211 C   0  0  0  0  0  0  0  0  0  0  0  0
   -3.5759   -2.2693    1.9069 H   0  0  0  0  0  0  0  0  0  0  0  0
   -3.5014   -2.9206    0.2515 H   0  0  0  0  0  0  0  0  0  0  0  0
   -1.5985   -2.3307    1.0617 C   0  0  0  0  0  0  0  0  0  0  0  0
   -0.6305   -3.0101    1.3660 O   0  0  0  0  0  0  0  0  0  0  0  0
   -1.4303   -1.0457    0.5894 N   0  0  0  0  0  0  0  0  0  0  0  0
   -2.2689   -0.4880    0.4383 H   0  0  0  0  0  0  0  0  0  0  0  0
   -0.1400   -0.3508    0.4446 C   0  0  1  0  0  0  0  0  0  0  0  0
    0.5887   -0.8617    1.0823 H   0  0  0  0  0  0  0  0  0  0  0  0
    0.4265   -0.3946   -1.0049 C   0  0  1  0  0  0  0  0  0  0  0  0
    1.4606   -0.0409   -0.9344 H   0  0  0  0  0  0  0  0  0  0  0  0
    0.4995   -1.8349   -1.5404 C   0  0  0  0  0  0  0  0  0  0  0  0
   -0.4959   -2.2737   -1.6496 H   0  0  0  0  0  0  0  0  0  0  0  0
    0.9915   -1.8527   -2.5177 H   0  0  0  0  0  0  0  0  0  0  0  0
    1.0781   -2.4635   -0.8562 H   0  0  0  0  0  0  0  0  0  0  0  0
   -0.2652    0.5397   -2.0316 C   0  0  0  0  0  0  0  0  0  0  0  0
   -0.1311    1.5808   -1.7209 H   0  0  0  0  0  0  0  0  0  0  0  0
    0.2454    0.4306   -2.9940 H   0  0  0  0  0  0  0  0  0  0  0  0
   -1.7622    0.2912   -2.2548 C   0  0  0  0  0  0  0  0  0  0  0  0
   -2.3375    0.5183   -1.3541 H   0  0  0  0  0  0  0  0  0  0  0  0
   -2.1260    0.9407   -3.0566 H   0  0  0  0  0  0  0  0  0  0  0  0
   -1.9510   -0.7459   -2.5445 H   0  0  0  0  0  0  0  0  0  0  0  0
   -0.2303    1.0924    0.9851 C   0  0  0  0  0  0  0  0  0  0  0  0
   -1.2493    1.7544    0.8206 O   0  0  0  0  0  0  0  0  0  0  0  0
    0.7730    1.5987    1.7909 N   0  0  0  0  0  0  0  0  0  0  0  0
    1.5707    0.9994    1.9824 H   0  0  0  0  0  0  0  0  0  0  0  0
    0.7005    2.9051    2.4341 C   0  0  0  0  0  0  0  0  0  0  0  0
   -0.1576    2.9510    3.1130 H   0  0  0  0  0  0  0  0  0  0  0  0
    1.6099    3.0925    3.0129 H   0  0  0  0  0  0  0  0  0  0  0  0
    0.5991    3.6962    1.6838 H   0  0  0  0  0  0  0  0  0  0  0  0
  1  2  1  0  0  0  0
  2  3  1  0  0  0  0
  2  4  1  0  0  0  0
  2  5  1  0  0  0  0
  5  6  2  0  0  0  0
  5  7  1  0  0  0  0
  7  8  1  0  0  0  0
  7  9  1  0  0  0  0
  9 10  1  0  0  0  0
  9 11  1  0  0  0  0
  9 24  1  0  0  0  0
 11 12  1  0  0  0  0
 11 13  1  0  0  0  0
 11 17  1  0  0  0  0
 13 14  1  0  0  0  0
 13 15  1  0  0  0  0
 13 16  1  0  0  0  0
 17 18  1  0  0  0  0
 17 19  1  0  0  0  0
 17 20  1  0  0  0  0
 20 21  1  0  0  0  0
 20 22  1  0  0  0  0
 20 23  1  0  0  0  0
 24 25  2  0  0  0  0
 24 26  1  0  0  0  0
 26 27  1  0  0  0  0
 26 28  1  0  0  0  0
 28 29  1  0  0  0  0
 28 30  1  0  0  0  0
 28 31  1  0  0  0  0
M  END
$$$$

  -OEChem-03222214053D

 31 30  0     1  0  0  0  0  0999 V2000
   -2.9224   -3.9378    1.6057 H   0  0  0  0  0  0  0  0  0  0  0  0
   -2.9858   -2.9166    1.2195 C   0  0  0  0  0  0  0  0  0  0  0  0
   -3.5712   -2.3122    1.9166 H   0  0  0  0  0  0  0  0  0  0  0  0
   -3.4915   -2.9368    0.2511 H   0  0  0  0  0  0  0  0  0  0  0  0
   -1.5962   -2.3280    1.0648 C   0  0  0  0  0  0  0  0  0  0  0  0
   -0.6167   -2.9964    1.3559 O   0  0  0  0  0  0  0  0  0  0  0  0
   -1.4535   -1.0319    0.6143 N   0  0  0  0  0  0  0  0  0  0  0  0
   -2.3046   -0.4906    0.4754 H   0  0  0  0  0  0  0  0  0  0  0  0
   -0.1793   -0.3103    0.4518 C   0  0  1  0  0  0  0  0  0  0  0  0
    0.5524   -0.8210    1.0862 H   0  0  0  0  0  0  0  0  0  0  0  0
    0.4076   -0.3589   -0.9906 C   0  0  1  0  0  0  0  0  0  0  0  0
    1.4403   -0.0011   -0.9157 H   0  0  0  0  0  0  0  0  0  0  0  0
    0.4834   -1.8059   -1.5070 C   0  0  0  0  0  0  0  0  0  0  0  0
   -0.5156   -2.2206   -1.6701 H   0  0  0  0  0  0  0  0  0  0  0  0
    1.0292   -1.8446   -2.4547 H   0  0  0  0  0  0  0  0  0  0  0  0
    1.0106   -2.4407   -0.7881 H   0  0  0  0  0  0  0  0  0  0  0  0
   -0.2793    0.5299   -2.0613 C   0  0  0  0  0  0  0  0  0  0  0  0
    0.0247    1.5678   -1.8898 H   0  0  0  0  0  0  0  0  0  0  0  0
    0.0922    0.2500   -3.0525 H   0  0  0  0  0  0  0  0  0  0  0  0
   -1.8134    0.4982   -2.0850 C   0  0  0  0  0  0  0  0  0  0  0  0
   -2.2469    0.9101   -1.1736 H   0  0  0  0  0  0  0  0  0  0  0  0
   -2.1788    1.0949   -2.9261 H   0  0  0  0  0  0  0  0  0  0  0  0
   -2.1724   -0.5271   -2.2115 H   0  0  0  0  0  0  0  0  0  0  0  0
   -0.2383    1.1289    1.0107 C   0  0  0  0  0  0  0  0  0  0  0  0
   -1.2630    1.7956    0.9315 O   0  0  0  0  0  0  0  0  0  0  0  0
    0.8017    1.6098    1.7858 N   0  0  0  0  0  0  0  0  0  0  0  0
    1.6025    1.0010    1.9270 H   0  0  0  0  0  0  0  0  0  0  0  0
    0.7625    2.8939    2.4757 C   0  0  0  0  0  0  0  0  0  0  0  0
   -0.0596    2.9158    3.1989 H   0  0  0  0  0  0  0  0  0  0  0  0
    1.7004    3.0632    3.0132 H   0  0  0  0  0  0  0  0  0  0  0  0
    0.6235    3.7100    1.7588 H   0  0  0  0  0  0  0  0  0  0  0  0
  1  2  1  0  0  0  0
  2  3  1  0  0  0  0
  2  4  1  0  0  0  0
  2  5  1  0  0  0  0
  5  6  2  0  0  0  0
  5  7  1  0  0  0  0
  7  8  1  0  0  0  0
  7  9  1  0  0  0  0
  9 10  1  0  0  0  0
  9 11  1  0  0  0  0
  9 24  1  0  0  0  0
 11 12  1  0  0  0  0
 11 13  1  0  0  0  0
 11 17  1  0  0  0  0
 13 14  1  0  0  0  0
 13 15  1  0  0  0  0
 13 16  1  0  0  0  0
 17 18  1  0  0  0  0
 17 19  1  0  0  0  0
 17 20  1  0  0  0  0
 20 21  1  0  0  0  0
 20 22  1  0  0  0  0
 20 23  1  0  0  0  0
 24 25  2  0  0  0  0
 24 26  1  0  0  0  0
 26 27  1  0  0  0  0
 26 28  1  0  0  0  0
 28 29  1  0  0  0  0
 28 30  1  0  0  0  0
 28 31  1  0  0  0  0
M  END
$$$$

  -OEChem-03222214053D

 31 30  0     1  0  0  0  0  0999 V2000
   -2.8928   -3.9411    1.6174 H   0  0  0  0  0  0  0  0  0  0  0  0
   -2.9726   -2.9137    1.2513 C   0  0  0  0  0  0  0  0  0  0  0  0
   -3.5396   -2.3246    1.9762 H   0  0  0  0  0  0  0  0  0  0  0  0
   -3.5071   -2.9200    0.2984 H   0  0  0  0  0  0  0  0  0  0  0  0
   -1.5911   -2.3152    1.0653 C   0  0  0  0  0  0  0  0  0  0  0  0
   -0.6018   -2.9829    1.3228 O   0  0  0  0  0  0  0  0  0  0  0  0
   -1.4681   -1.0089    0.6372 N   0  0  0  0  0  0  0  0  0  0  0  0
   -2.3263   -0.4687    0.5456 H   0  0  0  0  0  0  0  0  0  0  0  0
   -0.2061   -0.2718    0.4464 C   0  0  1  0  0  0  0  0  0  0  0  0
    0.5315   -0.7837    1.0730 H   0  0  0  0  0  0  0  0  0  0  0  0
    0.3880   -0.3316   -0.9960 C   0  0  1  0  0  0  0  0  0  0  0  0
    1.4164    0.0372   -0.9169 H   0  0  0  0  0  0  0  0  0  0  0  0
    0.4889   -1.7889   -1.4785 C   0  0  0  0  0  0  0  0  0  0  0  0
   -0.5046   -2.2111   -1.6570 H   0  0  0  0  0  0  0  0  0  0  0  0
    1.0588   -1.8452   -2.4110 H   0  0  0  0  0  0  0  0  0  0  0  0
    1.0042   -2.4049   -0.7355 H   0  0  0  0  0  0  0  0  0  0  0  0
   -0.2842    0.5132   -2.1162 C   0  0  0  0  0  0  0  0  0  0  0  0
    0.2039    1.4931   -2.1347 H   0  0  0  0  0  0  0  0  0  0  0  0
   -0.0896    0.0486   -3.0883 H   0  0  0  0  0  0  0  0  0  0  0  0
   -1.7905    0.7669   -1.9981 C   0  0  0  0  0  0  0  0  0  0  0  0
   -2.0296    1.4500   -1.1854 H   0  0  0  0  0  0  0  0  0  0  0  0
   -2.1561    1.2218   -2.9236 H   0  0  0  0  0  0  0  0  0  0  0  0
   -2.3270   -0.1740   -1.8467 H   0  0  0  0  0  0  0  0  0  0  0  0
   -0.2473    1.1573    1.0337 C   0  0  0  0  0  0  0  0  0  0  0  0
   -1.2975    1.7855    1.0921 O   0  0  0  0  0  0  0  0  0  0  0  0
    0.8247    1.6194    1.7764 N   0  0  0  0  0  0  0  0  0  0  0  0
    1.6424    1.0202    1.8418 H   0  0  0  0  0  0  0  0  0  0  0  0
    0.7911    2.8500    2.5583 C   0  0  0  0  0  0  0  0  0  0  0  0
    0.0278    2.7863    3.3410 H   0  0  0  0  0  0  0  0  0  0  0  0
    1.7612    3.0222    3.0341 H   0  0  0  0  0  0  0  0  0  0  0  0
    0.5655    3.7071    1.9151 H   0  0  0  0  0  0  0  0  0  0  0  0
  1  2  1  0  0  0  0
  2  3  1  0  0  0  0
  2  4  1  0  0  0  0
  2  5  1  0  0  0  0
  5  6  2  0  0  0  0
  5  7  1  0  0  0  0
  7  8  1  0  0  0  0
  7  9  1  0  0  0  0
  9 10  1  0  0  0  0
  9 11  1  0  0  0  0
  9 24  1  0  0  0  0
 11 12  1  0  0  0  0
 11 13  1  0  0  0  0
 11 17  1  0  0  0  0
 13 14  1  0  0  0  0
 13 15  1  0  0  0  0
 13 16  1  0  0  0  0
 17 18  1  0  0  0  0
 17 19  1  0  0  0  0
 17 20  1  0  0  0  0
 20 21  1  0  0  0  0
 20 22  1  0  0  0  0
 20 23  1  0  0  0  0
 24 25  2  0  0  0  0
 24 26  1  0  0  0  0
 26 27  1  0  0  0  0
 26 28  1  0  0  0  0
 28 29  1  0  0  0  0
 28 30  1  0  0  0  0
 28 31  1  0  0  0  0
M  END
$$$$

  -OEChem-03222214053D

 31 30  0     1  0  0  0  0  0999 V2000
   -2.8624   -3.9231    1.6937 H   0  0  0  0  0  0  0  0  0  0  0  0
   -2.9469   -2.8968    1.3259 C   0  0  0  0  0  0  0  0  0  0  0  0
   -3.4873   -2.3009    2.0655 H   0  0  0  0  0  0  0  0  0  0  0  0
   -3.5106   -2.9031    0.3900 H   0  0  0  0  0  0  0  0  0  0  0  0
   -1.5682   -2.3076    1.0952 C   0  0  0  0  0  0  0  0  0  0  0  0
   -0.5751   -2.9755    1.3371 O   0  0  0  0  0  0  0  0  0  0  0  0
   -1.4533   -1.0052    0.6541 N   0  0  0  0  0  0  0  0  0  0  0  0
   -2.3117   -0.4600    0.5965 H   0  0  0  0  0  0  0  0  0  0  0  0
   -0.1965   -0.2636    0.4485 C   0  0  1  0  0  0  0  0  0  0  0  0
    0.5483   -0.7615    1.0781 H   0  0  0  0  0  0  0  0  0  0  0  0
    0.3862   -0.3444   -0.9990 C   0  0  1  0  0  0  0  0  0  0  0  0
    1.4072    0.0447   -0.9195 H   0  0  0  0  0  0  0  0  0  0  0  0
    0.5273   -1.8098   -1.4463 C   0  0  0  0  0  0  0  0  0  0  0  0
   -0.4547   -2.2644   -1.6096 H   0  0  0  0  0  0  0  0  0  0  0  0
    1.0951   -1.8714   -2.3799 H   0  0  0  0  0  0  0  0  0  0  0  0
    1.0634   -2.3927   -0.6911 H   0  0  0  0  0  0  0  0  0  0  0  0
   -0.2773    0.4705   -2.1525 C   0  0  0  0  0  0  0  0  0  0  0  0
    0.3832    1.3088   -2.3978 H   0  0  0  0  0  0  0  0  0  0  0  0
   -0.3268   -0.1566   -3.0488 H   0  0  0  0  0  0  0  0  0  0  0  0
   -1.6763    1.0486   -1.9297 C   0  0  0  0  0  0  0  0  0  0  0  0
   -2.1041    1.3468   -2.8916 H   0  0  0  0  0  0  0  0  0  0  0  0
   -1.6378    1.9411   -1.3040 H   0  0  0  0  0  0  0  0  0  0  0  0
   -2.3436    0.3096   -1.4794 H   0  0  0  0  0  0  0  0  0  0  0  0
   -0.2637    1.1664    1.0295 C   0  0  0  0  0  0  0  0  0  0  0  0
   -1.3374    1.7516    1.1189 O   0  0  0  0  0  0  0  0  0  0  0  0
    0.7997    1.6532    1.7689 N   0  0  0  0  0  0  0  0  0  0  0  0
    1.6381    1.0817    1.8165 H   0  0  0  0  0  0  0  0  0  0  0  0
    0.7357    2.8742    2.5637 C   0  0  0  0  0  0  0  0  0  0  0  0
    0.0020    2.7687    3.3698 H   0  0  0  0  0  0  0  0  0  0  0  0
    1.7123    3.0865    3.0095 H   0  0  0  0  0  0  0  0  0  0  0  0
    0.4511    3.7260    1.9369 H   0  0  0  0  0  0  0  0  0  0  0  0
  1  2  1  0  0  0  0
  2  3  1  0  0  0  0
  2  4  1  0  0  0  0
  2  5  1  0  0  0  0
  5  6  2  0  0  0  0
  5  7  1  0  0  0  0
  7  8  1  0  0  0  0
  7  9  1  0  0  0  0
  9 10  1  0  0  0  0
  9 11  1  0  0  0  0
  9 24  1  0  0  0  0
 11 12  1  0  0  0  0
 11 13  1  0  0  0  0
 11 17  1  0  0  0  0
 13 14  1  0  0  0  0
 13 15  1  0  0  0  0
 13 16  1  0  0  0  0
 17 18  1  0  0  0  0
 17 19  1  0  0  0  0
 17 20  1  0  0  0  0
 20 21  1  0  0  0  0
 20 22  1  0  0  0  0
 20 23  1  0  0  0  0
 24 25  2  0  0  0  0
 24 26  1  0  0  0  0
 26 27  1  0  0  0  0
 26 28  1  0  0  0  0
 28 29  1  0  0  0  0
 28 30  1  0  0  0  0
 28 31  1  0  0  0  0
M  END
$$$$

  -OEChem-03222214053D

 31 30  0     1  0  0  0  0  0999 V2000
   -2.9638   -3.8952    1.5773 H   0  0  0  0  0  0  0  0  0  0  0  0
   -3.0226   -2.8655    1.2139 C   0  0  0  0  0  0  0  0  0  0  0  0
   -3.5819   -2.2682    1.9381 H   0  0  0  0  0  0  0  0  0  0  0  0
   -3.5527   -2.8584    0.2586 H   0  0  0  0  0  0  0  0  0  0  0  0
   -1.6291   -2.2928    1.0357 C   0  0  0  0  0  0  0  0  0  0  0  0
   -0.6533   -2.9824    1.2874 O   0  0  0  0  0  0  0  0  0  0  0  0
   -1.4815   -0.9831    0.6267 N   0  0  0  0  0  0  0  0  0  0  0  0
   -2.3293   -0.4229    0.5582 H   0  0  0  0  0  0  0  0  0  0  0  0
   -0.2076   -0.2608    0.4637 C   0  0  1  0  0  0  0  0  0  0  0  0
    0.5143   -0.7831    1.1000 H   0  0  0  0  0  0  0  0  0  0  0  0
    0.3959   -0.3483   -0.9755 C   0  0  1  0  0  0  0  0  0  0  0  0
    1.4115    0.0466   -0.8636 H   0  0  0  0  0  0  0  0  0  0  0  0
    0.5634   -1.8093   -1.4254 C   0  0  0  0  0  0  0  0  0  0  0  0
   -0.4095   -2.2794   -1.5973 H   0  0  0  0  0  0  0  0  0  0  0  0
    1.1384   -1.8574   -2.3555 H   0  0  0  0  0  0  0  0  0  0  0  0
    1.1021   -2.3854   -0.6669 H   0  0  0  0  0  0  0  0  0  0  0  0
   -0.2224    0.4778   -2.1463 C   0  0  0  0  0  0  0  0  0  0  0  0
    0.5653    1.1011   -2.5822 H   0  0  0  0  0  0  0  0  0  0  0  0
   -0.5392   -0.2172   -2.9311 H   0  0  0  0  0  0  0  0  0  0  0  0
   -1.4271    1.3739   -1.8625 C   0  0  0  0  0  0  0  0  0  0  0  0
   -1.1234    2.2635   -1.3055 H   0  0  0  0  0  0  0  0  0  0  0  0
   -1.8642    1.7115   -2.8071 H   0  0  0  0  0  0  0  0  0  0  0  0
   -2.1992    0.8350   -1.3072 H   0  0  0  0  0  0  0  0  0  0  0  0
   -0.2603    1.1572    1.0756 C   0  0  0  0  0  0  0  0  0  0  0  0
   -1.3257    1.7596    1.1559 O   0  0  0  0  0  0  0  0  0  0  0  0
    0.7959    1.6078    1.8474 N   0  0  0  0  0  0  0  0  0  0  0  0
    1.6249    1.0226    1.8960 H   0  0  0  0  0  0  0  0  0  0  0  0
    0.7385    2.8157    2.6627 C   0  0  0  0  0  0  0  0  0  0  0  0
   -0.0511    2.7325    3.4170 H   0  0  0  0  0  0  0  0  0  0  0  0
    1.6922    2.9709    3.1760 H   0  0  0  0  0  0  0  0  0  0  0  0
    0.5368    3.6913    2.0367 H   0  0  0  0  0  0  0  0  0  0  0  0
  1  2  1  0  0  0  0
  2  3  1  0  0  0  0
  2  4  1  0  0  0  0
  2  5  1  0  0  0  0
  5  6  2  0  0  0  0
  5  7  1  0  0  0  0
  7  8  1  0  0  0  0
  7  9  1  0  0  0  0
  9 10  1  0  0  0  0
  9 11  1  0  0  0  0
  9 24  1  0  0  0  0
 11 12  1  0  0  0  0
 11 13  1  0  0  0  0
 11 17  1  0  0  0  0
 13 14  1  0  0  0  0
 13 15  1  0  0  0  0
 13 16  1  0  0  0  0
 17 18  1  0  0  0  0
 17 19  1  0  0  0  0
 17 20  1  0  0  0  0
 20 21  1  0  0  0  0
 20 22  1  0  0  0  0
 20 23  1  0  0  0  0
 24 25  2  0  0  0  0
 24 26  1  0  0  0  0
 26 27  1  0  0  0  0
 26 28  1  0  0  0  0
 28 29  1  0  0  0  0
 28 30  1  0  0  0  0
 28 31  1  0  0  0  0
M  END
$$$$

  -OEChem-03222214053D

 31 30  0     1  0  0  0  0  0999 V2000
   -2.9100   -3.9200    1.5644 H   0  0  0  0  0  0  0  0  0  0  0  0
   -2.9830   -2.8823    1.2271 C   0  0  0  0  0  0  0  0  0  0  0  0
   -3.5265   -2.3051    1.9791 H   0  0  0  0  0  0  0  0  0  0  0  0
   -3.5376   -2.8558    0.2861 H   0  0  0  0  0  0  0  0  0  0  0  0
   -1.5975   -2.2977    1.0273 C   0  0  0  0  0  0  0  0  0  0  0  0
   -0.6122   -2.9858    1.2437 O   0  0  0  0  0  0  0  0  0  0  0  0
   -1.4672   -0.9794    0.6406 N   0  0  0  0  0  0  0  0  0  0  0  0
   -2.3200   -0.4243    0.5975 H   0  0  0  0  0  0  0  0  0  0  0  0
   -0.2019   -0.2477    0.4561 C   0  0  1  0  0  0  0  0  0  0  0  0
    0.5367   -0.7765    1.0672 H   0  0  0  0  0  0  0  0  0  0  0  0
    0.3646   -0.3290   -0.9993 C   0  0  1  0  0  0  0  0  0  0  0  0
    1.3752    0.0830   -0.9062 H   0  0  0  0  0  0  0  0  0  0  0  0
    0.5426   -1.7826   -1.4669 C   0  0  0  0  0  0  0  0  0  0  0  0
   -0.4267   -2.2701   -1.6088 H   0  0  0  0  0  0  0  0  0  0  0  0
    1.0843   -1.8123   -2.4174 H   0  0  0  0  0  0  0  0  0  0  0  0
    1.1176   -2.3545   -0.7322 H   0  0  0  0  0  0  0  0  0  0  0  0
   -0.2844    0.4926   -2.1532 C   0  0  0  0  0  0  0  0  0  0  0  0
    0.5187    0.9001   -2.7762 H   0  0  0  0  0  0  0  0  0  0  0  0
   -0.8559   -0.1965   -2.7840 H   0  0  0  0  0  0  0  0  0  0  0  0
   -1.2407    1.6299   -1.8047 C   0  0  0  0  0  0  0  0  0  0  0  0
   -0.7194    2.4228   -1.2612 H   0  0  0  0  0  0  0  0  0  0  0  0
   -1.6445    2.0653   -2.7236 H   0  0  0  0  0  0  0  0  0  0  0  0
   -2.0815    1.2625   -1.2098 H   0  0  0  0  0  0  0  0  0  0  0  0
   -0.2400    1.1585    1.0967 C   0  0  0  0  0  0  0  0  0  0  0  0
   -1.3032    1.7584    1.2163 O   0  0  0  0  0  0  0  0  0  0  0  0
    0.8369    1.5982    1.8459 N   0  0  0  0  0  0  0  0  0  0  0  0
    1.6676    1.0137    1.8608 H   0  0  0  0  0  0  0  0  0  0  0  0
    0.8010    2.7907    2.6845 C   0  0  0  0  0  0  0  0  0  0  0  0
    0.0603    2.6755    3.4830 H   0  0  0  0  0  0  0  0  0  0  0  0
    1.7802    2.9604    3.1424 H   0  0  0  0  0  0  0  0  0  0  0  0
    0.5423    3.6718    2.0876 H   0  0  0  0  0  0  0  0  0  0  0  0
  1  2  1  0  0  0  0
  2  3  1  0  0  0  0
  2  4  1  0  0  0  0
  2  5  1  0  0  0  0
  5  6  2  0  0  0  0
  5  7  1  0  0  0  0
  7  8  1  0  0  0  0
  7  9  1  0  0  0  0
  9 10  1  0  0  0  0
  9 11  1  0  0  0  0
  9 24  1  0  0  0  0
 11 12  1  0  0  0  0
 11 13  1  0  0  0  0
 11 17  1  0  0  0  0
 13 14  1  0  0  0  0
 13 15  1  0  0  0  0
 13 16  1  0  0  0  0
 17 18  1  0  0  0  0
 17 19  1  0  0  0  0
 17 20  1  0  0  0  0
 20 21  1  0  0  0  0
 20 22  1  0  0  0  0
 20 23  1  0  0  0  0
 24 25  2  0  0  0  0
 24 26  1  0  0  0  0
 26 27  1  0  0  0  0
 26 28  1  0  0  0  0
 28 29  1  0  0  0  0
 28 30  1  0  0  0  0
 28 31  1  0  0  0  0
M  END
$$$$

  -OEChem-03222214053D

 31 30  0     1  0  0  0  0  0999 V2000
   -2.8662   -3.8901    1.6821 H   0  0  0  0  0  0  0  0  0  0  0  0
   -2.9484   -2.8628    1.3163 C   0  0  0  0  0  0  0  0  0  0  0  0
   -3.4927   -2.2688    2.0545 H   0  0  0  0  0  0  0  0  0  0  0  0
   -3.5076   -2.8665    0.3776 H   0  0  0  0  0  0  0  0  0  0  0  0
   -1.5680   -2.2738    1.0941 C   0  0  0  0  0  0  0  0  0  0  0  0
   -0.5766   -2.9460    1.3310 O   0  0  0  0  0  0  0  0  0  0  0  0
   -1.4492   -0.9675    0.6650 N   0  0  0  0  0  0  0  0  0  0  0  0
   -2.3068   -0.4211    0.6069 H   0  0  0  0  0  0  0  0  0  0  0  0
   -0.1911   -0.2291    0.4590 C   0  0  1  0  0  0  0  0  0  0  0  0
    0.5524   -0.7288    1.0888 H   0  0  0  0  0  0  0  0  0  0  0  0
    0.3771   -0.3576   -0.9930 C   0  0  1  0  0  0  0  0  0  0  0  0
    1.3849    0.0647   -0.9172 H   0  0  0  0  0  0  0  0  0  0  0  0
    0.5583   -1.8236   -1.4180 C   0  0  0  0  0  0  0  0  0  0  0  0
   -0.4097   -2.3184   -1.5417 H   0  0  0  0  0  0  0  0  0  0  0  0
    1.0960   -1.8799   -2.3697 H   0  0  0  0  0  0  0  0  0  0  0  0
    1.1386   -2.3715   -0.6693 H   0  0  0  0  0  0  0  0  0  0  0  0
   -0.2810    0.4152   -2.1715 C   0  0  0  0  0  0  0  0  0  0  0  0
    0.4884    0.5822   -2.9326 H   0  0  0  0  0  0  0  0  0  0  0  0
   -1.0423   -0.2303   -2.6220 H   0  0  0  0  0  0  0  0  0  0  0  0
   -0.9619    1.7514   -1.8900 C   0  0  0  0  0  0  0  0  0  0  0  0
   -0.2831    2.4349   -1.3720 H   0  0  0  0  0  0  0  0  0  0  0  0
   -1.2580    2.2193   -2.8337 H   0  0  0  0  0  0  0  0  0  0  0  0
   -1.8675    1.6050   -1.2958 H   0  0  0  0  0  0  0  0  0  0  0  0
   -0.2511    1.1952    1.0556 C   0  0  0  0  0  0  0  0  0  0  0  0
   -1.3231    1.7836    1.1501 O   0  0  0  0  0  0  0  0  0  0  0  0
    0.8162    1.6741    1.7947 N   0  0  0  0  0  0  0  0  0  0  0  0
    1.6553    1.1027    1.8318 H   0  0  0  0  0  0  0  0  0  0  0  0
    0.7556    2.8871    2.6021 C   0  0  0  0  0  0  0  0  0  0  0  0
    0.0099    2.7817    3.3972 H   0  0  0  0  0  0  0  0  0  0  0  0
    1.7281    3.0835    3.0638 H   0  0  0  0  0  0  0  0  0  0  0  0
    0.4888    3.7482    1.9803 H   0  0  0  0  0  0  0  0  0  0  0  0
  1  2  1  0  0  0  0
  2  3  1  0  0  0  0
  2  4  1  0  0  0  0
  2  5  1  0  0  0  0
  5  6  2  0  0  0  0
  5  7  1  0  0  0  0
  7  8  1  0  0  0  0
  7  9  1  0  0  0  0
  9 10  1  0  0  0  0
  9 11  1  0  0  0  0
  9 24  1  0  0  0  0
 11 12  1  0  0  0  0
 11 13  1  0  0  0  0
 11 17  1  0  0  0  0
 13 14  1  0  0  0  0
 13 15  1  0  0  0  0
 13 16  1  0  0  0  0
 17 18  1  0  0  0  0
 17 19  1  0  0  0  0
 17 20  1  0  0  0  0
 20 21  1  0  0  0  0
 20 22  1  0  0  0  0
 20 23  1  0  0  0  0
 24 25  2  0  0  0  0
 24 26  1  0  0  0  0
 26 27  1  0  0  0  0
 26 28  1  0  0  0  0
 28 29  1  0  0  0  0
 28 30  1  0  0  0  0
 28 31  1  0  0  0  0
M  END
$$$$

  -OEChem-03222214053D

 31 30  0     1  0  0  0  0  0999 V2000
   -3.0502   -3.8086    1.5568 H   0  0  0  0  0  0  0  0  0  0  0  0
   -3.0796   -2.7786    1.1909 C   0  0  0  0  0  0  0  0  0  0  0  0
   -3.6414   -2.1681    1.9020 H   0  0  0  0  0  0  0  0  0  0  0  0
   -3.5898   -2.7624    0.2248 H   0  0  0  0  0  0  0  0  0  0  0  0
   -1.6708   -2.2357    1.0416 C   0  0  0  0  0  0  0  0  0  0  0  0
   -0.7159   -2.9357    1.3406 O   0  0  0  0  0  0  0  0  0  0  0  0
   -1.4868   -0.9392    0.6062 N   0  0  0  0  0  0  0  0  0  0  0  0
   -2.3214   -0.3648    0.5007 H   0  0  0  0  0  0  0  0  0  0  0  0
   -0.1963   -0.2427    0.4650 C   0  0  1  0  0  0  0  0  0  0  0  0
    0.4998   -0.7583    1.1347 H   0  0  0  0  0  0  0  0  0  0  0  0
    0.4377   -0.3925   -0.9568 C   0  0  1  0  0  0  0  0  0  0  0  0
    1.4600   -0.0169   -0.8402 H   0  0  0  0  0  0  0  0  0  0  0  0
    0.5632   -1.8649   -1.3788 C   0  0  0  0  0  0  0  0  0  0  0  0
   -0.4214   -2.3077   -1.5559 H   0  0  0  0  0  0  0  0  0  0  0  0
    1.1470   -1.9490   -2.3005 H   0  0  0  0  0  0  0  0  0  0  0  0
    1.0737   -2.4433   -0.6028 H   0  0  0  0  0  0  0  0  0  0  0  0
   -0.1470    0.4068   -2.1523 C   0  0  0  0  0  0  0  0  0  0  0  0
    0.5718    0.3414   -2.9757 H   0  0  0  0  0  0  0  0  0  0  0  0
   -1.0664   -0.0859   -2.4856 H   0  0  0  0  0  0  0  0  0  0  0  0
   -0.4720    1.8846   -1.9437 C   0  0  0  0  0  0  0  0  0  0  0  0
    0.3365    2.3913   -1.4082 H   0  0  0  0  0  0  0  0  0  0  0  0
   -1.4092    2.0020   -1.3962 H   0  0  0  0  0  0  0  0  0  0  0  0
   -0.5983    2.3735   -2.9145 H   0  0  0  0  0  0  0  0  0  0  0  0
   -0.2592    1.1872    1.0451 C   0  0  0  0  0  0  0  0  0  0  0  0
   -1.3221    1.7991    1.0672 O   0  0  0  0  0  0  0  0  0  0  0  0
    0.7722    1.6486    1.8434 N   0  0  0  0  0  0  0  0  0  0  0  0
    1.5921    1.0565    1.9387 H   0  0  0  0  0  0  0  0  0  0  0  0
    0.6928    2.8725    2.6319 C   0  0  0  0  0  0  0  0  0  0  0  0
   -0.0883    2.7871    3.3945 H   0  0  0  0  0  0  0  0  0  0  0  0
    1.6469    3.0621    3.1329 H   0  0  0  0  0  0  0  0  0  0  0  0
    0.4656    3.7288    1.9882 H   0  0  0  0  0  0  0  0  0  0  0  0
  1  2  1  0  0  0  0
  2  3  1  0  0  0  0
  2  4  1  0  0  0  0
  2  5  1  0  0  0  0
  5  6  2  0  0  0  0
  5  7  1  0  0  0  0
  7  8  1  0  0  0  0
  7  9  1  0  0  0  0
  9 10  1  0  0  0  0
  9 11  1  0  0  0  0
  9 24  1  0  0  0  0
 11 12  1  0  0  0  0
 11 13  1  0  0  0  0
 11 17  1  0  0  0  0
 13 14  1  0  0  0  0
 13 15  1  0  0  0  0
 13 16  1  0  0  0  0
 17 18  1  0  0  0  0
 17 19  1  0  0  0  0
 17 20  1  0  0  0  0
 20 21  1  0  0  0  0
 20 22  1  0  0  0  0
 20 23  1  0  0  0  0
 24 25  2  0  0  0  0
 24 26  1  0  0  0  0
 26 27  1  0  0  0  0
 26 28  1  0  0  0  0
 28 29  1  0  0  0  0
 28 30  1  0  0  0  0
 28 31  1  0  0  0  0
M  END
$$$$

  -OEChem-03222214053D

 31 30  0     1  0  0  0  0  0999 V2000
   -2.9918   -3.8654    1.4924 H   0  0  0  0  0  0  0  0  0  0  0  0
   -3.0284   -2.8322    1.1358 C   0  0  0  0  0  0  0  0  0  0  0  0
   -3.5918   -2.2314    1.8540 H   0  0  0  0  0  0  0  0  0  0  0  0
   -3.5409   -2.8104    0.1711 H   0  0  0  0  0  0  0  0  0  0  0  0
   -1.6235   -2.2796    0.9872 C   0  0  0  0  0  0  0  0  0  0  0  0
   -0.6631   -2.9789    1.2691 O   0  0  0  0  0  0  0  0  0  0  0  0
   -1.4474   -0.9765    0.5692 N   0  0  0  0  0  0  0  0  0  0  0  0
   -2.2837   -0.4014    0.4811 H   0  0  0  0  0  0  0  0  0  0  0  0
   -0.1586   -0.2738    0.4416 C   0  0  1  0  0  0  0  0  0  0  0  0
    0.5518   -0.7973    1.0898 H   0  0  0  0  0  0  0  0  0  0  0  0
    0.4488   -0.3646   -0.9960 C   0  0  1  0  0  0  0  0  0  0  0  0
    1.4826   -0.0171   -0.8961 H   0  0  0  0  0  0  0  0  0  0  0  0
    0.5254   -1.8189   -1.4889 C   0  0  0  0  0  0  0  0  0  0  0  0
   -0.4740   -2.2234   -1.6760 H   0  0  0  0  0  0  0  0  0  0  0  0
    1.0975   -1.8773   -2.4200 H   0  0  0  0  0  0  0  0  0  0  0  0
    1.0264   -2.4487   -0.7474 H   0  0  0  0  0  0  0  0  0  0  0  0
   -0.1770    0.4983   -2.1224 C   0  0  0  0  0  0  0  0  0  0  0  0
    0.3727    0.2901   -3.0464 H   0  0  0  0  0  0  0  0  0  0  0  0
   -1.2130    0.1823   -2.2831 H   0  0  0  0  0  0  0  0  0  0  0  0
   -0.1593    2.0158   -1.9229 C   0  0  0  0  0  0  0  0  0  0  0  0
    0.7754    2.3372   -1.4534 H   0  0  0  0  0  0  0  0  0  0  0  0
   -1.0036    2.3452   -1.3156 H   0  0  0  0  0  0  0  0  0  0  0  0
   -0.2450    2.5144   -2.8932 H   0  0  0  0  0  0  0  0  0  0  0  0
   -0.2532    1.1429    1.0463 C   0  0  0  0  0  0  0  0  0  0  0  0
   -1.3269    1.7370    1.0531 O   0  0  0  0  0  0  0  0  0  0  0  0
    0.7587    1.6136    1.8635 N   0  0  0  0  0  0  0  0  0  0  0  0
    1.5881    1.0359    1.9645 H   0  0  0  0  0  0  0  0  0  0  0  0
    0.6491    2.8332    2.6553 C   0  0  0  0  0  0  0  0  0  0  0  0
   -0.1547    2.7403    3.3933 H   0  0  0  0  0  0  0  0  0  0  0  0
    1.5864    3.0252    3.1864 H   0  0  0  0  0  0  0  0  0  0  0  0
    0.4370    3.6917    2.0093 H   0  0  0  0  0  0  0  0  0  0  0  0
  1  2  1  0  0  0  0
  2  3  1  0  0  0  0
  2  4  1  0  0  0  0
  2  5  1  0  0  0  0
  5  6  2  0  0  0  0
  5  7  1  0  0  0  0
  7  8  1  0  0  0  0
  7  9  1  0  0  0  0
  9 10  1  0  0  0  0
  9 11  1  0  0  0  0
  9 24  1  0  0  0  0
 11 12  1  0  0  0  0
 11 13  1  0  0  0  0
 11 17  1  0  0  0  0
 13 14  1  0  0  0  0
 13 15  1  0  0  0  0
 13 16  1  0  0  0  0
 17 18  1  0  0  0  0
 17 19  1  0  0  0  0
 17 20  1  0  0  0  0
 20 21  1  0  0  0  0
 20 22  1  0  0  0  0
 20 23  1  0  0  0  0
 24 25  2  0  0  0  0
 24 26  1  0  0  0  0
 26 27  1  0  0  0  0
 26 28  1  0  0  0  0
 28 29  1  0  0  0  0
 28 30  1  0  0  0  0
 28 31  1  0  0  0  0
M  END
$$$$

  -OEChem-03222214053D

 31 30  0     1  0  0  0  0  0999 V2000
   -2.9394   -3.8774    1.5693 H   0  0  0  0  0  0  0  0  0  0  0  0
   -2.9837   -2.8535    1.1875 C   0  0  0  0  0  0  0  0  0  0  0  0
   -3.5413   -2.2370    1.8969 H   0  0  0  0  0  0  0  0  0  0  0  0
   -3.5065   -2.8573    0.2280 H   0  0  0  0  0  0  0  0  0  0  0  0
   -1.5822   -2.3007    1.0097 C   0  0  0  0  0  0  0  0  0  0  0  0
   -0.6162   -2.9958    1.2829 O   0  0  0  0  0  0  0  0  0  0  0  0
   -1.4123   -1.0031    0.5729 N   0  0  0  0  0  0  0  0  0  0  0  0
   -2.2493   -0.4286    0.4855 H   0  0  0  0  0  0  0  0  0  0  0  0
   -0.1231   -0.3042    0.4260 C   0  0  1  0  0  0  0  0  0  0  0  0
    0.6058   -0.8235    1.0568 H   0  0  0  0  0  0  0  0  0  0  0  0
    0.4393   -0.3715   -1.0294 C   0  0  1  0  0  0  0  0  0  0  0  0
    1.4843   -0.0499   -0.9677 H   0  0  0  0  0  0  0  0  0  0  0  0
    0.4619   -1.8164   -1.5556 C   0  0  0  0  0  0  0  0  0  0  0  0
   -0.5529   -2.1867   -1.7299 H   0  0  0  0  0  0  0  0  0  0  0  0
    1.0125   -1.8703   -2.4998 H   0  0  0  0  0  0  0  0  0  0  0  0
    0.9593   -2.4773   -0.8392 H   0  0  0  0  0  0  0  0  0  0  0  0
   -0.2405    0.5329   -2.0897 C   0  0  0  0  0  0  0  0  0  0  0  0
    0.0683    0.1915   -3.0832 H   0  0  0  0  0  0  0  0  0  0  0  0
   -1.3271    0.4129   -2.0290 H   0  0  0  0  0  0  0  0  0  0  0  0
    0.1082    2.0249   -2.0071 C   0  0  0  0  0  0  0  0  0  0  0  0
    1.1831    2.1625   -1.8555 H   0  0  0  0  0  0  0  0  0  0  0  0
   -0.1713    2.5161   -2.9441 H   0  0  0  0  0  0  0  0  0  0  0  0
   -0.4295    2.5301   -1.2051 H   0  0  0  0  0  0  0  0  0  0  0  0
   -0.2297    1.1159    1.0172 C   0  0  0  0  0  0  0  0  0  0  0  0
   -1.3005    1.7149    0.9811 O   0  0  0  0  0  0  0  0  0  0  0  0
    0.7765    1.6092    1.8276 N   0  0  0  0  0  0  0  0  0  0  0  0
    1.6104    1.0404    1.9421 H   0  0  0  0  0  0  0  0  0  0  0  0
    0.6692    2.8617    2.5662 C   0  0  0  0  0  0  0  0  0  0  0  0
   -0.1620    2.8170    3.2780 H   0  0  0  0  0  0  0  0  0  0  0  0
    1.5913    3.0536    3.1231 H   0  0  0  0  0  0  0  0  0  0  0  0
    0.5006    3.6980    1.8794 H   0  0  0  0  0  0  0  0  0  0  0  0
  1  2  1  0  0  0  0
  2  3  1  0  0  0  0
  2  4  1  0  0  0  0
  2  5  1  0  0  0  0
  5  6  2  0  0  0  0
  5  7  1  0  0  0  0
  7  8  1  0  0  0  0
  7  9  1  0  0  0  0
  9 10  1  0  0  0  0
  9 11  1  0  0  0  0
  9 24  1  0  0  0  0
 11 12  1  0  0  0  0
 11 13  1  0  0  0  0
 11 17  1  0  0  0  0
 13 14  1  0  0  0  0
 13 15  1  0  0  0  0
 13 16  1  0  0  0  0
 17 18  1  0  0  0  0
 17 19  1  0  0  0  0
 17 20  1  0  0  0  0
 20 21  1  0  0  0  0
 20 22  1  0  0  0  0
 20 23  1  0  0  0  0
 24 25  2  0  0  0  0
 24 26  1  0  0  0  0
 26 27  1  0  0  0  0
 26 28  1  0  0  0  0
 28 29  1  0  0  0  0
 28 30  1  0  0  0  0
 28 31  1  0  0  0  0
M  END
$$$$

  -OEChem-03222214053D

 31 30  0     1  0  0  0  0  0999 V2000
   -2.9486   -3.8794    1.5661 H   0  0  0  0  0  0  0  0  0  0  0  0
   -2.9860   -2.8608    1.1702 C   0  0  0  0  0  0  0  0  0  0  0  0
   -3.5566   -2.2350    1.8606 H   0  0  0  0  0  0  0  0  0  0  0  0
   -3.4904   -2.8773    0.2012 H   0  0  0  0  0  0  0  0  0  0  0  0
   -1.5820   -2.3093    1.0120 C   0  0  0  0  0  0  0  0  0  0  0  0
   -0.6198   -2.9967    1.3164 O   0  0  0  0  0  0  0  0  0  0  0  0
   -1.4049   -1.0207    0.5522 N   0  0  0  0  0  0  0  0  0  0  0  0
   -2.2404   -0.4520    0.4232 H   0  0  0  0  0  0  0  0  0  0  0  0
   -0.1117   -0.3268    0.4230 C   0  0  1  0  0  0  0  0  0  0  0  0
    0.6123   -0.8383    1.0653 H   0  0  0  0  0  0  0  0  0  0  0  0
    0.4554   -0.3899   -1.0287 C   0  0  1  0  0  0  0  0  0  0  0  0
    1.5039   -0.0790   -0.9715 H   0  0  0  0  0  0  0  0  0  0  0  0
    0.4608   -1.8291   -1.5707 C   0  0  0  0  0  0  0  0  0  0  0  0
   -0.5582   -2.1868   -1.7469 H   0  0  0  0  0  0  0  0  0  0  0  0
    1.0092   -1.8772   -2.5166 H   0  0  0  0  0  0  0  0  0  0  0  0
    0.9518   -2.5026   -0.8615 H   0  0  0  0  0  0  0  0  0  0  0  0
   -0.2517    0.5438   -2.0437 C   0  0  0  0  0  0  0  0  0  0  0  0
   -0.2029    0.0997   -3.0434 H   0  0  0  0  0  0  0  0  0  0  0  0
   -1.3118    0.6370   -1.7862 H   0  0  0  0  0  0  0  0  0  0  0  0
    0.3798    1.9391   -2.1354 C   0  0  0  0  0  0  0  0  0  0  0  0
    1.4342    1.8610   -2.4174 H   0  0  0  0  0  0  0  0  0  0  0  0
   -0.1373    2.5281   -2.8989 H   0  0  0  0  0  0  0  0  0  0  0  0
    0.3135    2.4818   -1.1907 H   0  0  0  0  0  0  0  0  0  0  0  0
   -0.2295    1.1058    0.9814 C   0  0  0  0  0  0  0  0  0  0  0  0
   -1.2697    1.7401    0.8359 O   0  0  0  0  0  0  0  0  0  0  0  0
    0.7557    1.6155    1.8068 N   0  0  0  0  0  0  0  0  0  0  0  0
    1.5681    1.0327    1.9862 H   0  0  0  0  0  0  0  0  0  0  0  0
    0.6490    2.9046    2.4788 C   0  0  0  0  0  0  0  0  0  0  0  0
   -0.2127    2.9148    3.1546 H   0  0  0  0  0  0  0  0  0  0  0  0
    1.5513    3.1004    3.0660 H   0  0  0  0  0  0  0  0  0  0  0  0
    0.5319    3.7097    1.7458 H   0  0  0  0  0  0  0  0  0  0  0  0
  1  2  1  0  0  0  0
  2  3  1  0  0  0  0
  2  4  1  0  0  0  0
  2  5  1  0  0  0  0
  5  6  2  0  0  0  0
  5  7  1  0  0  0  0
  7  8  1  0  0  0  0
  7  9  1  0  0  0  0
  9 10  1  0  0  0  0
  9 11  1  0  0  0  0
  9 24  1  0  0  0  0
 11 12  1  0  0  0  0
 11 13  1  0  0  0  0
 11 17  1  0  0  0  0
 13 14  1  0  0  0  0
 13 15  1  0  0  0  0
 13 16  1  0  0  0  0
 17 18  1  0  0  0  0
 17 19  1  0  0  0  0
 17 20  1  0  0  0  0
 20 21  1  0  0  0  0
 20 22  1  0  0  0  0
 20 23  1  0  0  0  0
 24 25  2  0  0  0  0
 24 26  1  0  0  0  0
 26 27  1  0  0  0  0
 26 28  1  0  0  0  0
 28 29  1  0  0  0  0
 28 30  1  0  0  0  0
 28 31  1  0  0  0  0
M  END
$$$$

  -OEChem-03222214053D

 31 30  0     1  0  0  0  0  0999 V2000
   -2.9567   -3.8966    1.5611 H   0  0  0  0  0  0  0  0  0  0  0  0
   -2.9968   -2.8813    1.1566 C   0  0  0  0  0  0  0  0  0  0  0  0
   -3.5797   -2.2545    1.8359 H   0  0  0  0  0  0  0  0  0  0  0  0
   -3.4912   -2.9091    0.1826 H   0  0  0  0  0  0  0  0  0  0  0  0
   -1.5952   -2.3202    1.0093 C   0  0  0  0  0  0  0  0  0  0  0  0
   -0.6311   -2.9988    1.3274 O   0  0  0  0  0  0  0  0  0  0  0  0
   -1.4232   -1.0335    0.5420 N   0  0  0  0  0  0  0  0  0  0  0  0
   -2.2620   -0.4761    0.3906 H   0  0  0  0  0  0  0  0  0  0  0  0
   -0.1340   -0.3312    0.4197 C   0  0  1  0  0  0  0  0  0  0  0  0
    0.5853   -0.8398    1.0697 H   0  0  0  0  0  0  0  0  0  0  0  0
    0.4514   -0.3893   -1.0206 C   0  0  1  0  0  0  0  0  0  0  0  0
    1.4960   -0.0674   -0.9482 H   0  0  0  0  0  0  0  0  0  0  0  0
    0.4798   -1.8251   -1.5689 C   0  0  0  0  0  0  0  0  0  0  0  0
   -0.5332   -2.2014   -1.7400 H   0  0  0  0  0  0  0  0  0  0  0  0
    1.0228   -1.8563   -2.5184 H   0  0  0  0  0  0  0  0  0  0  0  0
    0.9871   -2.4925   -0.8653 H   0  0  0  0  0  0  0  0  0  0  0  0
   -0.2736    0.5483   -2.0195 C   0  0  0  0  0  0  0  0  0  0  0  0
   -0.4547    0.0196   -2.9610 H   0  0  0  0  0  0  0  0  0  0  0  0
   -1.2549    0.8430   -1.6359 H   0  0  0  0  0  0  0  0  0  0  0  0
    0.5571    1.7937   -2.3391 C   0  0  0  0  0  0  0  0  0  0  0  0
    1.5129    1.5121   -2.7917 H   0  0  0  0  0  0  0  0  0  0  0  0
    0.0156    2.4332   -3.0425 H   0  0  0  0  0  0  0  0  0  0  0  0
    0.7546    2.3710   -1.4309 H   0  0  0  0  0  0  0  0  0  0  0  0
   -0.2331    1.1123    0.9595 C   0  0  0  0  0  0  0  0  0  0  0  0
   -1.2579    1.7665    0.7980 O   0  0  0  0  0  0  0  0  0  0  0  0
    0.7590    1.6177    1.7796 N   0  0  0  0  0  0  0  0  0  0  0  0
    1.5646    1.0269    1.9638 H   0  0  0  0  0  0  0  0  0  0  0  0
    0.6808    2.9253    2.4188 C   0  0  0  0  0  0  0  0  0  0  0  0
   -0.1851    2.9741    3.0875 H   0  0  0  0  0  0  0  0  0  0  0  0
    1.5835    3.1129    3.0080 H   0  0  0  0  0  0  0  0  0  0  0  0
    0.5898    3.7148    1.6653 H   0  0  0  0  0  0  0  0  0  0  0  0
  1  2  1  0  0  0  0
  2  3  1  0  0  0  0
  2  4  1  0  0  0  0
  2  5  1  0  0  0  0
  5  6  2  0  0  0  0
  5  7  1  0  0  0  0
  7  8  1  0  0  0  0
  7  9  1  0  0  0  0
  9 10  1  0  0  0  0
  9 11  1  0  0  0  0
  9 24  1  0  0  0  0
 11 12  1  0  0  0  0
 11 13  1  0  0  0  0
 11 17  1  0  0  0  0
 13 14  1  0  0  0  0
 13 15  1  0  0  0  0
 13 16  1  0  0  0  0
 17 18  1  0  0  0  0
 17 19  1  0  0  0  0
 17 20  1  0  0  0  0
 20 21  1  0  0  0  0
 20 22  1  0  0  0  0
 20 23  1  0  0  0  0
 24 25  2  0  0  0  0
 24 26  1  0  0  0  0
 26 27  1  0  0  0  0
 26 28  1  0  0  0  0
 28 29  1  0  0  0  0
 28 30  1  0  0  0  0
 28 31  1  0  0  0  0
M  END
$$$$

  -OEChem-03222214053D

 31 30  0     1  0  0  0  0  0999 V2000
   -2.9543   -3.8979    1.5536 H   0  0  0  0  0  0  0  0  0  0  0  0
   -3.0002   -2.8814    1.1527 C   0  0  0  0  0  0  0  0  0  0  0  0
   -3.5835   -2.2594    1.8361 H   0  0  0  0  0  0  0  0  0  0  0  0
   -3.4979   -2.9080    0.1803 H   0  0  0  0  0  0  0  0  0  0  0  0
   -1.6015   -2.3137    1.0020 C   0  0  0  0  0  0  0  0  0  0  0  0
   -0.6331   -2.9926    1.3062 O   0  0  0  0  0  0  0  0  0  0  0  0
   -1.4372   -1.0227    0.5438 N   0  0  0  0  0  0  0  0  0  0  0  0
   -2.2792   -0.4670    0.4046 H   0  0  0  0  0  0  0  0  0  0  0  0
   -0.1522   -0.3148    0.4170 C   0  0  1  0  0  0  0  0  0  0  0  0
    0.5682   -0.8254    1.0643 H   0  0  0  0  0  0  0  0  0  0  0  0
    0.4320   -0.3798   -1.0224 C   0  0  1  0  0  0  0  0  0  0  0  0
    1.4692   -0.0373   -0.9369 H   0  0  0  0  0  0  0  0  0  0  0  0
    0.4972   -1.8169   -1.5630 C   0  0  0  0  0  0  0  0  0  0  0  0
   -0.5059   -2.2239   -1.7230 H   0  0  0  0  0  0  0  0  0  0  0  0
    1.0325   -1.8373   -2.5173 H   0  0  0  0  0  0  0  0  0  0  0  0
    1.0290   -2.4655   -0.8598 H   0  0  0  0  0  0  0  0  0  0  0  0
   -0.2911    0.5433   -2.0381 C   0  0  0  0  0  0  0  0  0  0  0  0
   -0.7134   -0.0565   -2.8511 H   0  0  0  0  0  0  0  0  0  0  0  0
   -1.1329    1.0643   -1.5764 H   0  0  0  0  0  0  0  0  0  0  0  0
    0.6660    1.5712   -2.6434 C   0  0  0  0  0  0  0  0  0  0  0  0
    1.4925    1.0703   -3.1570 H   0  0  0  0  0  0  0  0  0  0  0  0
    0.1357    2.1972   -3.3673 H   0  0  0  0  0  0  0  0  0  0  0  0
    1.0760    2.2182   -1.8616 H   0  0  0  0  0  0  0  0  0  0  0  0
   -0.2386    1.1266    0.9659 C   0  0  0  0  0  0  0  0  0  0  0  0
   -1.2690    1.7798    0.8404 O   0  0  0  0  0  0  0  0  0  0  0  0
    0.7664    1.6200    1.7774 N   0  0  0  0  0  0  0  0  0  0  0  0
    1.5745    1.0262    1.9397 H   0  0  0  0  0  0  0  0  0  0  0  0
    0.6987    2.9169    2.4399 C   0  0  0  0  0  0  0  0  0  0  0  0
   -0.1604    2.9575    3.1179 H   0  0  0  0  0  0  0  0  0  0  0  0
    1.6079    3.0907    3.0235 H   0  0  0  0  0  0  0  0  0  0  0  0
    0.6033    3.7195    1.7009 H   0  0  0  0  0  0  0  0  0  0  0  0
  1  2  1  0  0  0  0
  2  3  1  0  0  0  0
  2  4  1  0  0  0  0
  2  5  1  0  0  0  0
  5  6  2  0  0  0  0
  5  7  1  0  0  0  0
  7  8  1  0  0  0  0
  7  9  1  0  0  0  0
  9 10  1  0  0  0  0
  9 11  1  0  0  0  0
  9 24  1  0  0  0  0
 11 12  1  0  0  0  0
 11 13  1  0  0  0  0
 11 17  1  0  0  0  0
 13 14  1  0  0  0  0
 13 15  1  0  0  0  0
 13 16  1  0  0  0  0
 17 18  1  0  0  0  0
 17 19  1  0  0  0  0
 17 20  1  0  0  0  0
 20 21  1  0  0  0  0
 20 22  1  0  0  0  0
 20 23  1  0  0  0  0
 24 25  2  0  0  0  0
 24 26  1  0  0  0  0
 26 27  1  0  0  0  0
 26 28  1  0  0  0  0
 28 29  1  0  0  0  0
 28 30  1  0  0  0  0
 28 31  1  0  0  0  0
M  END
$$$$

  -OEChem-03222214053D

 31 30  0     1  0  0  0  0  0999 V2000
   -2.9530   -3.8889    1.5514 H   0  0  0  0  0  0  0  0  0  0  0  0
   -3.0004   -2.8694    1.1586 C   0  0  0  0  0  0  0  0  0  0  0  0
   -3.5740   -2.2509    1.8533 H   0  0  0  0  0  0  0  0  0  0  0  0
   -3.5093   -2.8876    0.1919 H   0  0  0  0  0  0  0  0  0  0  0  0
   -1.6019   -2.3041    0.9965 C   0  0  0  0  0  0  0  0  0  0  0  0
   -0.6320   -2.9862    1.2887 O   0  0  0  0  0  0  0  0  0  0  0  0
   -1.4392   -1.0104    0.5449 N   0  0  0  0  0  0  0  0  0  0  0  0
   -2.2815   -0.4524    0.4170 H   0  0  0  0  0  0  0  0  0  0  0  0
   -0.1548   -0.3025    0.4121 C   0  0  1  0  0  0  0  0  0  0  0  0
    0.5686   -0.8149    1.0546 H   0  0  0  0  0  0  0  0  0  0  0  0
    0.4197   -0.3733   -1.0318 C   0  0  1  0  0  0  0  0  0  0  0  0
    1.4512   -0.0154   -0.9425 H   0  0  0  0  0  0  0  0  0  0  0  0
    0.5019   -1.8110   -1.5685 C   0  0  0  0  0  0  0  0  0  0  0  0
   -0.4964   -2.2332   -1.7182 H   0  0  0  0  0  0  0  0  0  0  0  0
    1.0287   -1.8280   -2.5275 H   0  0  0  0  0  0  0  0  0  0  0  0
    1.0487   -2.4492   -0.8674 H   0  0  0  0  0  0  0  0  0  0  0  0
   -0.2985    0.5405   -2.0586 C   0  0  0  0  0  0  0  0  0  0  0  0
   -0.9579   -0.0602   -2.6935 H   0  0  0  0  0  0  0  0  0  0  0  0
   -0.9341    1.2779   -1.5656 H   0  0  0  0  0  0  0  0  0  0  0  0
    0.7035    1.2935   -2.9357 C   0  0  0  0  0  0  0  0  0  0  0  0
    1.3462    0.5910   -3.4748 H   0  0  0  0  0  0  0  0  0  0  0  0
    0.1721    1.9095   -3.6674 H   0  0  0  0  0  0  0  0  0  0  0  0
    1.3318    1.9486   -2.3240 H   0  0  0  0  0  0  0  0  0  0  0  0
   -0.2391    1.1351    0.9714 C   0  0  0  0  0  0  0  0  0  0  0  0
   -1.2771    1.7806    0.8695 O   0  0  0  0  0  0  0  0  0  0  0  0
    0.7711    1.6248    1.7789 N   0  0  0  0  0  0  0  0  0  0  0  0
    1.5814    1.0313    1.9311 H   0  0  0  0  0  0  0  0  0  0  0  0
    0.6940    2.9047    2.4722 C   0  0  0  0  0  0  0  0  0  0  0  0
   -0.1504    2.9123    3.1695 H   0  0  0  0  0  0  0  0  0  0  0  0
    1.6124    3.0838    3.0395 H   0  0  0  0  0  0  0  0  0  0  0  0
    0.5666    3.7219    1.7545 H   0  0  0  0  0  0  0  0  0  0  0  0
  1  2  1  0  0  0  0
  2  3  1  0  0  0  0
  2  4  1  0  0  0  0
  2  5  1  0  0  0  0
  5  6  2  0  0  0  0
  5  7  1  0  0  0  0
  7  8  1  0  0  0  0
  7  9  1  0  0  0  0
  9 10  1  0  0  0  0
  9 11  1  0  0  0  0
  9 24  1  0  0  0  0
 11 12  1  0  0  0  0
 11 13  1  0  0  0  0
 11 17  1  0  0  0  0
 13 14  1  0  0  0  0
 13 15  1  0  0  0  0
 13 16  1  0  0  0  0
 17 18  1  0  0  0  0
 17 19  1  0  0  0  0
 17 20  1  0  0  0  0
 20 21  1  0  0  0  0
 20 22  1  0  0  0  0
 20 23  1  0  0  0  0
 24 25  2  0  0  0  0
 24 26  1  0  0  0  0
 26 27  1  0  0  0  0
 26 28  1  0  0  0  0
 28 29  1  0  0  0  0
 28 30  1  0  0  0  0
 28 31  1  0  0  0  0
M  END
$$$$

  -OEChem-03222214053D

 31 30  0     1  0  0  0  0  0999 V2000
   -2.9562   -3.8773    1.5510 H   0  0  0  0  0  0  0  0  0  0  0  0
   -2.9993   -2.8573    1.1591 C   0  0  0  0  0  0  0  0  0  0  0  0
   -3.5687   -2.2365    1.8551 H   0  0  0  0  0  0  0  0  0  0  0  0
   -3.5098   -2.8721    0.1932 H   0  0  0  0  0  0  0  0  0  0  0  0
   -1.5982   -2.2993    0.9944 C   0  0  0  0  0  0  0  0  0  0  0  0
   -0.6311   -2.9853    1.2863 O   0  0  0  0  0  0  0  0  0  0  0  0
   -1.4304   -1.0066    0.5426 N   0  0  0  0  0  0  0  0  0  0  0  0
   -2.2704   -0.4435    0.4197 H   0  0  0  0  0  0  0  0  0  0  0  0
   -0.1434   -0.3034    0.4082 C   0  0  1  0  0  0  0  0  0  0  0  0
    0.5809   -0.8168    1.0491 H   0  0  0  0  0  0  0  0  0  0  0  0
    0.4249   -0.3762   -1.0396 C   0  0  1  0  0  0  0  0  0  0  0  0
    1.4566   -0.0168   -0.9593 H   0  0  0  0  0  0  0  0  0  0  0  0
    0.4957   -1.8183   -1.5695 C   0  0  0  0  0  0  0  0  0  0  0  0
   -0.5061   -2.2265   -1.7326 H   0  0  0  0  0  0  0  0  0  0  0  0
    1.0381   -1.8540   -2.5184 H   0  0  0  0  0  0  0  0  0  0  0  0
    1.0218   -2.4599   -0.8558 H   0  0  0  0  0  0  0  0  0  0  0  0
   -0.2960    0.5422   -2.0581 C   0  0  0  0  0  0  0  0  0  0  0  0
   -1.1520    0.0139   -2.4902 H   0  0  0  0  0  0  0  0  0  0  0  0
   -0.6864    1.4398   -1.5753 H   0  0  0  0  0  0  0  0  0  0  0  0
    0.6461    1.0076   -3.1717 C   0  0  0  0  0  0  0  0  0  0  0  0
    1.0430    0.1546   -3.7295 H   0  0  0  0  0  0  0  0  0  0  0  0
    0.1064    1.6536   -3.8707 H   0  0  0  0  0  0  0  0  0  0  0  0
    1.4833    1.5749   -2.7538 H   0  0  0  0  0  0  0  0  0  0  0  0
   -0.2341    1.1324    0.9703 C   0  0  0  0  0  0  0  0  0  0  0  0
   -1.2744    1.7736    0.8627 O   0  0  0  0  0  0  0  0  0  0  0  0
    0.7717    1.6262    1.7807 N   0  0  0  0  0  0  0  0  0  0  0  0
    1.5829    1.0351    1.9367 H   0  0  0  0  0  0  0  0  0  0  0  0
    0.6837    2.9021    2.4806 C   0  0  0  0  0  0  0  0  0  0  0  0
   -0.1551    2.8960    3.1847 H   0  0  0  0  0  0  0  0  0  0  0  0
    1.6046    3.0902    3.0412 H   0  0  0  0  0  0  0  0  0  0  0  0
    0.5399    3.7210    1.7678 H   0  0  0  0  0  0  0  0  0  0  0  0
  1  2  1  0  0  0  0
  2  3  1  0  0  0  0
  2  4  1  0  0  0  0
  2  5  1  0  0  0  0
  5  6  2  0  0  0  0
  5  7  1  0  0  0  0
  7  8  1  0  0  0  0
  7  9  1  0  0  0  0
  9 10  1  0  0  0  0
  9 11  1  0  0  0  0
  9 24  1  0  0  0  0
 11 12  1  0  0  0  0
 11 13  1  0  0  0  0
 11 17  1  0  0  0  0
 13 14  1  0  0  0  0
 13 15  1  0  0  0  0
 13 16  1  0  0  0  0
 17 18  1  0  0  0  0
 17 19  1  0  0  0  0
 17 20  1  0  0  0  0
 20 21  1  0  0  0  0
 20 22  1  0  0  0  0
 20 23  1  0  0  0  0
 24 25  2  0  0  0  0
 24 26  1  0  0  0  0
 26 27  1  0  0  0  0
 26 28  1  0  0  0  0
 28 29  1  0  0  0  0
 28 30  1  0  0  0  0
 28 31  1  0  0  0  0
M  END
$$$$

  -OEChem-03222214053D

 31 30  0     1  0  0  0  0  0999 V2000
   -2.9616   -3.8754    1.5474 H   0  0  0  0  0  0  0  0  0  0  0  0
   -2.9981   -2.8583    1.1474 C   0  0  0  0  0  0  0  0  0  0  0  0
   -3.5781   -2.2320    1.8296 H   0  0  0  0  0  0  0  0  0  0  0  0
   -3.4929   -2.8800    0.1734 H   0  0  0  0  0  0  0  0  0  0  0  0
   -1.5943   -2.3021    1.0020 C   0  0  0  0  0  0  0  0  0  0  0  0
   -0.6332   -2.9858    1.3178 O   0  0  0  0  0  0  0  0  0  0  0  0
   -1.4175   -1.0136    0.5421 N   0  0  0  0  0  0  0  0  0  0  0  0
   -2.2543   -0.4505    0.3996 H   0  0  0  0  0  0  0  0  0  0  0  0
   -0.1265   -0.3168    0.4120 C   0  0  1  0  0  0  0  0  0  0  0  0
    0.5962   -0.8290    1.0554 H   0  0  0  0  0  0  0  0  0  0  0  0
    0.4397   -0.3885   -1.0374 C   0  0  1  0  0  0  0  0  0  0  0  0
    1.4743   -0.0352   -0.9708 H   0  0  0  0  0  0  0  0  0  0  0  0
    0.4923   -1.8349   -1.5604 C   0  0  0  0  0  0  0  0  0  0  0  0
   -0.5135   -2.2133   -1.7662 H   0  0  0  0  0  0  0  0  0  0  0  0
    1.0783   -1.8947   -2.4815 H   0  0  0  0  0  0  0  0  0  0  0  0
    0.9676   -2.4886   -0.8229 H   0  0  0  0  0  0  0  0  0  0  0  0
   -0.2908    0.5454   -2.0341 C   0  0  0  0  0  0  0  0  0  0  0  0
   -1.2859    0.1450   -2.2529 H   0  0  0  0  0  0  0  0  0  0  0  0
   -0.4259    1.5384   -1.5988 H   0  0  0  0  0  0  0  0  0  0  0  0
    0.4872    0.7407   -3.3388 C   0  0  0  0  0  0  0  0  0  0  0  0
    0.5587   -0.1960   -3.8983 H   0  0  0  0  0  0  0  0  0  0  0  0
   -0.0243    1.4743   -3.9693 H   0  0  0  0  0  0  0  0  0  0  0  0
    1.4975    1.1072   -3.1328 H   0  0  0  0  0  0  0  0  0  0  0  0
   -0.2243    1.1215    0.9652 C   0  0  0  0  0  0  0  0  0  0  0  0
   -1.2581    1.7669    0.8254 O   0  0  0  0  0  0  0  0  0  0  0  0
    0.7718    1.6232    1.7826 N   0  0  0  0  0  0  0  0  0  0  0  0
    1.5804    1.0331    1.9563 H   0  0  0  0  0  0  0  0  0  0  0  0
    0.6811    2.9129    2.4561 C   0  0  0  0  0  0  0  0  0  0  0  0
   -0.1760    2.9304    3.1375 H   0  0  0  0  0  0  0  0  0  0  0  0
    1.5888    3.1006    3.0376 H   0  0  0  0  0  0  0  0  0  0  0  0
    0.5663    3.7194    1.7244 H   0  0  0  0  0  0  0  0  0  0  0  0
  1  2  1  0  0  0  0
  2  3  1  0  0  0  0
  2  4  1  0  0  0  0
  2  5  1  0  0  0  0
  5  6  2  0  0  0  0
  5  7  1  0  0  0  0
  7  8  1  0  0  0  0
  7  9  1  0  0  0  0
  9 10  1  0  0  0  0
  9 11  1  0  0  0  0
  9 24  1  0  0  0  0
 11 12  1  0  0  0  0
 11 13  1  0  0  0  0
 11 17  1  0  0  0  0
 13 14  1  0  0  0  0
 13 15  1  0  0  0  0
 13 16  1  0  0  0  0
 17 18  1  0  0  0  0
 17 19  1  0  0  0  0
 17 20  1  0  0  0  0
 20 21  1  0  0  0  0
 20 22  1  0  0  0  0
 20 23  1  0  0  0  0
 24 25  2  0  0  0  0
 24 26  1  0  0  0  0
 26 27  1  0  0  0  0
 26 28  1  0  0  0  0
 28 29  1  0  0  0  0
 28 30  1  0  0  0  0
 28 31  1  0  0  0  0
M  END
$$$$

  -OEChem-03222214053D

 31 30  0     1  0  0  0  0  0999 V2000
   -2.9806   -3.8738    1.5461 H   0  0  0  0  0  0  0  0  0  0  0  0
   -3.0116   -2.8573    1.1436 C   0  0  0  0  0  0  0  0  0  0  0  0
   -3.5993   -2.2294    1.8177 H   0  0  0  0  0  0  0  0  0  0  0  0
   -3.4953   -2.8805    0.1641 H   0  0  0  0  0  0  0  0  0  0  0  0
   -1.6056   -2.3026    1.0133 C   0  0  0  0  0  0  0  0  0  0  0  0
   -0.6487   -2.9857    1.3430 O   0  0  0  0  0  0  0  0  0  0  0  0
   -1.4218   -1.0146    0.5538 N   0  0  0  0  0  0  0  0  0  0  0  0
   -2.2562   -0.4533    0.3914 H   0  0  0  0  0  0  0  0  0  0  0  0
   -0.1266   -0.3247    0.4171 C   0  0  1  0  0  0  0  0  0  0  0  0
    0.5925   -0.8432    1.0595 H   0  0  0  0  0  0  0  0  0  0  0  0
    0.4497   -0.3933   -1.0353 C   0  0  1  0  0  0  0  0  0  0  0  0
    1.5358   -0.2923   -0.9352 H   0  0  0  0  0  0  0  0  0  0  0  0
    0.1993   -1.7600   -1.7017 C   0  0  0  0  0  0  0  0  0  0  0  0
   -0.8568   -1.8797   -1.9618 H   0  0  0  0  0  0  0  0  0  0  0  0
    0.7949   -1.8652   -2.6128 H   0  0  0  0  0  0  0  0  0  0  0  0
    0.4918   -2.5714   -1.0290 H   0  0  0  0  0  0  0  0  0  0  0  0
   -0.0118    0.7881   -1.9271 C   0  0  0  0  0  0  0  0  0  0  0  0
   -1.1059    0.8059   -1.9694 H   0  0  0  0  0  0  0  0  0  0  0  0
    0.3202    1.7333   -1.4868 H   0  0  0  0  0  0  0  0  0  0  0  0
    0.5421    0.7389   -3.3543 C   0  0  0  0  0  0  0  0  0  0  0  0
    0.1117   -0.0961   -3.9147 H   0  0  0  0  0  0  0  0  0  0  0  0
    0.2905    1.6642   -3.8815 H   0  0  0  0  0  0  0  0  0  0  0  0
    1.6313    0.6338   -3.3401 H   0  0  0  0  0  0  0  0  0  0  0  0
   -0.2282    1.1111    0.9764 C   0  0  0  0  0  0  0  0  0  0  0  0
   -1.2501    1.7681    0.8060 O   0  0  0  0  0  0  0  0  0  0  0  0
    0.7661    1.6155    1.7942 N   0  0  0  0  0  0  0  0  0  0  0  0
    1.5690    1.0220    1.9819 H   0  0  0  0  0  0  0  0  0  0  0  0
    0.6845    2.9189    2.4418 C   0  0  0  0  0  0  0  0  0  0  0  0
   -0.1878    2.9646    3.1021 H   0  0  0  0  0  0  0  0  0  0  0  0
    1.5816    3.1010    3.0414 H   0  0  0  0  0  0  0  0  0  0  0  0
    0.6021    3.7137    1.6930 H   0  0  0  0  0  0  0  0  0  0  0  0
  1  2  1  0  0  0  0
  2  3  1  0  0  0  0
  2  4  1  0  0  0  0
  2  5  1  0  0  0  0
  5  6  2  0  0  0  0
  5  7  1  0  0  0  0
  7  8  1  0  0  0  0
  7  9  1  0  0  0  0
  9 10  1  0  0  0  0
  9 11  1  0  0  0  0
  9 24  1  0  0  0  0
 11 12  1  0  0  0  0
 11 13  1  0  0  0  0
 11 17  1  0  0  0  0
 13 14  1  0  0  0  0
 13 15  1  0  0  0  0
 13 16  1  0  0  0  0
 17 18  1  0  0  0  0
 17 19  1  0  0  0  0
 17 20  1  0  0  0  0
 20 21  1  0  0  0  0
 20 22  1  0  0  0  0
 20 23  1  0  0  0  0
 24 25  2  0  0  0  0
 24 26  1  0  0  0  0
 26 27  1  0  0  0  0
 26 28  1  0  0  0  0
 28 29  1  0  0  0  0
 28 30  1  0  0  0  0
 28 31  1  0  0  0  0
M  END
$$$$

  -OEChem-03222214053D

 31 30  0     1  0  0  0  0  0999 V2000
   -2.9958   -3.8702    1.5562 H   0  0  0  0  0  0  0  0  0  0  0  0
   -3.0253   -2.8547    1.1512 C   0  0  0  0  0  0  0  0  0  0  0  0
   -3.6081   -2.2234    1.8263 H   0  0  0  0  0  0  0  0  0  0  0  0
   -3.5132   -2.8792    0.1738 H   0  0  0  0  0  0  0  0  0  0  0  0
   -1.6181   -2.3049    1.0137 C   0  0  0  0  0  0  0  0  0  0  0  0
   -0.6627   -2.9890    1.3454 O   0  0  0  0  0  0  0  0  0  0  0  0
   -1.4317   -1.0194    0.5481 N   0  0  0  0  0  0  0  0  0  0  0  0
   -2.2651   -0.4566    0.3862 H   0  0  0  0  0  0  0  0  0  0  0  0
   -0.1354   -0.3313    0.4120 C   0  0  1  0  0  0  0  0  0  0  0  0
    0.5786   -0.8490    1.0604 H   0  0  0  0  0  0  0  0  0  0  0  0
    0.4557   -0.4030   -1.0334 C   0  0  1  0  0  0  0  0  0  0  0  0
    1.5415   -0.2990   -0.9335 H   0  0  0  0  0  0  0  0  0  0  0  0
    0.2160   -1.7793   -1.6854 C   0  0  0  0  0  0  0  0  0  0  0  0
   -0.8398   -1.9128   -1.9400 H   0  0  0  0  0  0  0  0  0  0  0  0
    0.8101   -1.8874   -2.5973 H   0  0  0  0  0  0  0  0  0  0  0  0
    0.5189   -2.5804   -1.0052 H   0  0  0  0  0  0  0  0  0  0  0  0
   -0.0087    0.7837   -1.9198 C   0  0  0  0  0  0  0  0  0  0  0  0
   -1.0831    0.9397   -1.7762 H   0  0  0  0  0  0  0  0  0  0  0  0
    0.5064    1.6951   -1.5985 H   0  0  0  0  0  0  0  0  0  0  0  0
    0.2301    0.5984   -3.4217 C   0  0  0  0  0  0  0  0  0  0  0  0
   -0.3890   -0.2101   -3.8218 H   0  0  0  0  0  0  0  0  0  0  0  0
   -0.0303    1.5183   -3.9541 H   0  0  0  0  0  0  0  0  0  0  0  0
    1.2828    0.3722   -3.6173 H   0  0  0  0  0  0  0  0  0  0  0  0
   -0.2269    1.1101    0.9613 C   0  0  0  0  0  0  0  0  0  0  0  0
   -1.2477    1.7701    0.7972 O   0  0  0  0  0  0  0  0  0  0  0  0
    0.7713    1.6121    1.7760 N   0  0  0  0  0  0  0  0  0  0  0  0
    1.5713    1.0148    1.9641 H   0  0  0  0  0  0  0  0  0  0  0  0
    0.6952    2.9155    2.4247 C   0  0  0  0  0  0  0  0  0  0  0  0
   -0.1606    2.9545    3.1069 H   0  0  0  0  0  0  0  0  0  0  0  0
    1.6058    3.1054    3.0008 H   0  0  0  0  0  0  0  0  0  0  0  0
    0.5873    3.7094    1.6781 H   0  0  0  0  0  0  0  0  0  0  0  0
  1  2  1  0  0  0  0
  2  3  1  0  0  0  0
  2  4  1  0  0  0  0
  2  5  1  0  0  0  0
  5  6  2  0  0  0  0
  5  7  1  0  0  0  0
  7  8  1  0  0  0  0
  7  9  1  0  0  0  0
  9 10  1  0  0  0  0
  9 11  1  0  0  0  0
  9 24  1  0  0  0  0
 11 12  1  0  0  0  0
 11 13  1  0  0  0  0
 11 17  1  0  0  0  0
 13 14  1  0  0  0  0
 13 15  1  0  0  0  0
 13 16  1  0  0  0  0
 17 18  1  0  0  0  0
 17 19  1  0  0  0  0
 17 20  1  0  0  0  0
 20 21  1  0  0  0  0
 20 22  1  0  0  0  0
 20 23  1  0  0  0  0
 24 25  2  0  0  0  0
 24 26  1  0  0  0  0
 26 27  1  0  0  0  0
 26 28  1  0  0  0  0
 28 29  1  0  0  0  0
 28 30  1  0  0  0  0
 28 31  1  0  0  0  0
M  END
$$$$

  -OEChem-03222214053D

 31 30  0     1  0  0  0  0  0999 V2000
   -3.0041   -3.8694    1.5515 H   0  0  0  0  0  0  0  0  0  0  0  0
   -3.0357   -2.8526    1.1503 C   0  0  0  0  0  0  0  0  0  0  0  0
   -3.6180   -2.2244    1.8289 H   0  0  0  0  0  0  0  0  0  0  0  0
   -3.5256   -2.8744    0.1738 H   0  0  0  0  0  0  0  0  0  0  0  0
   -1.6295   -2.3003    1.0121 C   0  0  0  0  0  0  0  0  0  0  0  0
   -0.6724   -2.9849    1.3383 O   0  0  0  0  0  0  0  0  0  0  0  0
   -1.4466   -1.0125    0.5513 N   0  0  0  0  0  0  0  0  0  0  0  0
   -2.2818   -0.4509    0.3956 H   0  0  0  0  0  0  0  0  0  0  0  0
   -0.1527   -0.3210    0.4092 C   0  0  1  0  0  0  0  0  0  0  0  0
    0.5596   -0.8400    1.0587 H   0  0  0  0  0  0  0  0  0  0  0  0
    0.4461   -0.3988   -1.0330 C   0  0  1  0  0  0  0  0  0  0  0  0
    1.5301   -0.2822   -0.9273 H   0  0  0  0  0  0  0  0  0  0  0  0
    0.2372   -1.7931   -1.6589 C   0  0  0  0  0  0  0  0  0  0  0  0
   -0.8182   -1.9672   -1.8898 H   0  0  0  0  0  0  0  0  0  0  0  0
    0.8174   -1.8973   -2.5802 H   0  0  0  0  0  0  0  0  0  0  0  0
    0.5782   -2.5723   -0.9711 H   0  0  0  0  0  0  0  0  0  0  0  0
   -0.0171    0.7794   -1.9386 C   0  0  0  0  0  0  0  0  0  0  0  0
   -1.0214    1.0913   -1.6366 H   0  0  0  0  0  0  0  0  0  0  0  0
    0.6539    1.6312   -1.7863 H   0  0  0  0  0  0  0  0  0  0  0  0
   -0.1100    0.4740   -3.4378 C   0  0  0  0  0  0  0  0  0  0  0  0
   -0.8635   -0.2936   -3.6381 H   0  0  0  0  0  0  0  0  0  0  0  0
   -0.3972    1.3790   -3.9817 H   0  0  0  0  0  0  0  0  0  0  0  0
    0.8572    0.1359   -3.8220 H   0  0  0  0  0  0  0  0  0  0  0  0
   -0.2303    1.1200    0.9626 C   0  0  0  0  0  0  0  0  0  0  0  0
   -1.2571    1.7784    0.8337 O   0  0  0  0  0  0  0  0  0  0  0  0
    0.7803    1.6123    1.7680 N   0  0  0  0  0  0  0  0  0  0  0  0
    1.5821    1.0119    1.9378 H   0  0  0  0  0  0  0  0  0  0  0  0
    0.7140    2.9073    2.4346 C   0  0  0  0  0  0  0  0  0  0  0  0
   -0.1308    2.9376    3.1309 H   0  0  0  0  0  0  0  0  0  0  0  0
    1.6338    3.0900    2.9986 H   0  0  0  0  0  0  0  0  0  0  0  0
    0.5942    3.7109    1.7003 H   0  0  0  0  0  0  0  0  0  0  0  0
  1  2  1  0  0  0  0
  2  3  1  0  0  0  0
  2  4  1  0  0  0  0
  2  5  1  0  0  0  0
  5  6  2  0  0  0  0
  5  7  1  0  0  0  0
  7  8  1  0  0  0  0
  7  9  1  0  0  0  0
  9 10  1  0  0  0  0
  9 11  1  0  0  0  0
  9 24  1  0  0  0  0
 11 12  1  0  0  0  0
 11 13  1  0  0  0  0
 11 17  1  0  0  0  0
 13 14  1  0  0  0  0
 13 15  1  0  0  0  0
 13 16  1  0  0  0  0
 17 18  1  0  0  0  0
 17 19  1  0  0  0  0
 17 20  1  0  0  0  0
 20 21  1  0  0  0  0
 20 22  1  0  0  0  0
 20 23  1  0  0  0  0
 24 25  2  0  0  0  0
 24 26  1  0  0  0  0
 26 27  1  0  0  0  0
 26 28  1  0  0  0  0
 28 29  1  0  0  0  0
 28 30  1  0  0  0  0
 28 31  1  0  0  0  0
M  END
$$$$

  -OEChem-03222214053D

 31 30  0     1  0  0  0  0  0999 V2000
   -3.0057   -3.8651    1.5417 H   0  0  0  0  0  0  0  0  0  0  0  0
   -3.0421   -2.8452    1.1488 C   0  0  0  0  0  0  0  0  0  0  0  0
   -3.6223   -2.2241    1.8354 H   0  0  0  0  0  0  0  0  0  0  0  0
   -3.5370   -2.8603    0.1748 H   0  0  0  0  0  0  0  0  0  0  0  0
   -1.6384   -2.2881    1.0070 C   0  0  0  0  0  0  0  0  0  0  0  0
   -0.6780   -2.9750    1.3177 O   0  0  0  0  0  0  0  0  0  0  0  0
   -1.4617   -0.9949    0.5584 N   0  0  0  0  0  0  0  0  0  0  0  0
   -2.2995   -0.4325    0.4195 H   0  0  0  0  0  0  0  0  0  0  0  0
   -0.1712   -0.2995    0.4073 C   0  0  1  0  0  0  0  0  0  0  0  0
    0.5435   -0.8222    1.0513 H   0  0  0  0  0  0  0  0  0  0  0  0
    0.4223   -0.3859   -1.0367 C   0  0  1  0  0  0  0  0  0  0  0  0
    1.5026   -0.2468   -0.9204 H   0  0  0  0  0  0  0  0  0  0  0  0
    0.2633   -1.7983   -1.6359 C   0  0  0  0  0  0  0  0  0  0  0  0
   -0.7863   -2.0277   -1.8426 H   0  0  0  0  0  0  0  0  0  0  0  0
    0.8317   -1.8914   -2.5657 H   0  0  0  0  0  0  0  0  0  0  0  0
    0.6520   -2.5487   -0.9411 H   0  0  0  0  0  0  0  0  0  0  0  0
   -0.0339    0.7748   -1.9753 C   0  0  0  0  0  0  0  0  0  0  0  0
   -0.9002    1.2830   -1.5464 H   0  0  0  0  0  0  0  0  0  0  0  0
    0.7738    1.5107   -2.0445 H   0  0  0  0  0  0  0  0  0  0  0  0
   -0.4644    0.3724   -3.3909 C   0  0  0  0  0  0  0  0  0  0  0  0
   -1.3143   -0.3158   -3.3610 H   0  0  0  0  0  0  0  0  0  0  0  0
   -0.7692    1.2624   -3.9499 H   0  0  0  0  0  0  0  0  0  0  0  0
    0.3627   -0.0992   -3.9297 H   0  0  0  0  0  0  0  0  0  0  0  0
   -0.2356    1.1368    0.9756 C   0  0  0  0  0  0  0  0  0  0  0  0
   -1.2697    1.7912    0.8907 O   0  0  0  0  0  0  0  0  0  0  0  0
    0.7900    1.6159    1.7701 N   0  0  0  0  0  0  0  0  0  0  0  0
    1.5973    1.0152    1.9099 H   0  0  0  0  0  0  0  0  0  0  0  0
    0.7316    2.8930    2.4709 C   0  0  0  0  0  0  0  0  0  0  0  0
   -0.1025    2.9031    3.1804 H   0  0  0  0  0  0  0  0  0  0  0  0
    1.6594    3.0626    3.0257 H   0  0  0  0  0  0  0  0  0  0  0  0
    0.5995    3.7150    1.7594 H   0  0  0  0  0  0  0  0  0  0  0  0
  1  2  1  0  0  0  0
  2  3  1  0  0  0  0
  2  4  1  0  0  0  0
  2  5  1  0  0  0  0
  5  6  2  0  0  0  0
  5  7  1  0  0  0  0
  7  8  1  0  0  0  0
  7  9  1  0  0  0  0
  9 10  1  0  0  0  0
  9 11  1  0  0  0  0
  9 24  1  0  0  0  0
 11 12  1  0  0  0  0
 11 13  1  0  0  0  0
 11 17  1  0  0  0  0
 13 14  1  0  0  0  0
 13 15  1  0  0  0  0
 13 16  1  0  0  0  0
 17 18  1  0  0  0  0
 17 19  1  0  0  0  0
 17 20  1  0  0  0  0
 20 21  1  0  0  0  0
 20 22  1  0  0  0  0
 20 23  1  0  0  0  0
 24 25  2  0  0  0  0
 24 26  1  0  0  0  0
 26 27  1  0  0  0  0
 26 28  1  0  0  0  0
 28 29  1  0  0  0  0
 28 30  1  0  0  0  0
 28 31  1  0  0  0  0
M  END
$$$$

  -OEChem-03222214053D

 31 30  0     1  0  0  0  0  0999 V2000
   -3.0035   -3.8547    1.5316 H   0  0  0  0  0  0  0  0  0  0  0  0
   -3.0416   -2.8291    1.1541 C   0  0  0  0  0  0  0  0  0  0  0  0
   -3.6115   -2.2161    1.8566 H   0  0  0  0  0  0  0  0  0  0  0  0
   -3.5481   -2.8285    0.1860 H   0  0  0  0  0  0  0  0  0  0  0  0
   -1.6379   -2.2742    1.0036 C   0  0  0  0  0  0  0  0  0  0  0  0
   -0.6762   -2.9651    1.3018 O   0  0  0  0  0  0  0  0  0  0  0  0
   -1.4630   -0.9779    0.5642 N   0  0  0  0  0  0  0  0  0  0  0  0
   -2.3006   -0.4131    0.4346 H   0  0  0  0  0  0  0  0  0  0  0  0
   -0.1729   -0.2840    0.4085 C   0  0  1  0  0  0  0  0  0  0  0  0
    0.5468   -0.8104    1.0440 H   0  0  0  0  0  0  0  0  0  0  0  0
    0.4012   -0.3768   -1.0432 C   0  0  1  0  0  0  0  0  0  0  0  0
    1.4779   -0.2192   -0.9179 H   0  0  0  0  0  0  0  0  0  0  0  0
    0.2779   -1.7960   -1.6325 C   0  0  0  0  0  0  0  0  0  0  0  0
   -0.7658   -2.0613   -1.8247 H   0  0  0  0  0  0  0  0  0  0  0  0
    0.8373   -1.8719   -2.5693 H   0  0  0  0  0  0  0  0  0  0  0  0
    0.6986   -2.5298   -0.9387 H   0  0  0  0  0  0  0  0  0  0  0  0
   -0.0428    0.7689   -2.0082 C   0  0  0  0  0  0  0  0  0  0  0  0
   -0.6799    1.4916   -1.4975 H   0  0  0  0  0  0  0  0  0  0  0  0
    0.8511    1.3110   -2.3339 H   0  0  0  0  0  0  0  0  0  0  0  0
   -0.8083    0.3247   -3.2608 C   0  0  0  0  0  0  0  0  0  0  0  0
   -1.7130   -0.2256   -2.9849 H   0  0  0  0  0  0  0  0  0  0  0  0
   -1.1073    1.2030   -3.8412 H   0  0  0  0  0  0  0  0  0  0  0  0
   -0.1857   -0.3059   -3.9020 H   0  0  0  0  0  0  0  0  0  0  0  0
   -0.2356    1.1463    0.9903 C   0  0  0  0  0  0  0  0  0  0  0  0
   -1.2731    1.7973    0.9209 O   0  0  0  0  0  0  0  0  0  0  0  0
    0.7949    1.6189    1.7823 N   0  0  0  0  0  0  0  0  0  0  0  0
    1.5992    1.0134    1.9182 H   0  0  0  0  0  0  0  0  0  0  0  0
    0.7311    2.8798    2.5112 C   0  0  0  0  0  0  0  0  0  0  0  0
   -0.0842    2.8590    3.2422 H   0  0  0  0  0  0  0  0  0  0  0  0
    1.6699    3.0563    3.0448 H   0  0  0  0  0  0  0  0  0  0  0  0
    0.5649    3.7134    1.8208 H   0  0  0  0  0  0  0  0  0  0  0  0
  1  2  1  0  0  0  0
  2  3  1  0  0  0  0
  2  4  1  0  0  0  0
  2  5  1  0  0  0  0
  5  6  2  0  0  0  0
  5  7  1  0  0  0  0
  7  8  1  0  0  0  0
  7  9  1  0  0  0  0
  9 10  1  0  0  0  0
  9 11  1  0  0  0  0
  9 24  1  0  0  0  0
 11 12  1  0  0  0  0
 11 13  1  0  0  0  0
 11 17  1  0  0  0  0
 13 14  1  0  0  0  0
 13 15  1  0  0  0  0
 13 16  1  0  0  0  0
 17 18  1  0  0  0  0
 17 19  1  0  0  0  0
 17 20  1  0  0  0  0
 20 21  1  0  0  0  0
 20 22  1  0  0  0  0
 20 23  1  0  0  0  0
 24 25  2  0  0  0  0
 24 26  1  0  0  0  0
 26 27  1  0  0  0  0
 26 28  1  0  0  0  0
 28 29  1  0  0  0  0
 28 30  1  0  0  0  0
 28 31  1  0  0  0  0
M  END
$$$$

  -OEChem-03222214053D

 31 30  0     1  0  0  0  0  0999 V2000
   -3.0021   -3.8487    1.5441 H   0  0  0  0  0  0  0  0  0  0  0  0
   -3.0379   -2.8264    1.1574 C   0  0  0  0  0  0  0  0  0  0  0  0
   -3.6100   -2.2068    1.8523 H   0  0  0  0  0  0  0  0  0  0  0  0
   -3.5409   -2.8338    0.1875 H   0  0  0  0  0  0  0  0  0  0  0  0
   -1.6330   -2.2740    1.0070 C   0  0  0  0  0  0  0  0  0  0  0  0
   -0.6717   -2.9694    1.2955 O   0  0  0  0  0  0  0  0  0  0  0  0
   -1.4545   -0.9779    0.5690 N   0  0  0  0  0  0  0  0  0  0  0  0
   -2.2900   -0.4091    0.4430 H   0  0  0  0  0  0  0  0  0  0  0  0
   -0.1617   -0.2883    0.4170 C   0  0  1  0  0  0  0  0  0  0  0  0
    0.5602   -0.8172    1.0478 H   0  0  0  0  0  0  0  0  0  0  0  0
    0.3959   -0.3795   -1.0405 C   0  0  1  0  0  0  0  0  0  0  0  0
    1.4724   -0.2196   -0.9159 H   0  0  0  0  0  0  0  0  0  0  0  0
    0.2726   -1.7904   -1.6468 C   0  0  0  0  0  0  0  0  0  0  0  0
   -0.7730   -2.0696   -1.8059 H   0  0  0  0  0  0  0  0  0  0  0  0
    0.7955   -1.8376   -2.6068 H   0  0  0  0  0  0  0  0  0  0  0  0
    0.7291   -2.5288   -0.9808 H   0  0  0  0  0  0  0  0  0  0  0  0
   -0.0401    0.7643   -2.0064 C   0  0  0  0  0  0  0  0  0  0  0  0
   -0.3957    1.6436   -1.4684 H   0  0  0  0  0  0  0  0  0  0  0  0
    0.8439    1.0852   -2.5671 H   0  0  0  0  0  0  0  0  0  0  0  0
   -1.1071    0.3664   -3.0326 C   0  0  0  0  0  0  0  0  0  0  0  0
   -1.9949   -0.0245   -2.5257 H   0  0  0  0  0  0  0  0  0  0  0  0
   -1.4033    1.2423   -3.6179 H   0  0  0  0  0  0  0  0  0  0  0  0
   -0.7295   -0.3907   -3.7261 H   0  0  0  0  0  0  0  0  0  0  0  0
   -0.2313    1.1396    1.0021 C   0  0  0  0  0  0  0  0  0  0  0  0
   -1.2659    1.7927    0.9119 O   0  0  0  0  0  0  0  0  0  0  0  0
    0.7916    1.6167    1.8011 N   0  0  0  0  0  0  0  0  0  0  0  0
    1.5969    1.0143    1.9445 H   0  0  0  0  0  0  0  0  0  0  0  0
    0.7242    2.8865    2.5143 C   0  0  0  0  0  0  0  0  0  0  0  0
   -0.1221    2.8913    3.2093 H   0  0  0  0  0  0  0  0  0  0  0  0
    1.6424    3.0480    3.0872 H   0  0  0  0  0  0  0  0  0  0  0  0
    0.6063    3.7161    1.8093 H   0  0  0  0  0  0  0  0  0  0  0  0
  1  2  1  0  0  0  0
  2  3  1  0  0  0  0
  2  4  1  0  0  0  0
  2  5  1  0  0  0  0
  5  6  2  0  0  0  0
  5  7  1  0  0  0  0
  7  8  1  0  0  0  0
  7  9  1  0  0  0  0
  9 10  1  0  0  0  0
  9 11  1  0  0  0  0
  9 24  1  0  0  0  0
 11 12  1  0  0  0  0
 11 13  1  0  0  0  0
 11 17  1  0  0  0  0
 13 14  1  0  0  0  0
 13 15  1  0  0  0  0
 13 16  1  0  0  0  0
 17 18  1  0  0  0  0
 17 19  1  0  0  0  0
 17 20  1  0  0  0  0
 20 21  1  0  0  0  0
 20 22  1  0  0  0  0
 20 23  1  0  0  0  0
 24 25  2  0  0  0  0
 24 26  1  0  0  0  0
 26 27  1  0  0  0  0
 26 28  1  0  0  0  0
 28 29  1  0  0  0  0
 28 30  1  0  0  0  0
 28 31  1  0  0  0  0
M  END
$$$$

  -OEChem-03222214053D

 31 30  0     1  0  0  0  0  0999 V2000
   -2.9951   -3.8538    1.5614 H   0  0  0  0  0  0  0  0  0  0  0  0
   -3.0306   -2.8330    1.1707 C   0  0  0  0  0  0  0  0  0  0  0  0
   -3.6008   -2.2098    1.8639 H   0  0  0  0  0  0  0  0  0  0  0  0
   -3.5346   -2.8436    0.2013 H   0  0  0  0  0  0  0  0  0  0  0  0
   -1.6256   -2.2829    1.0165 C   0  0  0  0  0  0  0  0  0  0  0  0
   -0.6641   -2.9777    1.3062 O   0  0  0  0  0  0  0  0  0  0  0  0
   -1.4460   -0.9897    0.5710 N   0  0  0  0  0  0  0  0  0  0  0  0
   -2.2800   -0.4199    0.4389 H   0  0  0  0  0  0  0  0  0  0  0  0
   -0.1510   -0.3042    0.4246 C   0  0  1  0  0  0  0  0  0  0  0  0
    0.5707   -0.8313    1.0572 H   0  0  0  0  0  0  0  0  0  0  0  0
    0.4060   -0.3877   -1.0328 C   0  0  1  0  0  0  0  0  0  0  0  0
    1.4851   -0.2424   -0.9132 H   0  0  0  0  0  0  0  0  0  0  0  0
    0.2513   -1.7824   -1.6670 C   0  0  0  0  0  0  0  0  0  0  0  0
   -0.8007   -2.0496   -1.8017 H   0  0  0  0  0  0  0  0  0  0  0  0
    0.7424   -1.8093   -2.6446 H   0  0  0  0  0  0  0  0  0  0  0  0
    0.7201   -2.5401   -1.0316 H   0  0  0  0  0  0  0  0  0  0  0  0
   -0.0250    0.7628   -1.9850 C   0  0  0  0  0  0  0  0  0  0  0  0
   -0.1106    1.7161   -1.4597 H   0  0  0  0  0  0  0  0  0  0  0  0
    0.7675    0.8963   -2.7285 H   0  0  0  0  0  0  0  0  0  0  0  0
   -1.3234    0.4895   -2.7512 C   0  0  0  0  0  0  0  0  0  0  0  0
   -2.1377    0.2690   -2.0544 H   0  0  0  0  0  0  0  0  0  0  0  0
   -1.6003    1.3713   -3.3368 H   0  0  0  0  0  0  0  0  0  0  0  0
   -1.2076   -0.3517   -3.4407 H   0  0  0  0  0  0  0  0  0  0  0  0
   -0.2326    1.1253    1.0018 C   0  0  0  0  0  0  0  0  0  0  0  0
   -1.2605    1.7831    0.8757 O   0  0  0  0  0  0  0  0  0  0  0  0
    0.7795    1.6108    1.8093 N   0  0  0  0  0  0  0  0  0  0  0  0
    1.5836    1.0109    1.9685 H   0  0  0  0  0  0  0  0  0  0  0  0
    0.7106    2.8957    2.4945 C   0  0  0  0  0  0  0  0  0  0  0  0
   -0.1472    2.9216    3.1750 H   0  0  0  0  0  0  0  0  0  0  0  0
    1.6207    3.0619    3.0790 H   0  0  0  0  0  0  0  0  0  0  0  0
    0.6110    3.7112    1.7705 H   0  0  0  0  0  0  0  0  0  0  0  0
  1  2  1  0  0  0  0
  2  3  1  0  0  0  0
  2  4  1  0  0  0  0
  2  5  1  0  0  0  0
  5  6  2  0  0  0  0
  5  7  1  0  0  0  0
  7  8  1  0  0  0  0
  7  9  1  0  0  0  0
  9 10  1  0  0  0  0
  9 11  1  0  0  0  0
  9 24  1  0  0  0  0
 11 12  1  0  0  0  0
 11 13  1  0  0  0  0
 11 17  1  0  0  0  0
 13 14  1  0  0  0  0
 13 15  1  0  0  0  0
 13 16  1  0  0  0  0
 17 18  1  0  0  0  0
 17 19  1  0  0  0  0
 17 20  1  0  0  0  0
 20 21  1  0  0  0  0
 20 22  1  0  0  0  0
 20 23  1  0  0  0  0
 24 25  2  0  0  0  0
 24 26  1  0  0  0  0
 26 27  1  0  0  0  0
 26 28  1  0  0  0  0
 28 29  1  0  0  0  0
 28 30  1  0  0  0  0
 28 31  1  0  0  0  0
M  END
$$$$

  -OEChem-03222214053D

 31 30  0     1  0  0  0  0  0999 V2000
   -2.9862   -3.8636    1.5903 H   0  0  0  0  0  0  0  0  0  0  0  0
   -3.0240   -2.8444    1.1956 C   0  0  0  0  0  0  0  0  0  0  0  0
   -3.5861   -2.2175    1.8920 H   0  0  0  0  0  0  0  0  0  0  0  0
   -3.5380   -2.8582    0.2315 H   0  0  0  0  0  0  0  0  0  0  0  0
   -1.6196   -2.2972    1.0250 C   0  0  0  0  0  0  0  0  0  0  0  0
   -0.6563   -2.9919    1.3095 O   0  0  0  0  0  0  0  0  0  0  0  0
   -1.4425   -1.0064    0.5716 N   0  0  0  0  0  0  0  0  0  0  0  0
   -2.2769   -0.4363    0.4444 H   0  0  0  0  0  0  0  0  0  0  0  0
   -0.1480   -0.3187    0.4275 C   0  0  1  0  0  0  0  0  0  0  0  0
    0.5727   -0.8412    1.0648 H   0  0  0  0  0  0  0  0  0  0  0  0
    0.4206   -0.3907   -1.0254 C   0  0  1  0  0  0  0  0  0  0  0  0
    1.5022   -0.2637   -0.9094 H   0  0  0  0  0  0  0  0  0  0  0  0
    0.2311   -1.7682   -1.6859 C   0  0  0  0  0  0  0  0  0  0  0  0
   -0.8271   -2.0116   -1.8150 H   0  0  0  0  0  0  0  0  0  0  0  0
    0.7096   -1.7846   -2.6699 H   0  0  0  0  0  0  0  0  0  0  0  0
    0.6909   -2.5479   -1.0709 H   0  0  0  0  0  0  0  0  0  0  0  0
   -0.0083    0.7648   -1.9660 C   0  0  0  0  0  0  0  0  0  0  0  0
    0.1424    1.7347   -1.4835 H   0  0  0  0  0  0  0  0  0  0  0  0
    0.6468    0.7527   -2.8432 H   0  0  0  0  0  0  0  0  0  0  0  0
   -1.4553    0.6640   -2.4613 C   0  0  0  0  0  0  0  0  0  0  0  0
   -2.1517    0.6347   -1.6188 H   0  0  0  0  0  0  0  0  0  0  0  0
   -1.6967    1.5377   -3.0740 H   0  0  0  0  0  0  0  0  0  0  0  0
   -1.6024   -0.2304   -3.0731 H   0  0  0  0  0  0  0  0  0  0  0  0
   -0.2356    1.1146    0.9944 C   0  0  0  0  0  0  0  0  0  0  0  0
   -1.2602    1.7739    0.8522 O   0  0  0  0  0  0  0  0  0  0  0  0
    0.7714    1.6070    1.8040 N   0  0  0  0  0  0  0  0  0  0  0  0
    1.5740    1.0080    1.9743 H   0  0  0  0  0  0  0  0  0  0  0  0
    0.6976    2.8974    2.4782 C   0  0  0  0  0  0  0  0  0  0  0  0
   -0.1533    2.9215    3.1672 H   0  0  0  0  0  0  0  0  0  0  0  0
    1.6121    3.0775    3.0515 H   0  0  0  0  0  0  0  0  0  0  0  0
    0.5831    3.7053    1.7480 H   0  0  0  0  0  0  0  0  0  0  0  0
  1  2  1  0  0  0  0
  2  3  1  0  0  0  0
  2  4  1  0  0  0  0
  2  5  1  0  0  0  0
  5  6  2  0  0  0  0
  5  7  1  0  0  0  0
  7  8  1  0  0  0  0
  7  9  1  0  0  0  0
  9 10  1  0  0  0  0
  9 11  1  0  0  0  0
  9 24  1  0  0  0  0
 11 12  1  0  0  0  0
 11 13  1  0  0  0  0
 11 17  1  0  0  0  0
 13 14  1  0  0  0  0
 13 15  1  0  0  0  0
 13 16  1  0  0  0  0
 17 18  1  0  0  0  0
 17 19  1  0  0  0  0
 17 20  1  0  0  0  0
 20 21  1  0  0  0  0
 20 22  1  0  0  0  0
 20 23  1  0  0  0  0
 24 25  2  0  0  0  0
 24 26  1  0  0  0  0
 26 27  1  0  0  0  0
 26 28  1  0  0  0  0
 28 29  1  0  0  0  0
 28 30  1  0  0  0  0
 28 31  1  0  0  0  0
M  END
$$$$

  -OEChem-03222214053D

 31 30  0     1  0  0  0  0  0999 V2000
   -2.9598   -3.8998    1.5737 H   0  0  0  0  0  0  0  0  0  0  0  0
   -3.0146   -2.8779    1.1879 C   0  0  0  0  0  0  0  0  0  0  0  0
   -3.5951   -2.2688    1.8851 H   0  0  0  0  0  0  0  0  0  0  0  0
   -3.5200   -2.8932    0.2193 H   0  0  0  0  0  0  0  0  0  0  0  0
   -1.6201   -2.3016    1.0333 C   0  0  0  0  0  0  0  0  0  0  0  0
   -0.6460   -2.9814    1.3162 O   0  0  0  0  0  0  0  0  0  0  0  0
   -1.4666   -1.0028    0.5939 N   0  0  0  0  0  0  0  0  0  0  0  0
   -2.3126   -0.4508    0.4653 H   0  0  0  0  0  0  0  0  0  0  0  0
   -0.1859   -0.2917    0.4378 C   0  0  1  0  0  0  0  0  0  0  0  0
    0.5347   -0.8131    1.0762 H   0  0  0  0  0  0  0  0  0  0  0  0
    0.4119   -0.3642   -1.0030 C   0  0  1  0  0  0  0  0  0  0  0  0
    1.4923   -0.2342   -0.8792 H   0  0  0  0  0  0  0  0  0  0  0  0
    0.2214   -1.7419   -1.6617 C   0  0  0  0  0  0  0  0  0  0  0  0
   -0.8364   -1.9642   -1.8277 H   0  0  0  0  0  0  0  0  0  0  0  0
    0.7336   -1.7749   -2.6282 H   0  0  0  0  0  0  0  0  0  0  0  0
    0.6458   -2.5265   -1.0281 H   0  0  0  0  0  0  0  0  0  0  0  0
   -0.0230    0.7625   -1.9725 C   0  0  0  0  0  0  0  0  0  0  0  0
    0.3086    1.7271   -1.5754 H   0  0  0  0  0  0  0  0  0  0  0  0
    0.4868    0.6242   -2.9316 H   0  0  0  0  0  0  0  0  0  0  0  0
   -1.5345    0.8377   -2.2297 C   0  0  0  0  0  0  0  0  0  0  0  0
   -2.0990    0.9755   -1.3062 H   0  0  0  0  0  0  0  0  0  0  0  0
   -1.7533    1.6828   -2.8892 H   0  0  0  0  0  0  0  0  0  0  0  0
   -1.8877   -0.0750   -2.7174 H   0  0  0  0  0  0  0  0  0  0  0  0
   -0.2452    1.1410    1.0132 C   0  0  0  0  0  0  0  0  0  0  0  0
   -1.2721    1.8059    0.9375 O   0  0  0  0  0  0  0  0  0  0  0  0
    0.7920    1.6128    1.7970 N   0  0  0  0  0  0  0  0  0  0  0  0
    1.5945    1.0046    1.9311 H   0  0  0  0  0  0  0  0  0  0  0  0
    0.7535    2.8931    2.4932 C   0  0  0  0  0  0  0  0  0  0  0  0
   -0.0806    2.9196    3.2023 H   0  0  0  0  0  0  0  0  0  0  0  0
    1.6837    3.0501    3.0477 H   0  0  0  0  0  0  0  0  0  0  0  0
    0.6346    3.7137    1.7781 H   0  0  0  0  0  0  0  0  0  0  0  0
  1  2  1  0  0  0  0
  2  3  1  0  0  0  0
  2  4  1  0  0  0  0
  2  5  1  0  0  0  0
  5  6  2  0  0  0  0
  5  7  1  0  0  0  0
  7  8  1  0  0  0  0
  7  9  1  0  0  0  0
  9 10  1  0  0  0  0
  9 11  1  0  0  0  0
  9 24  1  0  0  0  0
 11 12  1  0  0  0  0
 11 13  1  0  0  0  0
 11 17  1  0  0  0  0
 13 14  1  0  0  0  0
 13 15  1  0  0  0  0
 13 16  1  0  0  0  0
 17 18  1  0  0  0  0
 17 19  1  0  0  0  0
 17 20  1  0  0  0  0
 20 21  1  0  0  0  0
 20 22  1  0  0  0  0
 20 23  1  0  0  0  0
 24 25  2  0  0  0  0
 24 26  1  0  0  0  0
 26 27  1  0  0  0  0
 26 28  1  0  0  0  0
 28 29  1  0  0  0  0
 28 30  1  0  0  0  0
 28 31  1  0  0  0  0
M  END
$$$$

  -OEChem-03222214053D

 31 30  0     1  0  0  0  0  0999 V2000
   -2.9280   -3.9217    1.5547 H   0  0  0  0  0  0  0  0  0  0  0  0
   -3.0027   -2.8877    1.2064 C   0  0  0  0  0  0  0  0  0  0  0  0
   -3.5665   -2.3083    1.9415 H   0  0  0  0  0  0  0  0  0  0  0  0
   -3.5377   -2.8748    0.2538 H   0  0  0  0  0  0  0  0  0  0  0  0
   -1.6182   -2.2933    1.0304 C   0  0  0  0  0  0  0  0  0  0  0  0
   -0.6323   -2.9670    1.2859 O   0  0  0  0  0  0  0  0  0  0  0  0
   -1.4892   -0.9824    0.6181 N   0  0  0  0  0  0  0  0  0  0  0  0
   -2.3457   -0.4387    0.5308 H   0  0  0  0  0  0  0  0  0  0  0  0
   -0.2248   -0.2466    0.4348 C   0  0  1  0  0  0  0  0  0  0  0  0
    0.4987   -0.7692    1.0692 H   0  0  0  0  0  0  0  0  0  0  0  0
    0.3993   -0.3263   -0.9963 C   0  0  1  0  0  0  0  0  0  0  0  0
    1.4769   -0.1854   -0.8598 H   0  0  0  0  0  0  0  0  0  0  0  0
    0.2273   -1.7183   -1.6301 C   0  0  0  0  0  0  0  0  0  0  0  0
   -0.8266   -1.9358   -1.8267 H   0  0  0  0  0  0  0  0  0  0  0  0
    0.7713   -1.7771   -2.5777 H   0  0  0  0  0  0  0  0  0  0  0  0
    0.6296   -2.4911   -0.9690 H   0  0  0  0  0  0  0  0  0  0  0  0
   -0.0289    0.7517   -2.0260 C   0  0  0  0  0  0  0  0  0  0  0  0
    0.4830    1.6882   -1.7811 H   0  0  0  0  0  0  0  0  0  0  0  0
    0.3148    0.4548   -3.0223 H   0  0  0  0  0  0  0  0  0  0  0  0
   -1.5324    1.0484   -2.0957 C   0  0  0  0  0  0  0  0  0  0  0  0
   -1.8971    1.5632   -1.2099 H   0  0  0  0  0  0  0  0  0  0  0  0
   -1.7376    1.6920   -2.9563 H   0  0  0  0  0  0  0  0  0  0  0  0
   -2.0989    0.1210   -2.2192 H   0  0  0  0  0  0  0  0  0  0  0  0
   -0.2583    1.1761    1.0390 C   0  0  0  0  0  0  0  0  0  0  0  0
   -1.3103    1.7994    1.1195 O   0  0  0  0  0  0  0  0  0  0  0  0
    0.8167    1.6259    1.7851 N   0  0  0  0  0  0  0  0  0  0  0  0
    1.6359    1.0274    1.8347 H   0  0  0  0  0  0  0  0  0  0  0  0
    0.7879    2.8458    2.5837 C   0  0  0  0  0  0  0  0  0  0  0  0
    0.0409    2.7648    3.3804 H   0  0  0  0  0  0  0  0  0  0  0  0
    1.7658    3.0212    3.0422 H   0  0  0  0  0  0  0  0  0  0  0  0
    0.5420    3.7089    1.9561 H   0  0  0  0  0  0  0  0  0  0  0  0
  1  2  1  0  0  0  0
  2  3  1  0  0  0  0
  2  4  1  0  0  0  0
  2  5  1  0  0  0  0
  5  6  2  0  0  0  0
  5  7  1  0  0  0  0
  7  8  1  0  0  0  0
  7  9  1  0  0  0  0
  9 10  1  0  0  0  0
  9 11  1  0  0  0  0
  9 24  1  0  0  0  0
 11 12  1  0  0  0  0
 11 13  1  0  0  0  0
 11 17  1  0  0  0  0
 13 14  1  0  0  0  0
 13 15  1  0  0  0  0
 13 16  1  0  0  0  0
 17 18  1  0  0  0  0
 17 19  1  0  0  0  0
 17 20  1  0  0  0  0
 20 21  1  0  0  0  0
 20 22  1  0  0  0  0
 20 23  1  0  0  0  0
 24 25  2  0  0  0  0
 24 26  1  0  0  0  0
 26 27  1  0  0  0  0
 26 28  1  0  0  0  0
 28 29  1  0  0  0  0
 28 30  1  0  0  0  0
 28 31  1  0  0  0  0
M  END
$$$$

  -OEChem-03222214053D

 31 30  0     1  0  0  0  0  0999 V2000
   -2.8963   -3.9034    1.6630 H   0  0  0  0  0  0  0  0  0  0  0  0
   -2.9763   -2.8788    1.2892 C   0  0  0  0  0  0  0  0  0  0  0  0
   -3.5359   -2.2821    2.0137 H   0  0  0  0  0  0  0  0  0  0  0  0
   -3.5182   -2.8910    0.3406 H   0  0  0  0  0  0  0  0  0  0  0  0
   -1.5948   -2.2855    1.0878 C   0  0  0  0  0  0  0  0  0  0  0  0
   -0.6053   -2.9491    1.3554 O   0  0  0  0  0  0  0  0  0  0  0  0
   -1.4740   -0.9836    0.6453 N   0  0  0  0  0  0  0  0  0  0  0  0
   -2.3324   -0.4408    0.5701 H   0  0  0  0  0  0  0  0  0  0  0  0
   -0.2145   -0.2418    0.4480 C   0  0  1  0  0  0  0  0  0  0  0  0
    0.5131   -0.7404    1.0967 H   0  0  0  0  0  0  0  0  0  0  0  0
    0.4159   -0.3456   -0.9824 C   0  0  1  0  0  0  0  0  0  0  0  0
    1.4923   -0.2022   -0.8382 H   0  0  0  0  0  0  0  0  0  0  0  0
    0.2537   -1.7580   -1.5727 C   0  0  0  0  0  0  0  0  0  0  0  0
   -0.7977   -1.9751   -1.7844 H   0  0  0  0  0  0  0  0  0  0  0  0
    0.8185   -1.8527   -2.5052 H   0  0  0  0  0  0  0  0  0  0  0  0
    0.6394   -2.5099   -0.8789 H   0  0  0  0  0  0  0  0  0  0  0  0
    0.0093    0.6929   -2.0688 C   0  0  0  0  0  0  0  0  0  0  0  0
    0.7121    1.5313   -2.0219 H   0  0  0  0  0  0  0  0  0  0  0  0
    0.1303    0.2423   -3.0593 H   0  0  0  0  0  0  0  0  0  0  0  0
   -1.4021    1.2809   -1.9877 C   0  0  0  0  0  0  0  0  0  0  0  0
   -1.7029    1.6449   -2.9748 H   0  0  0  0  0  0  0  0  0  0  0  0
   -1.4389    2.1329   -1.3077 H   0  0  0  0  0  0  0  0  0  0  0  0
   -2.1243    0.5241   -1.6682 H   0  0  0  0  0  0  0  0  0  0  0  0
   -0.2875    1.1885    1.0268 C   0  0  0  0  0  0  0  0  0  0  0  0
   -1.3658    1.7661    1.1131 O   0  0  0  0  0  0  0  0  0  0  0  0
    0.7690    1.6781    1.7743 N   0  0  0  0  0  0  0  0  0  0  0  0
    1.6095    1.1100    1.8258 H   0  0  0  0  0  0  0  0  0  0  0  0
    0.6938    2.8962    2.5727 C   0  0  0  0  0  0  0  0  0  0  0  0
   -0.0596    2.7923    3.3606 H   0  0  0  0  0  0  0  0  0  0  0  0
    1.6604    3.1002    3.0432 H   0  0  0  0  0  0  0  0  0  0  0  0
    0.4296    3.7519    1.9424 H   0  0  0  0  0  0  0  0  0  0  0  0
  1  2  1  0  0  0  0
  2  3  1  0  0  0  0
  2  4  1  0  0  0  0
  2  5  1  0  0  0  0
  5  6  2  0  0  0  0
  5  7  1  0  0  0  0
  7  8  1  0  0  0  0
  7  9  1  0  0  0  0
  9 10  1  0  0  0  0
  9 11  1  0  0  0  0
  9 24  1  0  0  0  0
 11 12  1  0  0  0  0
 11 13  1  0  0  0  0
 11 17  1  0  0  0  0
 13 14  1  0  0  0  0
 13 15  1  0  0  0  0
 13 16  1  0  0  0  0
 17 18  1  0  0  0  0
 17 19  1  0  0  0  0
 17 20  1  0  0  0  0
 20 21  1  0  0  0  0
 20 22  1  0  0  0  0
 20 23  1  0  0  0  0
 24 25  2  0  0  0  0
 24 26  1  0  0  0  0
 26 27  1  0  0  0  0
 26 28  1  0  0  0  0
 28 29  1  0  0  0  0
 28 30  1  0  0  0  0
 28 31  1  0  0  0  0
M  END
$$$$

  -OEChem-03222214053D

 31 30  0     1  0  0  0  0  0999 V2000
   -3.0752   -3.8877    1.3971 H   0  0  0  0  0  0  0  0  0  0  0  0
   -3.1100   -2.8510    1.0506 C   0  0  0  0  0  0  0  0  0  0  0  0
   -3.7106   -2.2655    1.7511 H   0  0  0  0  0  0  0  0  0  0  0  0
   -3.5815   -2.8244    0.0653 H   0  0  0  0  0  0  0  0  0  0  0  0
   -1.7071   -2.2796    0.9681 C   0  0  0  0  0  0  0  0  0  0  0  0
   -0.7529   -2.9685    1.2931 O   0  0  0  0  0  0  0  0  0  0  0  0
   -1.5308   -0.9684    0.5745 N   0  0  0  0  0  0  0  0  0  0  0  0
   -2.3720   -0.4074    0.4517 H   0  0  0  0  0  0  0  0  0  0  0  0
   -0.2480   -0.2464    0.4837 C   0  0  1  0  0  0  0  0  0  0  0  0
    0.4231   -0.7739    1.1694 H   0  0  0  0  0  0  0  0  0  0  0  0
    0.4768   -0.3444   -0.9042 C   0  0  1  0  0  0  0  0  0  0  0  0
    1.5373   -0.2044   -0.6680 H   0  0  0  0  0  0  0  0  0  0  0  0
    0.3741   -1.7571   -1.5072 C   0  0  0  0  0  0  0  0  0  0  0  0
   -0.6565   -1.9858   -1.7953 H   0  0  0  0  0  0  0  0  0  0  0  0
    1.0070   -1.8412   -2.3962 H   0  0  0  0  0  0  0  0  0  0  0  0
    0.7171   -2.5068   -0.7888 H   0  0  0  0  0  0  0  0  0  0  0  0
    0.1864    0.7025   -2.0262 C   0  0  0  0  0  0  0  0  0  0  0  0
    1.0574    1.3605   -2.1127 H   0  0  0  0  0  0  0  0  0  0  0  0
    0.0982    0.1808   -2.9847 H   0  0  0  0  0  0  0  0  0  0  0  0
   -1.0462    1.5973   -1.8939 C   0  0  0  0  0  0  0  0  0  0  0  0
   -1.2977    2.0212   -2.8708 H   0  0  0  0  0  0  0  0  0  0  0  0
   -0.8522    2.4340   -1.2191 H   0  0  0  0  0  0  0  0  0  0  0  0
   -1.9091    1.0264   -1.5384 H   0  0  0  0  0  0  0  0  0  0  0  0
   -0.3396    1.1664    1.1010 C   0  0  0  0  0  0  0  0  0  0  0  0
   -1.4143    1.7576    1.1309 O   0  0  0  0  0  0  0  0  0  0  0  0
    0.6696    1.6169    1.9333 N   0  0  0  0  0  0  0  0  0  0  0  0
    1.4998    1.0381    2.0203 H   0  0  0  0  0  0  0  0  0  0  0  0
    0.5604    2.8186    2.7519 C   0  0  0  0  0  0  0  0  0  0  0  0
   -0.2507    2.7142    3.4801 H   0  0  0  0  0  0  0  0  0  0  0  0
    1.4938    2.9921    3.2959 H   0  0  0  0  0  0  0  0  0  0  0  0
    0.3598    3.6925    2.1233 H   0  0  0  0  0  0  0  0  0  0  0  0
  1  2  1  0  0  0  0
  2  3  1  0  0  0  0
  2  4  1  0  0  0  0
  2  5  1  0  0  0  0
  5  6  2  0  0  0  0
  5  7  1  0  0  0  0
  7  8  1  0  0  0  0
  7  9  1  0  0  0  0
  9 10  1  0  0  0  0
  9 11  1  0  0  0  0
  9 24  1  0  0  0  0
 11 12  1  0  0  0  0
 11 13  1  0  0  0  0
 11 17  1  0  0  0  0
 13 14  1  0  0  0  0
 13 15  1  0  0  0  0
 13 16  1  0  0  0  0
 17 18  1  0  0  0  0
 17 19  1  0  0  0  0
 17 20  1  0  0  0  0
 20 21  1  0  0  0  0
 20 22  1  0  0  0  0
 20 23  1  0  0  0  0
 24 25  2  0  0  0  0
 24 26  1  0  0  0  0
 26 27  1  0  0  0  0
 26 28  1  0  0  0  0
 28 29  1  0  0  0  0
 28 30  1  0  0  0  0
 28 31  1  0  0  0  0
M  END
$$$$

  -OEChem-03222214053D

 31 30  0     1  0  0  0  0  0999 V2000
   -2.9577   -3.9171    1.5078 H   0  0  0  0  0  0  0  0  0  0  0  0
   -3.0221   -2.8748    1.1830 C   0  0  0  0  0  0  0  0  0  0  0  0
   -3.5741   -2.3049    1.9343 H   0  0  0  0  0  0  0  0  0  0  0  0
   -3.5622   -2.8338    0.2341 H   0  0  0  0  0  0  0  0  0  0  0  0
   -1.6318   -2.2932    1.0112 C   0  0  0  0  0  0  0  0  0  0  0  0
   -0.6530   -2.9865    1.2388 O   0  0  0  0  0  0  0  0  0  0  0  0
   -1.4911   -0.9698    0.6453 N   0  0  0  0  0  0  0  0  0  0  0  0
   -2.3415   -0.4113    0.6001 H   0  0  0  0  0  0  0  0  0  0  0  0
   -0.2225   -0.2400    0.4665 C   0  0  1  0  0  0  0  0  0  0  0  0
    0.5053   -0.7830    1.0786 H   0  0  0  0  0  0  0  0  0  0  0  0
    0.3743   -0.3164   -0.9839 C   0  0  1  0  0  0  0  0  0  0  0  0
    1.4452   -0.1523   -0.8220 H   0  0  0  0  0  0  0  0  0  0  0  0
    0.2655   -1.7259   -1.5915 C   0  0  0  0  0  0  0  0  0  0  0  0
   -0.7785   -1.9876   -1.7893 H   0  0  0  0  0  0  0  0  0  0  0  0
    0.8182   -1.7777   -2.5348 H   0  0  0  0  0  0  0  0  0  0  0  0
    0.6960   -2.4698   -0.9153 H   0  0  0  0  0  0  0  0  0  0  0  0
    0.0016    0.7327   -2.0809 C   0  0  0  0  0  0  0  0  0  0  0  0
    0.9284    1.1852   -2.4486 H   0  0  0  0  0  0  0  0  0  0  0  0
   -0.4431    0.2016   -2.9291 H   0  0  0  0  0  0  0  0  0  0  0  0
   -0.9669    1.8646   -1.7449 C   0  0  0  0  0  0  0  0  0  0  0  0
   -0.5030    2.5903   -1.0718 H   0  0  0  0  0  0  0  0  0  0  0  0
   -1.2420    2.3967   -2.6606 H   0  0  0  0  0  0  0  0  0  0  0  0
   -1.8833    1.4707   -1.2955 H   0  0  0  0  0  0  0  0  0  0  0  0
   -0.2648    1.1521    1.1343 C   0  0  0  0  0  0  0  0  0  0  0  0
   -1.3324    1.7436    1.2621 O   0  0  0  0  0  0  0  0  0  0  0  0
    0.8099    1.5833    1.8912 N   0  0  0  0  0  0  0  0  0  0  0  0
    1.6436    1.0029    1.8958 H   0  0  0  0  0  0  0  0  0  0  0  0
    0.7669    2.7604    2.7506 C   0  0  0  0  0  0  0  0  0  0  0  0
    0.0197    2.6306    3.5406 H   0  0  0  0  0  0  0  0  0  0  0  0
    1.7420    2.9226    3.2198 H   0  0  0  0  0  0  0  0  0  0  0  0
    0.5124    3.6515    2.1671 H   0  0  0  0  0  0  0  0  0  0  0  0
  1  2  1  0  0  0  0
  2  3  1  0  0  0  0
  2  4  1  0  0  0  0
  2  5  1  0  0  0  0
  5  6  2  0  0  0  0
  5  7  1  0  0  0  0
  7  8  1  0  0  0  0
  7  9  1  0  0  0  0
  9 10  1  0  0  0  0
  9 11  1  0  0  0  0
  9 24  1  0  0  0  0
 11 12  1  0  0  0  0
 11 13  1  0  0  0  0
 11 17  1  0  0  0  0
 13 14  1  0  0  0  0
 13 15  1  0  0  0  0
 13 16  1  0  0  0  0
 17 18  1  0  0  0  0
 17 19  1  0  0  0  0
 17 20  1  0  0  0  0
 20 21  1  0  0  0  0
 20 22  1  0  0  0  0
 20 23  1  0  0  0  0
 24 25  2  0  0  0  0
 24 26  1  0  0  0  0
 26 27  1  0  0  0  0
 26 28  1  0  0  0  0
 28 29  1  0  0  0  0
 28 30  1  0  0  0  0
 28 31  1  0  0  0  0
M  END
$$$$

  -OEChem-03222214053D

 31 30  0     1  0  0  0  0  0999 V2000
   -2.7495   -3.9039    1.8414 H   0  0  0  0  0  0  0  0  0  0  0  0
   -2.8662   -2.8851    1.4615 C   0  0  0  0  0  0  0  0  0  0  0  0
   -3.4164   -2.2952    2.1986 H   0  0  0  0  0  0  0  0  0  0  0  0
   -3.4382   -2.9193    0.5312 H   0  0  0  0  0  0  0  0  0  0  0  0
   -1.5066   -2.2616    1.2095 C   0  0  0  0  0  0  0  0  0  0  0  0
   -0.4936   -2.8969    1.4571 O   0  0  0  0  0  0  0  0  0  0  0  0
   -1.4308   -0.9632    0.7474 N   0  0  0  0  0  0  0  0  0  0  0  0
   -2.3044   -0.4429    0.6864 H   0  0  0  0  0  0  0  0  0  0  0  0
   -0.1978   -0.2003    0.4813 C   0  0  1  0  0  0  0  0  0  0  0  0
    0.5691   -0.6677    1.1077 H   0  0  0  0  0  0  0  0  0  0  0  0
    0.3553   -0.3654   -0.9800 C   0  0  1  0  0  0  0  0  0  0  0  0
    1.4203   -0.1386   -0.8603 H   0  0  0  0  0  0  0  0  0  0  0  0
    0.2967   -1.8189   -1.4798 C   0  0  0  0  0  0  0  0  0  0  0  0
   -0.7388   -2.1465   -1.6128 H   0  0  0  0  0  0  0  0  0  0  0  0
    0.8117   -1.9119   -2.4410 H   0  0  0  0  0  0  0  0  0  0  0  0
    0.7920   -2.4885   -0.7708 H   0  0  0  0  0  0  0  0  0  0  0  0
   -0.0811    0.5737   -2.1483 C   0  0  0  0  0  0  0  0  0  0  0  0
    0.8082    0.8007   -2.7456 H   0  0  0  0  0  0  0  0  0  0  0  0
   -0.7619    0.0125   -2.7972 H   0  0  0  0  0  0  0  0  0  0  0  0
   -0.7916    1.8910   -1.8494 C   0  0  0  0  0  0  0  0  0  0  0  0
   -1.7462    1.7094   -1.3482 H   0  0  0  0  0  0  0  0  0  0  0  0
   -0.1654    2.5463   -1.2376 H   0  0  0  0  0  0  0  0  0  0  0  0
   -1.0032    2.4135   -2.7871 H   0  0  0  0  0  0  0  0  0  0  0  0
   -0.2865    1.2313    1.0533 C   0  0  0  0  0  0  0  0  0  0  0  0
   -1.3745    1.7889    1.1580 O   0  0  0  0  0  0  0  0  0  0  0  0
    0.7855    1.7601    1.7503 N   0  0  0  0  0  0  0  0  0  0  0  0
    1.6404    1.2123    1.7818 H   0  0  0  0  0  0  0  0  0  0  0  0
    0.7082    2.9884    2.5323 C   0  0  0  0  0  0  0  0  0  0  0  0
   -0.0091    2.8760    3.3521 H   0  0  0  0  0  0  0  0  0  0  0  0
    1.6869    3.2272    2.9592 H   0  0  0  0  0  0  0  0  0  0  0  0
    0.3939    3.8258    1.9005 H   0  0  0  0  0  0  0  0  0  0  0  0
  1  2  1  0  0  0  0
  2  3  1  0  0  0  0
  2  4  1  0  0  0  0
  2  5  1  0  0  0  0
  5  6  2  0  0  0  0
  5  7  1  0  0  0  0
  7  8  1  0  0  0  0
  7  9  1  0  0  0  0
  9 10  1  0  0  0  0
  9 11  1  0  0  0  0
  9 24  1  0  0  0  0
 11 12  1  0  0  0  0
 11 13  1  0  0  0  0
 11 17  1  0  0  0  0
 13 14  1  0  0  0  0
 13 15  1  0  0  0  0
 13 16  1  0  0  0  0
 17 18  1  0  0  0  0
 17 19  1  0  0  0  0
 17 20  1  0  0  0  0
 20 21  1  0  0  0  0
 20 22  1  0  0  0  0
 20 23  1  0  0  0  0
 24 25  2  0  0  0  0
 24 26  1  0  0  0  0
 26 27  1  0  0  0  0
 26 28  1  0  0  0  0
 28 29  1  0  0  0  0
 28 30  1  0  0  0  0
 28 31  1  0  0  0  0
M  END
$$$$

  -OEChem-03222214053D

 31 30  0     1  0  0  0  0  0999 V2000
   -3.0903   -3.7955    1.5573 H   0  0  0  0  0  0  0  0  0  0  0  0
   -3.1129   -2.7651    1.1918 C   0  0  0  0  0  0  0  0  0  0  0  0
   -3.6789   -2.1530    1.8982 H   0  0  0  0  0  0  0  0  0  0  0  0
   -3.6142   -2.7468    0.2211 H   0  0  0  0  0  0  0  0  0  0  0  0
   -1.7015   -2.2261    1.0561 C   0  0  0  0  0  0  0  0  0  0  0  0
   -0.7516   -2.9288    1.3638 O   0  0  0  0  0  0  0  0  0  0  0  0
   -1.5100   -0.9267    0.6321 N   0  0  0  0  0  0  0  0  0  0  0  0
   -2.3421   -0.3492    0.5231 H   0  0  0  0  0  0  0  0  0  0  0  0
   -0.2158   -0.2346    0.4930 C   0  0  1  0  0  0  0  0  0  0  0  0
    0.4715   -0.7576    1.1660 H   0  0  0  0  0  0  0  0  0  0  0  0
    0.4378   -0.3920   -0.9275 C   0  0  1  0  0  0  0  0  0  0  0  0
    1.5039   -0.2445   -0.7237 H   0  0  0  0  0  0  0  0  0  0  0  0
    0.3110   -1.8182   -1.4892 C   0  0  0  0  0  0  0  0  0  0  0  0
   -0.7323   -2.0606   -1.7129 H   0  0  0  0  0  0  0  0  0  0  0  0
    0.8906   -1.9174   -2.4123 H   0  0  0  0  0  0  0  0  0  0  0  0
    0.6984   -2.5484   -0.7729 H   0  0  0  0  0  0  0  0  0  0  0  0
    0.1515    0.6074   -2.0882 C   0  0  0  0  0  0  0  0  0  0  0  0
    1.0205    0.5942   -2.7547 H   0  0  0  0  0  0  0  0  0  0  0  0
   -0.6981    0.2242   -2.6632 H   0  0  0  0  0  0  0  0  0  0  0  0
   -0.1687    2.0680   -1.7776 C   0  0  0  0  0  0  0  0  0  0  0  0
    0.5741    2.4974   -1.0992 H   0  0  0  0  0  0  0  0  0  0  0  0
   -1.1682    2.1637   -1.3476 H   0  0  0  0  0  0  0  0  0  0  0  0
   -0.1553    2.6502   -2.7039 H   0  0  0  0  0  0  0  0  0  0  0  0
   -0.2920    1.1859    1.0924 C   0  0  0  0  0  0  0  0  0  0  0  0
   -1.3590    1.7919    1.1072 O   0  0  0  0  0  0  0  0  0  0  0  0
    0.7317    1.6484    1.8996 N   0  0  0  0  0  0  0  0  0  0  0  0
    1.5584    1.0651    1.9905 H   0  0  0  0  0  0  0  0  0  0  0  0
    0.6420    2.8712    2.6884 C   0  0  0  0  0  0  0  0  0  0  0  0
   -0.1572    2.7894    3.4327 H   0  0  0  0  0  0  0  0  0  0  0  0
    1.5853    3.0539    3.2120 H   0  0  0  0  0  0  0  0  0  0  0  0
    0.4347    3.7301    2.0413 H   0  0  0  0  0  0  0  0  0  0  0  0
  1  2  1  0  0  0  0
  2  3  1  0  0  0  0
  2  4  1  0  0  0  0
  2  5  1  0  0  0  0
  5  6  2  0  0  0  0
  5  7  1  0  0  0  0
  7  8  1  0  0  0  0
  7  9  1  0  0  0  0
  9 10  1  0  0  0  0
  9 11  1  0  0  0  0
  9 24  1  0  0  0  0
 11 12  1  0  0  0  0
 11 13  1  0  0  0  0
 11 17  1  0  0  0  0
 13 14  1  0  0  0  0
 13 15  1  0  0  0  0
 13 16  1  0  0  0  0
 17 18  1  0  0  0  0
 17 19  1  0  0  0  0
 17 20  1  0  0  0  0
 20 21  1  0  0  0  0
 20 22  1  0  0  0  0
 20 23  1  0  0  0  0
 24 25  2  0  0  0  0
 24 26  1  0  0  0  0
 26 27  1  0  0  0  0
 26 28  1  0  0  0  0
 28 29  1  0  0  0  0
 28 30  1  0  0  0  0
 28 31  1  0  0  0  0
M  END
$$$$

  -OEChem-03222214053D

 31 30  0     1  0  0  0  0  0999 V2000
   -3.0818   -3.8349    1.4255 H   0  0  0  0  0  0  0  0  0  0  0  0
   -3.0987   -2.7957    1.0855 C   0  0  0  0  0  0  0  0  0  0  0  0
   -3.6689   -2.1994    1.8020 H   0  0  0  0  0  0  0  0  0  0  0  0
   -3.5911   -2.7518    0.1111 H   0  0  0  0  0  0  0  0  0  0  0  0
   -1.6849   -2.2579    0.9744 C   0  0  0  0  0  0  0  0  0  0  0  0
   -0.7387   -2.9712    1.2696 O   0  0  0  0  0  0  0  0  0  0  0  0
   -1.4853   -0.9508    0.5794 N   0  0  0  0  0  0  0  0  0  0  0  0
   -2.3130   -0.3645    0.4825 H   0  0  0  0  0  0  0  0  0  0  0  0
   -0.1853   -0.2640    0.4728 C   0  0  1  0  0  0  0  0  0  0  0  0
    0.5033   -0.8059    1.1293 H   0  0  0  0  0  0  0  0  0  0  0  0
    0.4564   -0.3650   -0.9573 C   0  0  1  0  0  0  0  0  0  0  0  0
    1.5297   -0.2570   -0.7676 H   0  0  0  0  0  0  0  0  0  0  0  0
    0.2739   -1.7539   -1.5934 C   0  0  0  0  0  0  0  0  0  0  0  0
   -0.7782   -1.9447   -1.8254 H   0  0  0  0  0  0  0  0  0  0  0  0
    0.8467   -1.8271   -2.5229 H   0  0  0  0  0  0  0  0  0  0  0  0
    0.6351   -2.5348   -0.9182 H   0  0  0  0  0  0  0  0  0  0  0  0
    0.1596    0.7003   -2.0510 C   0  0  0  0  0  0  0  0  0  0  0  0
    0.8858    0.5521   -2.8572 H   0  0  0  0  0  0  0  0  0  0  0  0
   -0.8324    0.5004   -2.4693 H   0  0  0  0  0  0  0  0  0  0  0  0
    0.2026    2.1821   -1.6722 C   0  0  0  0  0  0  0  0  0  0  0  0
    1.0519    2.3927   -1.0155 H   0  0  0  0  0  0  0  0  0  0  0  0
   -0.7251    2.4940   -1.1891 H   0  0  0  0  0  0  0  0  0  0  0  0
    0.3135    2.7872   -2.5771 H   0  0  0  0  0  0  0  0  0  0  0  0
   -0.2836    1.1399    1.1047 C   0  0  0  0  0  0  0  0  0  0  0  0
   -1.3521    1.7442    1.0937 O   0  0  0  0  0  0  0  0  0  0  0  0
    0.7183    1.5928    1.9439 N   0  0  0  0  0  0  0  0  0  0  0  0
    1.5430    1.0092    2.0494 H   0  0  0  0  0  0  0  0  0  0  0  0
    0.6047    2.8046    2.7464 C   0  0  0  0  0  0  0  0  0  0  0  0
   -0.2120    2.7096    3.4698 H   0  0  0  0  0  0  0  0  0  0  0  0
    1.5345    2.9836    3.2948 H   0  0  0  0  0  0  0  0  0  0  0  0
    0.4097    3.6713    2.1060 H   0  0  0  0  0  0  0  0  0  0  0  0
  1  2  1  0  0  0  0
  2  3  1  0  0  0  0
  2  4  1  0  0  0  0
  2  5  1  0  0  0  0
  5  6  2  0  0  0  0
  5  7  1  0  0  0  0
  7  8  1  0  0  0  0
  7  9  1  0  0  0  0
  9 10  1  0  0  0  0
  9 11  1  0  0  0  0
  9 24  1  0  0  0  0
 11 12  1  0  0  0  0
 11 13  1  0  0  0  0
 11 17  1  0  0  0  0
 13 14  1  0  0  0  0
 13 15  1  0  0  0  0
 13 16  1  0  0  0  0
 17 18  1  0  0  0  0
 17 19  1  0  0  0  0
 17 20  1  0  0  0  0
 20 21  1  0  0  0  0
 20 22  1  0  0  0  0
 20 23  1  0  0  0  0
 24 25  2  0  0  0  0
 24 26  1  0  0  0  0
 26 27  1  0  0  0  0
 26 28  1  0  0  0  0
 28 29  1  0  0  0  0
 28 30  1  0  0  0  0
 28 31  1  0  0  0  0
M  END
$$$$

  -OEChem-03222214053D

 31 30  0     1  0  0  0  0  0999 V2000
   -2.9488   -3.8877    1.5351 H   0  0  0  0  0  0  0  0  0  0  0  0
   -2.9950   -2.8537    1.1818 C   0  0  0  0  0  0  0  0  0  0  0  0
   -3.5460   -2.2565    1.9125 H   0  0  0  0  0  0  0  0  0  0  0  0
   -3.5259   -2.8309    0.2272 H   0  0  0  0  0  0  0  0  0  0  0  0
   -1.5945   -2.2973    1.0072 C   0  0  0  0  0  0  0  0  0  0  0  0
   -0.6268   -2.9965    1.2640 O   0  0  0  0  0  0  0  0  0  0  0  0
   -1.4268   -0.9903    0.5967 N   0  0  0  0  0  0  0  0  0  0  0  0
   -2.2639   -0.4137    0.5246 H   0  0  0  0  0  0  0  0  0  0  0  0
   -0.1375   -0.2916    0.4439 C   0  0  1  0  0  0  0  0  0  0  0  0
    0.5913   -0.8243    1.0634 H   0  0  0  0  0  0  0  0  0  0  0  0
    0.4257   -0.3528   -1.0195 C   0  0  1  0  0  0  0  0  0  0  0  0
    1.5114   -0.2656   -0.9043 H   0  0  0  0  0  0  0  0  0  0  0  0
    0.1749   -1.7150   -1.6903 C   0  0  0  0  0  0  0  0  0  0  0  0
   -0.8909   -1.8648   -1.8881 H   0  0  0  0  0  0  0  0  0  0  0  0
    0.7107   -1.7772   -2.6424 H   0  0  0  0  0  0  0  0  0  0  0  0
    0.5353   -2.5282   -1.0538 H   0  0  0  0  0  0  0  0  0  0  0  0
    0.0392    0.7604   -2.0316 C   0  0  0  0  0  0  0  0  0  0  0  0
    0.5231    0.5264   -2.9857 H   0  0  0  0  0  0  0  0  0  0  0  0
   -1.0423    0.7299   -2.2001 H   0  0  0  0  0  0  0  0  0  0  0  0
    0.4338    2.1989   -1.6754 C   0  0  0  0  0  0  0  0  0  0  0  0
    1.4029    2.2221   -1.1680 H   0  0  0  0  0  0  0  0  0  0  0  0
    0.5125    2.7932   -2.5907 H   0  0  0  0  0  0  0  0  0  0  0  0
   -0.3168    2.6793   -1.0456 H   0  0  0  0  0  0  0  0  0  0  0  0
   -0.2462    1.1116    1.0731 C   0  0  0  0  0  0  0  0  0  0  0  0
   -1.3163    1.7128    1.0502 O   0  0  0  0  0  0  0  0  0  0  0  0
    0.7674    1.5898    1.8835 N   0  0  0  0  0  0  0  0  0  0  0  0
    1.6020    1.0187    1.9791 H   0  0  0  0  0  0  0  0  0  0  0  0
    0.6641    2.8231    2.6537 C   0  0  0  0  0  0  0  0  0  0  0  0
   -0.1514    2.7537    3.3812 H   0  0  0  0  0  0  0  0  0  0  0  0
    1.5961    3.0093    3.1956 H   0  0  0  0  0  0  0  0  0  0  0  0
    0.4745    3.6739    1.9909 H   0  0  0  0  0  0  0  0  0  0  0  0
  1  2  1  0  0  0  0
  2  3  1  0  0  0  0
  2  4  1  0  0  0  0
  2  5  1  0  0  0  0
  5  6  2  0  0  0  0
  5  7  1  0  0  0  0
  7  8  1  0  0  0  0
  7  9  1  0  0  0  0
  9 10  1  0  0  0  0
  9 11  1  0  0  0  0
  9 24  1  0  0  0  0
 11 12  1  0  0  0  0
 11 13  1  0  0  0  0
 11 17  1  0  0  0  0
 13 14  1  0  0  0  0
 13 15  1  0  0  0  0
 13 16  1  0  0  0  0
 17 18  1  0  0  0  0
 17 19  1  0  0  0  0
 17 20  1  0  0  0  0
 20 21  1  0  0  0  0
 20 22  1  0  0  0  0
 20 23  1  0  0  0  0
 24 25  2  0  0  0  0
 24 26  1  0  0  0  0
 26 27  1  0  0  0  0
 26 28  1  0  0  0  0
 28 29  1  0  0  0  0
 28 30  1  0  0  0  0
 28 31  1  0  0  0  0
M  END
$$$$

  -OEChem-03222214053D

 31 30  0     1  0  0  0  0  0999 V2000
   -2.9547   -3.8844    1.5513 H   0  0  0  0  0  0  0  0  0  0  0  0
   -2.9940   -2.8595    1.1720 C   0  0  0  0  0  0  0  0  0  0  0  0
   -3.5581   -2.2443    1.8772 H   0  0  0  0  0  0  0  0  0  0  0  0
   -3.5074   -2.8600    0.2074 H   0  0  0  0  0  0  0  0  0  0  0  0
   -1.5903   -2.3074    1.0108 C   0  0  0  0  0  0  0  0  0  0  0  0
   -0.6271   -3.0035    1.2919 O   0  0  0  0  0  0  0  0  0  0  0  0
   -1.4138   -1.0085    0.5802 N   0  0  0  0  0  0  0  0  0  0  0  0
   -2.2487   -0.4338    0.4754 H   0  0  0  0  0  0  0  0  0  0  0  0
   -0.1198   -0.3163    0.4395 C   0  0  1  0  0  0  0  0  0  0  0  0
    0.6068   -0.8435    1.0662 H   0  0  0  0  0  0  0  0  0  0  0  0
    0.4427   -0.3712   -1.0226 C   0  0  1  0  0  0  0  0  0  0  0  0
    1.5315   -0.3078   -0.9230 H   0  0  0  0  0  0  0  0  0  0  0  0
    0.1578   -1.7175   -1.7122 C   0  0  0  0  0  0  0  0  0  0  0  0
   -0.9108   -1.8350   -1.9167 H   0  0  0  0  0  0  0  0  0  0  0  0
    0.6970   -1.7817   -2.6623 H   0  0  0  0  0  0  0  0  0  0  0  0
    0.4927   -2.5483   -1.0843 H   0  0  0  0  0  0  0  0  0  0  0  0
    0.0340    0.7757   -1.9855 C   0  0  0  0  0  0  0  0  0  0  0  0
    0.2712    0.4696   -3.0096 H   0  0  0  0  0  0  0  0  0  0  0  0
   -1.0498    0.9235   -1.9348 H   0  0  0  0  0  0  0  0  0  0  0  0
    0.7391    2.1209   -1.7535 C   0  0  0  0  0  0  0  0  0  0  0  0
    1.8128    1.9720   -1.6043 H   0  0  0  0  0  0  0  0  0  0  0  0
    0.6014    2.7585   -2.6319 H   0  0  0  0  0  0  0  0  0  0  0  0
    0.3354    2.6614   -0.8969 H   0  0  0  0  0  0  0  0  0  0  0  0
   -0.2418    1.0967    1.0423 C   0  0  0  0  0  0  0  0  0  0  0  0
   -1.2906    1.7244    0.9288 O   0  0  0  0  0  0  0  0  0  0  0  0
    0.7512    1.5942    1.8664 N   0  0  0  0  0  0  0  0  0  0  0  0
    1.5760    1.0190    2.0108 H   0  0  0  0  0  0  0  0  0  0  0  0
    0.6498    2.8724    2.5600 C   0  0  0  0  0  0  0  0  0  0  0  0
   -0.2060    2.8709    3.2432 H   0  0  0  0  0  0  0  0  0  0  0  0
    1.5567    3.0602    3.1426 H   0  0  0  0  0  0  0  0  0  0  0  0
    0.5258    3.6891    1.8411 H   0  0  0  0  0  0  0  0  0  0  0  0
  1  2  1  0  0  0  0
  2  3  1  0  0  0  0
  2  4  1  0  0  0  0
  2  5  1  0  0  0  0
  5  6  2  0  0  0  0
  5  7  1  0  0  0  0
  7  8  1  0  0  0  0
  7  9  1  0  0  0  0
  9 10  1  0  0  0  0
  9 11  1  0  0  0  0
  9 24  1  0  0  0  0
 11 12  1  0  0  0  0
 11 13  1  0  0  0  0
 11 17  1  0  0  0  0
 13 14  1  0  0  0  0
 13 15  1  0  0  0  0
 13 16  1  0  0  0  0
 17 18  1  0  0  0  0
 17 19  1  0  0  0  0
 17 20  1  0  0  0  0
 20 21  1  0  0  0  0
 20 22  1  0  0  0  0
 20 23  1  0  0  0  0
 24 25  2  0  0  0  0
 24 26  1  0  0  0  0
 26 27  1  0  0  0  0
 26 28  1  0  0  0  0
 28 29  1  0  0  0  0
 28 30  1  0  0  0  0
 28 31  1  0  0  0  0
M  END
$$$$

  -OEChem-03222214053D

 31 30  0     1  0  0  0  0  0999 V2000
   -2.9617   -3.8824    1.5491 H   0  0  0  0  0  0  0  0  0  0  0  0
   -3.0001   -2.8618    1.1579 C   0  0  0  0  0  0  0  0  0  0  0  0
   -3.5767   -2.2415    1.8485 H   0  0  0  0  0  0  0  0  0  0  0  0
   -3.5002   -2.8755    0.1865 H   0  0  0  0  0  0  0  0  0  0  0  0
   -1.5968   -2.3045    1.0099 C   0  0  0  0  0  0  0  0  0  0  0  0
   -0.6338   -2.9911    1.3139 O   0  0  0  0  0  0  0  0  0  0  0  0
   -1.4214   -1.0116    0.5612 N   0  0  0  0  0  0  0  0  0  0  0  0
   -2.2583   -0.4468    0.4249 H   0  0  0  0  0  0  0  0  0  0  0  0
   -0.1292   -0.3154    0.4277 C   0  0  1  0  0  0  0  0  0  0  0  0
    0.5908   -0.8335    1.0694 H   0  0  0  0  0  0  0  0  0  0  0  0
    0.4536   -0.3827   -1.0238 C   0  0  1  0  0  0  0  0  0  0  0  0
    1.5421   -0.3173   -0.9206 H   0  0  0  0  0  0  0  0  0  0  0  0
    0.1743   -1.7300   -1.7134 C   0  0  0  0  0  0  0  0  0  0  0  0
   -0.8935   -1.8531   -1.9187 H   0  0  0  0  0  0  0  0  0  0  0  0
    0.7147   -1.7900   -2.6631 H   0  0  0  0  0  0  0  0  0  0  0  0
    0.5119   -2.5589   -1.0842 H   0  0  0  0  0  0  0  0  0  0  0  0
    0.0183    0.7753   -1.9586 C   0  0  0  0  0  0  0  0  0  0  0  0
    0.0020    0.4212   -2.9945 H   0  0  0  0  0  0  0  0  0  0  0  0
   -1.0020    1.0898   -1.7176 H   0  0  0  0  0  0  0  0  0  0  0  0
    0.9644    1.9819   -1.9114 C   0  0  0  0  0  0  0  0  0  0  0  0
    1.9780    1.6822   -2.1946 H   0  0  0  0  0  0  0  0  0  0  0  0
    0.6229    2.7469   -2.6151 H   0  0  0  0  0  0  0  0  0  0  0  0
    1.0001    2.4307   -0.9167 H   0  0  0  0  0  0  0  0  0  0  0  0
   -0.2426    1.1129    1.0013 C   0  0  0  0  0  0  0  0  0  0  0  0
   -1.2754    1.7584    0.8535 O   0  0  0  0  0  0  0  0  0  0  0  0
    0.7496    1.6146    1.8237 N   0  0  0  0  0  0  0  0  0  0  0  0
    1.5629    1.0294    1.9916 H   0  0  0  0  0  0  0  0  0  0  0  0
    0.6578    2.9060    2.4936 C   0  0  0  0  0  0  0  0  0  0  0  0
   -0.2088    2.9305    3.1627 H   0  0  0  0  0  0  0  0  0  0  0  0
    1.5583    3.0881    3.0879 H   0  0  0  0  0  0  0  0  0  0  0  0
    0.5592    3.7125    1.7593 H   0  0  0  0  0  0  0  0  0  0  0  0
  1  2  1  0  0  0  0
  2  3  1  0  0  0  0
  2  4  1  0  0  0  0
  2  5  1  0  0  0  0
  5  6  2  0  0  0  0
  5  7  1  0  0  0  0
  7  8  1  0  0  0  0
  7  9  1  0  0  0  0
  9 10  1  0  0  0  0
  9 11  1  0  0  0  0
  9 24  1  0  0  0  0
 11 12  1  0  0  0  0
 11 13  1  0  0  0  0
 11 17  1  0  0  0  0
 13 14  1  0  0  0  0
 13 15  1  0  0  0  0
 13 16  1  0  0  0  0
 17 18  1  0  0  0  0
 17 19  1  0  0  0  0
 17 20  1  0  0  0  0
 20 21  1  0  0  0  0
 20 22  1  0  0  0  0
 20 23  1  0  0  0  0
 24 25  2  0  0  0  0
 24 26  1  0  0  0  0
 26 27  1  0  0  0  0
 26 28  1  0  0  0  0
 28 29  1  0  0  0  0
 28 30  1  0  0  0  0
 28 31  1  0  0  0  0
M  END
$$$$

  -OEChem-03222214053D

 31 30  0     1  0  0  0  0  0999 V2000
   -2.9585   -3.8944    1.5395 H   0  0  0  0  0  0  0  0  0  0  0  0
   -3.0071   -2.8721    1.1541 C   0  0  0  0  0  0  0  0  0  0  0  0
   -3.5851   -2.2602    1.8509 H   0  0  0  0  0  0  0  0  0  0  0  0
   -3.5117   -2.8844    0.1849 H   0  0  0  0  0  0  0  0  0  0  0  0
   -1.6091   -2.3032    1.0021 C   0  0  0  0  0  0  0  0  0  0  0  0
   -0.6403   -2.9839    1.3006 O   0  0  0  0  0  0  0  0  0  0  0  0
   -1.4455   -1.0085    0.5532 N   0  0  0  0  0  0  0  0  0  0  0  0
   -2.2875   -0.4504    0.4226 H   0  0  0  0  0  0  0  0  0  0  0  0
   -0.1594   -0.3024    0.4155 C   0  0  1  0  0  0  0  0  0  0  0  0
    0.5558   -0.8186    1.0639 H   0  0  0  0  0  0  0  0  0  0  0  0
    0.4455   -0.3744   -1.0230 C   0  0  1  0  0  0  0  0  0  0  0  0
    1.5308   -0.2948   -0.8982 H   0  0  0  0  0  0  0  0  0  0  0  0
    0.1983   -1.7295   -1.7082 C   0  0  0  0  0  0  0  0  0  0  0  0
   -0.8654   -1.8751   -1.9197 H   0  0  0  0  0  0  0  0  0  0  0  0
    0.7464   -1.7808   -2.6542 H   0  0  0  0  0  0  0  0  0  0  0  0
    0.5478   -2.5490   -1.0731 H   0  0  0  0  0  0  0  0  0  0  0  0
   -0.0010    0.7773   -1.9625 C   0  0  0  0  0  0  0  0  0  0  0  0
   -0.2509    0.3727   -2.9487 H   0  0  0  0  0  0  0  0  0  0  0  0
   -0.9099    1.2619   -1.5965 H   0  0  0  0  0  0  0  0  0  0  0  0
    1.1091    1.8118   -2.1623 C   0  0  0  0  0  0  0  0  0  0  0  0
    1.9958    1.3440   -2.6011 H   0  0  0  0  0  0  0  0  0  0  0  0
    0.7667    2.6032   -2.8357 H   0  0  0  0  0  0  0  0  0  0  0  0
    1.3875    2.2675   -1.2073 H   0  0  0  0  0  0  0  0  0  0  0  0
   -0.2482    1.1323    0.9821 C   0  0  0  0  0  0  0  0  0  0  0  0
   -1.2859    1.7776    0.8739 O   0  0  0  0  0  0  0  0  0  0  0  0
    0.7610    1.6247    1.7893 N   0  0  0  0  0  0  0  0  0  0  0  0
    1.5738    1.0343    1.9402 H   0  0  0  0  0  0  0  0  0  0  0  0
    0.6868    2.9111    2.4710 C   0  0  0  0  0  0  0  0  0  0  0  0
   -0.1577    2.9272    3.1680 H   0  0  0  0  0  0  0  0  0  0  0  0
    1.6056    3.0932    3.0367 H   0  0  0  0  0  0  0  0  0  0  0  0
    0.5613    3.7220    1.7456 H   0  0  0  0  0  0  0  0  0  0  0  0
  1  2  1  0  0  0  0
  2  3  1  0  0  0  0
  2  4  1  0  0  0  0
  2  5  1  0  0  0  0
  5  6  2  0  0  0  0
  5  7  1  0  0  0  0
  7  8  1  0  0  0  0
  7  9  1  0  0  0  0
  9 10  1  0  0  0  0
  9 11  1  0  0  0  0
  9 24  1  0  0  0  0
 11 12  1  0  0  0  0
 11 13  1  0  0  0  0
 11 17  1  0  0  0  0
 13 14  1  0  0  0  0
 13 15  1  0  0  0  0
 13 16  1  0  0  0  0
 17 18  1  0  0  0  0
 17 19  1  0  0  0  0
 17 20  1  0  0  0  0
 20 21  1  0  0  0  0
 20 22  1  0  0  0  0
 20 23  1  0  0  0  0
 24 25  2  0  0  0  0
 24 26  1  0  0  0  0
 26 27  1  0  0  0  0
 26 28  1  0  0  0  0
 28 29  1  0  0  0  0
 28 30  1  0  0  0  0
 28 31  1  0  0  0  0
M  END
$$$$

  -OEChem-03222214053D

 31 30  0     1  0  0  0  0  0999 V2000
   -2.9589   -3.8883    1.5378 H   0  0  0  0  0  0  0  0  0  0  0  0
   -3.0094   -2.8653    1.1547 C   0  0  0  0  0  0  0  0  0  0  0  0
   -3.5807   -2.2539    1.8573 H   0  0  0  0  0  0  0  0  0  0  0  0
   -3.5222   -2.8750    0.1899 H   0  0  0  0  0  0  0  0  0  0  0  0
   -1.6123   -2.2969    0.9918 C   0  0  0  0  0  0  0  0  0  0  0  0
   -0.6405   -2.9806    1.2732 O   0  0  0  0  0  0  0  0  0  0  0  0
   -1.4538   -0.9976    0.5546 N   0  0  0  0  0  0  0  0  0  0  0  0
   -2.2981   -0.4397    0.4388 H   0  0  0  0  0  0  0  0  0  0  0  0
   -0.1717   -0.2857    0.4120 C   0  0  1  0  0  0  0  0  0  0  0  0
    0.5468   -0.8048    1.0545 H   0  0  0  0  0  0  0  0  0  0  0  0
    0.4263   -0.3598   -1.0289 C   0  0  1  0  0  0  0  0  0  0  0  0
    1.5079   -0.2575   -0.8888 H   0  0  0  0  0  0  0  0  0  0  0  0
    0.2181   -1.7253   -1.7045 C   0  0  0  0  0  0  0  0  0  0  0  0
   -0.8423   -1.9100   -1.9014 H   0  0  0  0  0  0  0  0  0  0  0  0
    0.7555   -1.7607   -2.6572 H   0  0  0  0  0  0  0  0  0  0  0  0
    0.6040   -2.5283   -1.0695 H   0  0  0  0  0  0  0  0  0  0  0  0
   -0.0169    0.7787   -1.9896 C   0  0  0  0  0  0  0  0  0  0  0  0
   -0.5305    0.3510   -2.8570 H   0  0  0  0  0  0  0  0  0  0  0  0
   -0.7350    1.4547   -1.5225 H   0  0  0  0  0  0  0  0  0  0  0  0
    1.1789    1.5899   -2.4914 C   0  0  0  0  0  0  0  0  0  0  0  0
    1.8883    0.9431   -3.0172 H   0  0  0  0  0  0  0  0  0  0  0  0
    0.8408    2.3679   -3.1826 H   0  0  0  0  0  0  0  0  0  0  0  0
    1.6931    2.0710   -1.6535 H   0  0  0  0  0  0  0  0  0  0  0  0
   -0.2542    1.1440    0.9920 C   0  0  0  0  0  0  0  0  0  0  0  0
   -1.2975    1.7842    0.9119 O   0  0  0  0  0  0  0  0  0  0  0  0
    0.7643    1.6280    1.7922 N   0  0  0  0  0  0  0  0  0  0  0  0
    1.5803    1.0375    1.9237 H   0  0  0  0  0  0  0  0  0  0  0  0
    0.6912    2.8988    2.5024 C   0  0  0  0  0  0  0  0  0  0  0  0
   -0.1479    2.8967    3.2062 H   0  0  0  0  0  0  0  0  0  0  0  0
    1.6137    3.0711    3.0650 H   0  0  0  0  0  0  0  0  0  0  0  0
    0.5576    3.7250    1.7962 H   0  0  0  0  0  0  0  0  0  0  0  0
  1  2  1  0  0  0  0
  2  3  1  0  0  0  0
  2  4  1  0  0  0  0
  2  5  1  0  0  0  0
  5  6  2  0  0  0  0
  5  7  1  0  0  0  0
  7  8  1  0  0  0  0
  7  9  1  0  0  0  0
  9 10  1  0  0  0  0
  9 11  1  0  0  0  0
  9 24  1  0  0  0  0
 11 12  1  0  0  0  0
 11 13  1  0  0  0  0
 11 17  1  0  0  0  0
 13 14  1  0  0  0  0
 13 15  1  0  0  0  0
 13 16  1  0  0  0  0
 17 18  1  0  0  0  0
 17 19  1  0  0  0  0
 17 20  1  0  0  0  0
 20 21  1  0  0  0  0
 20 22  1  0  0  0  0
 20 23  1  0  0  0  0
 24 25  2  0  0  0  0
 24 26  1  0  0  0  0
 26 27  1  0  0  0  0
 26 28  1  0  0  0  0
 28 29  1  0  0  0  0
 28 30  1  0  0  0  0
 28 31  1  0  0  0  0
M  END
$$$$

  -OEChem-03222214053D

 31 30  0     1  0  0  0  0  0999 V2000
   -2.9496   -3.8878    1.5251 H   0  0  0  0  0  0  0  0  0  0  0  0
   -3.0022   -2.8633    1.1464 C   0  0  0  0  0  0  0  0  0  0  0  0
   -3.5777   -2.2565    1.8498 H   0  0  0  0  0  0  0  0  0  0  0  0
   -3.5114   -2.8702    0.1795 H   0  0  0  0  0  0  0  0  0  0  0  0
   -1.6059   -2.2911    0.9911 C   0  0  0  0  0  0  0  0  0  0  0  0
   -0.6333   -2.9747    1.2704 O   0  0  0  0  0  0  0  0  0  0  0  0
   -1.4491   -0.9894    0.5609 N   0  0  0  0  0  0  0  0  0  0  0  0
   -2.2935   -0.4317    0.4449 H   0  0  0  0  0  0  0  0  0  0  0  0
   -0.1669   -0.2787    0.4161 C   0  0  1  0  0  0  0  0  0  0  0  0
    0.5573   -0.8010    1.0497 H   0  0  0  0  0  0  0  0  0  0  0  0
    0.4119   -0.3506   -1.0337 C   0  0  1  0  0  0  0  0  0  0  0  0
    1.4926   -0.2374   -0.8948 H   0  0  0  0  0  0  0  0  0  0  0  0
    0.2094   -1.7164   -1.7106 C   0  0  0  0  0  0  0  0  0  0  0  0
   -0.8513   -1.9098   -1.8964 H   0  0  0  0  0  0  0  0  0  0  0  0
    0.7358   -1.7464   -2.6692 H   0  0  0  0  0  0  0  0  0  0  0  0
    0.6082   -2.5174   -1.0811 H   0  0  0  0  0  0  0  0  0  0  0  0
   -0.0280    0.7842   -1.9990 C   0  0  0  0  0  0  0  0  0  0  0  0
   -0.7881    0.4066   -2.6907 H   0  0  0  0  0  0  0  0  0  0  0  0
   -0.4835    1.6229   -1.4714 H   0  0  0  0  0  0  0  0  0  0  0  0
    1.1579    1.3336   -2.7949 C   0  0  0  0  0  0  0  0  0  0  0  0
    1.6335    0.5375   -3.3758 H   0  0  0  0  0  0  0  0  0  0  0  0
    0.8170    2.1106   -3.4858 H   0  0  0  0  0  0  0  0  0  0  0  0
    1.9021    1.7717   -2.1225 H   0  0  0  0  0  0  0  0  0  0  0  0
   -0.2536    1.1453    1.0075 C   0  0  0  0  0  0  0  0  0  0  0  0
   -1.2969    1.7853    0.9230 O   0  0  0  0  0  0  0  0  0  0  0  0
    0.7639    1.6289    1.8091 N   0  0  0  0  0  0  0  0  0  0  0  0
    1.5814    1.0399    1.9387 H   0  0  0  0  0  0  0  0  0  0  0  0
    0.6883    2.8988    2.5212 C   0  0  0  0  0  0  0  0  0  0  0  0
   -0.1598    2.9004    3.2143 H   0  0  0  0  0  0  0  0  0  0  0  0
    1.6045    3.0647    3.0960 H   0  0  0  0  0  0  0  0  0  0  0  0
    0.5680    3.7272    1.8150 H   0  0  0  0  0  0  0  0  0  0  0  0
  1  2  1  0  0  0  0
  2  3  1  0  0  0  0
  2  4  1  0  0  0  0
  2  5  1  0  0  0  0
  5  6  2  0  0  0  0
  5  7  1  0  0  0  0
  7  8  1  0  0  0  0
  7  9  1  0  0  0  0
  9 10  1  0  0  0  0
  9 11  1  0  0  0  0
  9 24  1  0  0  0  0
 11 12  1  0  0  0  0
 11 13  1  0  0  0  0
 11 17  1  0  0  0  0
 13 14  1  0  0  0  0
 13 15  1  0  0  0  0
 13 16  1  0  0  0  0
 17 18  1  0  0  0  0
 17 19  1  0  0  0  0
 17 20  1  0  0  0  0
 20 21  1  0  0  0  0
 20 22  1  0  0  0  0
 20 23  1  0  0  0  0
 24 25  2  0  0  0  0
 24 26  1  0  0  0  0
 26 27  1  0  0  0  0
 26 28  1  0  0  0  0
 28 29  1  0  0  0  0
 28 30  1  0  0  0  0
 28 31  1  0  0  0  0
M  END
$$$$

  -OEChem-03222214053D

 31 30  0     1  0  0  0  0  0999 V2000
   -2.9558   -3.8770    1.5275 H   0  0  0  0  0  0  0  0  0  0  0  0
   -3.0005   -2.8526    1.1474 C   0  0  0  0  0  0  0  0  0  0  0  0
   -3.5749   -2.2416    1.8480 H   0  0  0  0  0  0  0  0  0  0  0  0
   -3.5061   -2.8574    0.1789 H   0  0  0  0  0  0  0  0  0  0  0  0
   -1.6006   -2.2890    0.9959 C   0  0  0  0  0  0  0  0  0  0  0  0
   -0.6329   -2.9753    1.2851 O   0  0  0  0  0  0  0  0  0  0  0  0
   -1.4341   -0.9907    0.5599 N   0  0  0  0  0  0  0  0  0  0  0  0
   -2.2745   -0.4282    0.4367 H   0  0  0  0  0  0  0  0  0  0  0  0
   -0.1470   -0.2887    0.4147 C   0  0  1  0  0  0  0  0  0  0  0  0
    0.5784   -0.8111    1.0468 H   0  0  0  0  0  0  0  0  0  0  0  0
    0.4222   -0.3592   -1.0409 C   0  0  1  0  0  0  0  0  0  0  0  0
    1.5048   -0.2494   -0.9156 H   0  0  0  0  0  0  0  0  0  0  0  0
    0.1956   -1.7245   -1.7151 C   0  0  0  0  0  0  0  0  0  0  0  0
   -0.8673   -1.8935   -1.9117 H   0  0  0  0  0  0  0  0  0  0  0  0
    0.7313   -1.7802   -2.6665 H   0  0  0  0  0  0  0  0  0  0  0  0
    0.5679   -2.5305   -1.0761 H   0  0  0  0  0  0  0  0  0  0  0  0
   -0.0212    0.7884   -1.9875 C   0  0  0  0  0  0  0  0  0  0  0  0
   -0.9676    0.5229   -2.4696 H   0  0  0  0  0  0  0  0  0  0  0  0
   -0.1903    1.7185   -1.4425 H   0  0  0  0  0  0  0  0  0  0  0  0
    1.0385    1.0999   -3.0489 C   0  0  0  0  0  0  0  0  0  0  0  0
    1.2255    0.2292   -3.6836 H   0  0  0  0  0  0  0  0  0  0  0  0
    0.6961    1.9209   -3.6864 H   0  0  0  0  0  0  0  0  0  0  0  0
    1.9792    1.3995   -2.5768 H   0  0  0  0  0  0  0  0  0  0  0  0
   -0.2442    1.1352    1.0037 C   0  0  0  0  0  0  0  0  0  0  0  0
   -1.2844    1.7765    0.8934 O   0  0  0  0  0  0  0  0  0  0  0  0
    0.7639    1.6274    1.8121 N   0  0  0  0  0  0  0  0  0  0  0  0
    1.5793    1.0395    1.9592 H   0  0  0  0  0  0  0  0  0  0  0  0
    0.6743    2.9003    2.5168 C   0  0  0  0  0  0  0  0  0  0  0  0
   -0.1762    2.8976    3.2069 H   0  0  0  0  0  0  0  0  0  0  0  0
    1.5867    3.0784    3.0939 H   0  0  0  0  0  0  0  0  0  0  0  0
    0.5489    3.7231    1.8053 H   0  0  0  0  0  0  0  0  0  0  0  0
  1  2  1  0  0  0  0
  2  3  1  0  0  0  0
  2  4  1  0  0  0  0
  2  5  1  0  0  0  0
  5  6  2  0  0  0  0
  5  7  1  0  0  0  0
  7  8  1  0  0  0  0
  7  9  1  0  0  0  0
  9 10  1  0  0  0  0
  9 11  1  0  0  0  0
  9 24  1  0  0  0  0
 11 12  1  0  0  0  0
 11 13  1  0  0  0  0
 11 17  1  0  0  0  0
 13 14  1  0  0  0  0
 13 15  1  0  0  0  0
 13 16  1  0  0  0  0
 17 18  1  0  0  0  0
 17 19  1  0  0  0  0
 17 20  1  0  0  0  0
 20 21  1  0  0  0  0
 20 22  1  0  0  0  0
 20 23  1  0  0  0  0
 24 25  2  0  0  0  0
 24 26  1  0  0  0  0
 26 27  1  0  0  0  0
 26 28  1  0  0  0  0
 28 29  1  0  0  0  0
 28 30  1  0  0  0  0
 28 31  1  0  0  0  0
M  END
$$$$

  -OEChem-03222214053D

 31 30  0     1  0  0  0  0  0999 V2000
   -2.9658   -3.8741    1.5357 H   0  0  0  0  0  0  0  0  0  0  0  0
   -3.0030   -2.8536    1.1441 C   0  0  0  0  0  0  0  0  0  0  0  0
   -3.5853   -2.2338    1.8304 H   0  0  0  0  0  0  0  0  0  0  0  0
   -3.4959   -2.8679    0.1690 H   0  0  0  0  0  0  0  0  0  0  0  0
   -1.5996   -2.2948    1.0056 C   0  0  0  0  0  0  0  0  0  0  0  0
   -0.6381   -2.9802    1.3168 O   0  0  0  0  0  0  0  0  0  0  0  0
   -1.4235   -1.0019    0.5575 N   0  0  0  0  0  0  0  0  0  0  0  0
   -2.2605   -0.4390    0.4151 H   0  0  0  0  0  0  0  0  0  0  0  0
   -0.1319   -0.3070    0.4160 C   0  0  1  0  0  0  0  0  0  0  0  0
    0.5914   -0.8276    1.0518 H   0  0  0  0  0  0  0  0  0  0  0  0
    0.4370   -0.3762   -1.0399 C   0  0  1  0  0  0  0  0  0  0  0  0
    1.5217   -0.2715   -0.9297 H   0  0  0  0  0  0  0  0  0  0  0  0
    0.1928   -1.7417   -1.7096 C   0  0  0  0  0  0  0  0  0  0  0  0
   -0.8666   -1.8755   -1.9485 H   0  0  0  0  0  0  0  0  0  0  0  0
    0.7685   -1.8320   -2.6344 H   0  0  0  0  0  0  0  0  0  0  0  0
    0.5105   -2.5522   -1.0474 H   0  0  0  0  0  0  0  0  0  0  0  0
   -0.0161    0.7896   -1.9572 C   0  0  0  0  0  0  0  0  0  0  0  0
   -1.0730    0.6654   -2.2146 H   0  0  0  0  0  0  0  0  0  0  0  0
    0.0866    1.7475   -1.4416 H   0  0  0  0  0  0  0  0  0  0  0  0
    0.8219    0.9030   -3.2347 C   0  0  0  0  0  0  0  0  0  0  0  0
    0.6672    0.0382   -3.8856 H   0  0  0  0  0  0  0  0  0  0  0  0
    0.5312    1.8000   -3.7901 H   0  0  0  0  0  0  0  0  0  0  0  0
    1.8864    0.9770   -2.9918 H   0  0  0  0  0  0  0  0  0  0  0  0
   -0.2348    1.1221    0.9910 C   0  0  0  0  0  0  0  0  0  0  0  0
   -1.2657    1.7712    0.8452 O   0  0  0  0  0  0  0  0  0  0  0  0
    0.7643    1.6225    1.8053 N   0  0  0  0  0  0  0  0  0  0  0  0
    1.5749    1.0336    1.9733 H   0  0  0  0  0  0  0  0  0  0  0  0
    0.6746    2.9107    2.4819 C   0  0  0  0  0  0  0  0  0  0  0  0
   -0.1893    2.9304    3.1548 H   0  0  0  0  0  0  0  0  0  0  0  0
    1.5773    3.0916    3.0733 H   0  0  0  0  0  0  0  0  0  0  0  0
    0.5718    3.7205    1.7519 H   0  0  0  0  0  0  0  0  0  0  0  0
  1  2  1  0  0  0  0
  2  3  1  0  0  0  0
  2  4  1  0  0  0  0
  2  5  1  0  0  0  0
  5  6  2  0  0  0  0
  5  7  1  0  0  0  0
  7  8  1  0  0  0  0
  7  9  1  0  0  0  0
  9 10  1  0  0  0  0
  9 11  1  0  0  0  0
  9 24  1  0  0  0  0
 11 12  1  0  0  0  0
 11 13  1  0  0  0  0
 11 17  1  0  0  0  0
 13 14  1  0  0  0  0
 13 15  1  0  0  0  0
 13 16  1  0  0  0  0
 17 18  1  0  0  0  0
 17 19  1  0  0  0  0
 17 20  1  0  0  0  0
 20 21  1  0  0  0  0
 20 22  1  0  0  0  0
 20 23  1  0  0  0  0
 24 25  2  0  0  0  0
 24 26  1  0  0  0  0
 26 27  1  0  0  0  0
 26 28  1  0  0  0  0
 28 29  1  0  0  0  0
 28 30  1  0  0  0  0
 28 31  1  0  0  0  0
M  END
$$$$

  -OEChem-03222214053D

 31 30  0     1  0  0  0  0  0999 V2000
   -2.9770   -3.8611    1.5761 H   0  0  0  0  0  0  0  0  0  0  0  0
   -3.0133   -2.8440    1.1757 C   0  0  0  0  0  0  0  0  0  0  0  0
   -3.5772   -2.2134    1.8673 H   0  0  0  0  0  0  0  0  0  0  0  0
   -3.5251   -2.8631    0.2105 H   0  0  0  0  0  0  0  0  0  0  0  0
   -1.6081   -2.2980    1.0061 C   0  0  0  0  0  0  0  0  0  0  0  0
   -0.6456   -2.9919    1.2950 O   0  0  0  0  0  0  0  0  0  0  0  0
   -1.4276   -1.0075    0.5530 N   0  0  0  0  0  0  0  0  0  0  0  0
   -2.2610   -0.4357    0.4246 H   0  0  0  0  0  0  0  0  0  0  0  0
   -0.1302   -0.3224    0.4095 C   0  0  1  0  0  0  0  0  0  0  0  0
    0.5870   -0.8419    1.0531 H   0  0  0  0  0  0  0  0  0  0  0  0
    0.4597   -0.3896   -1.0443 C   0  0  1  0  0  0  0  0  0  0  0  0
    1.5346   -0.5633   -0.9257 H   0  0  0  0  0  0  0  0  0  0  0  0
   -0.0828   -1.5825   -1.8582 C   0  0  0  0  0  0  0  0  0  0  0  0
   -1.1351   -1.4296   -2.1168 H   0  0  0  0  0  0  0  0  0  0  0  0
    0.4861   -1.7179   -2.7819 H   0  0  0  0  0  0  0  0  0  0  0  0
    0.0112   -2.5104   -1.2873 H   0  0  0  0  0  0  0  0  0  0  0  0
    0.3264    0.9464   -1.8228 C   0  0  0  0  0  0  0  0  0  0  0  0
   -0.7294    1.2323   -1.8777 H   0  0  0  0  0  0  0  0  0  0  0  0
    0.8616    1.7357   -1.2854 H   0  0  0  0  0  0  0  0  0  0  0  0
    0.8963    0.9034   -3.2444 C   0  0  0  0  0  0  0  0  0  0  0  0
    0.2897    0.2644   -3.8927 H   0  0  0  0  0  0  0  0  0  0  0  0
    0.8994    1.9105   -3.6727 H   0  0  0  0  0  0  0  0  0  0  0  0
    1.9243    0.5282   -3.2353 H   0  0  0  0  0  0  0  0  0  0  0  0
   -0.2437    1.1071    0.9849 C   0  0  0  0  0  0  0  0  0  0  0  0
   -1.2692    1.7593    0.8176 O   0  0  0  0  0  0  0  0  0  0  0  0
    0.7483    1.6126    1.8050 N   0  0  0  0  0  0  0  0  0  0  0  0
    1.5574    1.0248    1.9839 H   0  0  0  0  0  0  0  0  0  0  0  0
    0.6596    2.9114    2.4606 C   0  0  0  0  0  0  0  0  0  0  0  0
   -0.2131    2.9478    3.1215 H   0  0  0  0  0  0  0  0  0  0  0  0
    1.5560    3.0943    3.0611 H   0  0  0  0  0  0  0  0  0  0  0  0
    0.5727    3.7106    1.7169 H   0  0  0  0  0  0  0  0  0  0  0  0
  1  2  1  0  0  0  0
  2  3  1  0  0  0  0
  2  4  1  0  0  0  0
  2  5  1  0  0  0  0
  5  6  2  0  0  0  0
  5  7  1  0  0  0  0
  7  8  1  0  0  0  0
  7  9  1  0  0  0  0
  9 10  1  0  0  0  0
  9 11  1  0  0  0  0
  9 24  1  0  0  0  0
 11 12  1  0  0  0  0
 11 13  1  0  0  0  0
 11 17  1  0  0  0  0
 13 14  1  0  0  0  0
 13 15  1  0  0  0  0
 13 16  1  0  0  0  0
 17 18  1  0  0  0  0
 17 19  1  0  0  0  0
 17 20  1  0  0  0  0
 20 21  1  0  0  0  0
 20 22  1  0  0  0  0
 20 23  1  0  0  0  0
 24 25  2  0  0  0  0
 24 26  1  0  0  0  0
 26 27  1  0  0  0  0
 26 28  1  0  0  0  0
 28 29  1  0  0  0  0
 28 30  1  0  0  0  0
 28 31  1  0  0  0  0
M  END
$$$$

  -OEChem-03222214053D

 31 30  0     1  0  0  0  0  0999 V2000
   -2.9879   -3.8630    1.5747 H   0  0  0  0  0  0  0  0  0  0  0  0
   -3.0256   -2.8453    1.1760 C   0  0  0  0  0  0  0  0  0  0  0  0
   -3.5910   -2.2166    1.8683 H   0  0  0  0  0  0  0  0  0  0  0  0
   -3.5366   -2.8635    0.2104 H   0  0  0  0  0  0  0  0  0  0  0  0
   -1.6212   -2.2966    1.0077 C   0  0  0  0  0  0  0  0  0  0  0  0
   -0.6578   -2.9887    1.2983 O   0  0  0  0  0  0  0  0  0  0  0  0
   -1.4437   -1.0055    0.5540 N   0  0  0  0  0  0  0  0  0  0  0  0
   -2.2788   -0.4367    0.4240 H   0  0  0  0  0  0  0  0  0  0  0  0
   -0.1483   -0.3175    0.4045 C   0  0  1  0  0  0  0  0  0  0  0  0
    0.5655   -0.8368    1.0521 H   0  0  0  0  0  0  0  0  0  0  0  0
    0.4568   -0.3919   -1.0425 C   0  0  1  0  0  0  0  0  0  0  0  0
    1.5328   -0.5554   -0.9199 H   0  0  0  0  0  0  0  0  0  0  0  0
   -0.0674   -1.6064   -1.8377 C   0  0  0  0  0  0  0  0  0  0  0  0
   -1.1230   -1.4768   -2.0959 H   0  0  0  0  0  0  0  0  0  0  0  0
    0.5027   -1.7458   -2.7604 H   0  0  0  0  0  0  0  0  0  0  0  0
    0.0445   -2.5239   -1.2535 H   0  0  0  0  0  0  0  0  0  0  0  0
    0.3179    0.9438   -1.8262 C   0  0  0  0  0  0  0  0  0  0  0  0
   -0.6963    1.3348   -1.6950 H   0  0  0  0  0  0  0  0  0  0  0  0
    1.0177    1.6766   -1.4107 H   0  0  0  0  0  0  0  0  0  0  0  0
    0.5571    0.8431   -3.3365 C   0  0  0  0  0  0  0  0  0  0  0  0
   -0.2239    0.2491   -3.8205 H   0  0  0  0  0  0  0  0  0  0  0  0
    0.5436    1.8433   -3.7802 H   0  0  0  0  0  0  0  0  0  0  0  0
    1.5312    0.3879   -3.5408 H   0  0  0  0  0  0  0  0  0  0  0  0
   -0.2449    1.1154    0.9766 C   0  0  0  0  0  0  0  0  0  0  0  0
   -1.2755    1.7669    0.8400 O   0  0  0  0  0  0  0  0  0  0  0  0
    0.7601    1.6128    1.7859 N   0  0  0  0  0  0  0  0  0  0  0  0
    1.5706    1.0220    1.9478 H   0  0  0  0  0  0  0  0  0  0  0  0
    0.6831    2.9053    2.4553 C   0  0  0  0  0  0  0  0  0  0  0  0
   -0.1753    2.9346    3.1347 H   0  0  0  0  0  0  0  0  0  0  0  0
    1.5914    3.0837    3.0386 H   0  0  0  0  0  0  0  0  0  0  0  0
    0.5800    3.7110    1.7209 H   0  0  0  0  0  0  0  0  0  0  0  0
  1  2  1  0  0  0  0
  2  3  1  0  0  0  0
  2  4  1  0  0  0  0
  2  5  1  0  0  0  0
  5  6  2  0  0  0  0
  5  7  1  0  0  0  0
  7  8  1  0  0  0  0
  7  9  1  0  0  0  0
  9 10  1  0  0  0  0
  9 11  1  0  0  0  0
  9 24  1  0  0  0  0
 11 12  1  0  0  0  0
 11 13  1  0  0  0  0
 11 17  1  0  0  0  0
 13 14  1  0  0  0  0
 13 15  1  0  0  0  0
 13 16  1  0  0  0  0
 17 18  1  0  0  0  0
 17 19  1  0  0  0  0
 17 20  1  0  0  0  0
 20 21  1  0  0  0  0
 20 22  1  0  0  0  0
 20 23  1  0  0  0  0
 24 25  2  0  0  0  0
 24 26  1  0  0  0  0
 26 27  1  0  0  0  0
 26 28  1  0  0  0  0
 28 29  1  0  0  0  0
 28 30  1  0  0  0  0
 28 31  1  0  0  0  0
M  END
$$$$

  -OEChem-03222214053D

 31 30  0     1  0  0  0  0  0999 V2000
   -2.9957   -3.8577    1.5668 H   0  0  0  0  0  0  0  0  0  0  0  0
   -3.0354   -2.8371    1.1761 C   0  0  0  0  0  0  0  0  0  0  0  0
   -3.5959   -2.2135    1.8769 H   0  0  0  0  0  0  0  0  0  0  0  0
   -3.5529   -2.8479    0.2139 H   0  0  0  0  0  0  0  0  0  0  0  0
   -1.6321   -2.2876    1.0028 C   0  0  0  0  0  0  0  0  0  0  0  0
   -0.6677   -2.9811    1.2862 O   0  0  0  0  0  0  0  0  0  0  0  0
   -1.4583   -0.9925    0.5589 N   0  0  0  0  0  0  0  0  0  0  0  0
   -2.2953   -0.4238    0.4412 H   0  0  0  0  0  0  0  0  0  0  0  0
   -0.1661   -0.3005    0.4002 C   0  0  1  0  0  0  0  0  0  0  0  0
    0.5475   -0.8236    1.0451 H   0  0  0  0  0  0  0  0  0  0  0  0
    0.4441   -0.3812   -1.0454 C   0  0  1  0  0  0  0  0  0  0  0  0
    1.5215   -0.5287   -0.9141 H   0  0  0  0  0  0  0  0  0  0  0  0
   -0.0473   -1.6278   -1.8132 C   0  0  0  0  0  0  0  0  0  0  0  0
   -1.1114   -1.5452   -2.0550 H   0  0  0  0  0  0  0  0  0  0  0  0
    0.5132   -1.7614   -2.7425 H   0  0  0  0  0  0  0  0  0  0  0  0
    0.1095   -2.5300   -1.2158 H   0  0  0  0  0  0  0  0  0  0  0  0
    0.3073    0.9444   -1.8567 C   0  0  0  0  0  0  0  0  0  0  0  0
   -0.6083    1.4621   -1.5591 H   0  0  0  0  0  0  0  0  0  0  0  0
    1.1522    1.5980   -1.6165 H   0  0  0  0  0  0  0  0  0  0  0  0
    0.1984    0.7964   -3.3789 C   0  0  0  0  0  0  0  0  0  0  0  0
   -0.7046    0.2452   -3.6583 H   0  0  0  0  0  0  0  0  0  0  0  0
    0.1467    1.7861   -3.8429 H   0  0  0  0  0  0  0  0  0  0  0  0
    1.0747    0.2769   -3.7786 H   0  0  0  0  0  0  0  0  0  0  0  0
   -0.2476    1.1287    0.9836 C   0  0  0  0  0  0  0  0  0  0  0  0
   -1.2859    1.7753    0.8886 O   0  0  0  0  0  0  0  0  0  0  0  0
    0.7717    1.6155    1.7814 N   0  0  0  0  0  0  0  0  0  0  0  0
    1.5843    1.0222    1.9218 H   0  0  0  0  0  0  0  0  0  0  0  0
    0.6991    2.8909    2.4835 C   0  0  0  0  0  0  0  0  0  0  0  0
   -0.1391    2.8932    3.1882 H   0  0  0  0  0  0  0  0  0  0  0  0
    1.6222    3.0673    3.0438 H   0  0  0  0  0  0  0  0  0  0  0  0
    0.5646    3.7127    1.7722 H   0  0  0  0  0  0  0  0  0  0  0  0
  1  2  1  0  0  0  0
  2  3  1  0  0  0  0
  2  4  1  0  0  0  0
  2  5  1  0  0  0  0
  5  6  2  0  0  0  0
  5  7  1  0  0  0  0
  7  8  1  0  0  0  0
  7  9  1  0  0  0  0
  9 10  1  0  0  0  0
  9 11  1  0  0  0  0
  9 24  1  0  0  0  0
 11 12  1  0  0  0  0
 11 13  1  0  0  0  0
 11 17  1  0  0  0  0
 13 14  1  0  0  0  0
 13 15  1  0  0  0  0
 13 16  1  0  0  0  0
 17 18  1  0  0  0  0
 17 19  1  0  0  0  0
 17 20  1  0  0  0  0
 20 21  1  0  0  0  0
 20 22  1  0  0  0  0
 20 23  1  0  0  0  0
 24 25  2  0  0  0  0
 24 26  1  0  0  0  0
 26 27  1  0  0  0  0
 26 28  1  0  0  0  0
 28 29  1  0  0  0  0
 28 30  1  0  0  0  0
 28 31  1  0  0  0  0
M  END
$$$$

  -OEChem-03222214053D

 31 30  0     1  0  0  0  0  0999 V2000
   -2.9954   -3.8578    1.5398 H   0  0  0  0  0  0  0  0  0  0  0  0
   -3.0382   -2.8317    1.1640 C   0  0  0  0  0  0  0  0  0  0  0  0
   -3.6035   -2.2206    1.8719 H   0  0  0  0  0  0  0  0  0  0  0  0
   -3.5526   -2.8303    0.2001 H   0  0  0  0  0  0  0  0  0  0  0  0
   -1.6365   -2.2745    1.0025 C   0  0  0  0  0  0  0  0  0  0  0  0
   -0.6701   -2.9665    1.2832 O   0  0  0  0  0  0  0  0  0  0  0  0
   -1.4663   -0.9744    0.5721 N   0  0  0  0  0  0  0  0  0  0  0  0
   -2.3051   -0.4080    0.4571 H   0  0  0  0  0  0  0  0  0  0  0  0
   -0.1763   -0.2800    0.4058 C   0  0  1  0  0  0  0  0  0  0  0  0
    0.5412   -0.8089    1.0414 H   0  0  0  0  0  0  0  0  0  0  0  0
    0.4203   -0.3641   -1.0467 C   0  0  1  0  0  0  0  0  0  0  0  0
    1.4989   -0.4912   -0.9052 H   0  0  0  0  0  0  0  0  0  0  0  0
   -0.0304   -1.6400   -1.7905 C   0  0  0  0  0  0  0  0  0  0  0  0
   -1.1004   -1.6088   -2.0175 H   0  0  0  0  0  0  0  0  0  0  0  0
    0.5235   -1.7624   -2.7253 H   0  0  0  0  0  0  0  0  0  0  0  0
    0.1722   -2.5259   -1.1826 H   0  0  0  0  0  0  0  0  0  0  0  0
    0.2924    0.9455   -1.8944 C   0  0  0  0  0  0  0  0  0  0  0  0
   -0.4359    1.6235   -1.4474 H   0  0  0  0  0  0  0  0  0  0  0  0
    1.2583    1.4614   -1.8914 H   0  0  0  0  0  0  0  0  0  0  0  0
   -0.1750    0.7753   -3.3457 C   0  0  0  0  0  0  0  0  0  0  0  0
   -1.1637    0.3088   -3.3872 H   0  0  0  0  0  0  0  0  0  0  0  0
   -0.2435    1.7553   -3.8279 H   0  0  0  0  0  0  0  0  0  0  0  0
    0.5346    0.1683   -3.9155 H   0  0  0  0  0  0  0  0  0  0  0  0
   -0.2495    1.1419    1.0067 C   0  0  0  0  0  0  0  0  0  0  0  0
   -1.2901    1.7881    0.9362 O   0  0  0  0  0  0  0  0  0  0  0  0
    0.7804    1.6184    1.7971 N   0  0  0  0  0  0  0  0  0  0  0  0
    1.5940    1.0225    1.9195 H   0  0  0  0  0  0  0  0  0  0  0  0
    0.7144    2.8804    2.5242 C   0  0  0  0  0  0  0  0  0  0  0  0
   -0.1153    2.8683    3.2389 H   0  0  0  0  0  0  0  0  0  0  0  0
    1.6439    3.0477    3.0768 H   0  0  0  0  0  0  0  0  0  0  0  0
    0.5700    3.7153    1.8305 H   0  0  0  0  0  0  0  0  0  0  0  0
  1  2  1  0  0  0  0
  2  3  1  0  0  0  0
  2  4  1  0  0  0  0
  2  5  1  0  0  0  0
  5  6  2  0  0  0  0
  5  7  1  0  0  0  0
  7  8  1  0  0  0  0
  7  9  1  0  0  0  0
  9 10  1  0  0  0  0
  9 11  1  0  0  0  0
  9 24  1  0  0  0  0
 11 12  1  0  0  0  0
 11 13  1  0  0  0  0
 11 17  1  0  0  0  0
 13 14  1  0  0  0  0
 13 15  1  0  0  0  0
 13 16  1  0  0  0  0
 17 18  1  0  0  0  0
 17 19  1  0  0  0  0
 17 20  1  0  0  0  0
 20 21  1  0  0  0  0
 20 22  1  0  0  0  0
 20 23  1  0  0  0  0
 24 25  2  0  0  0  0
 24 26  1  0  0  0  0
 26 27  1  0  0  0  0
 26 28  1  0  0  0  0
 28 29  1  0  0  0  0
 28 30  1  0  0  0  0
 28 31  1  0  0  0  0
M  END
$$$$

  -OEChem-03222214053D

 31 30  0     1  0  0  0  0  0999 V2000
   -2.9958   -3.8494    1.5324 H   0  0  0  0  0  0  0  0  0  0  0  0
   -3.0355   -2.8232    1.1568 C   0  0  0  0  0  0  0  0  0  0  0  0
   -3.6037   -2.2116    1.8620 H   0  0  0  0  0  0  0  0  0  0  0  0
   -3.5446   -2.8211    0.1900 H   0  0  0  0  0  0  0  0  0  0  0  0
   -1.6326   -2.2672    1.0030 C   0  0  0  0  0  0  0  0  0  0  0  0
   -0.6677   -2.9635    1.2782 O   0  0  0  0  0  0  0  0  0  0  0  0
   -1.4593   -0.9653    0.5799 N   0  0  0  0  0  0  0  0  0  0  0  0
   -2.2963   -0.3961    0.4653 H   0  0  0  0  0  0  0  0  0  0  0  0
   -0.1676   -0.2746    0.4159 C   0  0  1  0  0  0  0  0  0  0  0  0
    0.5557   -0.8078    1.0414 H   0  0  0  0  0  0  0  0  0  0  0  0
    0.4002   -0.3564   -1.0476 C   0  0  1  0  0  0  0  0  0  0  0  0
    1.4798   -0.4682   -0.8995 H   0  0  0  0  0  0  0  0  0  0  0  0
   -0.0193   -1.6441   -1.7872 C   0  0  0  0  0  0  0  0  0  0  0  0
   -1.0927   -1.6505   -1.9992 H   0  0  0  0  0  0  0  0  0  0  0  0
    0.5260   -1.7406   -2.7304 H   0  0  0  0  0  0  0  0  0  0  0  0
    0.2217   -2.5238   -1.1837 H   0  0  0  0  0  0  0  0  0  0  0  0
    0.2834    0.9429   -1.9144 C   0  0  0  0  0  0  0  0  0  0  0  0
   -0.1513    1.7719   -1.3568 H   0  0  0  0  0  0  0  0  0  0  0  0
    1.2951    1.2556   -2.1930 H   0  0  0  0  0  0  0  0  0  0  0  0
   -0.5337    0.8119   -3.2059 C   0  0  0  0  0  0  0  0  0  0  0  0
   -1.5518    0.4775   -2.9841 H   0  0  0  0  0  0  0  0  0  0  0  0
   -0.5956    1.7848   -3.7031 H   0  0  0  0  0  0  0  0  0  0  0  0
   -0.0676    0.1084   -3.9016 H   0  0  0  0  0  0  0  0  0  0  0  0
   -0.2458    1.1415    1.0275 C   0  0  0  0  0  0  0  0  0  0  0  0
   -1.2825    1.7923    0.9436 O   0  0  0  0  0  0  0  0  0  0  0  0
    0.7808    1.6159    1.8233 N   0  0  0  0  0  0  0  0  0  0  0  0
    1.5938    1.0197    1.9478 H   0  0  0  0  0  0  0  0  0  0  0  0
    0.7138    2.8779    2.5499 C   0  0  0  0  0  0  0  0  0  0  0  0
   -0.1339    2.8770    3.2432 H   0  0  0  0  0  0  0  0  0  0  0  0
    1.6311    3.0314    3.1265 H   0  0  0  0  0  0  0  0  0  0  0  0
    0.5987    3.7151    1.8535 H   0  0  0  0  0  0  0  0  0  0  0  0
  1  2  1  0  0  0  0
  2  3  1  0  0  0  0
  2  4  1  0  0  0  0
  2  5  1  0  0  0  0
  5  6  2  0  0  0  0
  5  7  1  0  0  0  0
  7  8  1  0  0  0  0
  7  9  1  0  0  0  0
  9 10  1  0  0  0  0
  9 11  1  0  0  0  0
  9 24  1  0  0  0  0
 11 12  1  0  0  0  0
 11 13  1  0  0  0  0
 11 17  1  0  0  0  0
 13 14  1  0  0  0  0
 13 15  1  0  0  0  0
 13 16  1  0  0  0  0
 17 18  1  0  0  0  0
 17 19  1  0  0  0  0
 17 20  1  0  0  0  0
 20 21  1  0  0  0  0
 20 22  1  0  0  0  0
 20 23  1  0  0  0  0
 24 25  2  0  0  0  0
 24 26  1  0  0  0  0
 26 27  1  0  0  0  0
 26 28  1  0  0  0  0
 28 29  1  0  0  0  0
 28 30  1  0  0  0  0
 28 31  1  0  0  0  0
M  END
$$$$

  -OEChem-03222214053D

 31 30  0     1  0  0  0  0  0999 V2000
   -2.9926   -3.8515    1.5402 H   0  0  0  0  0  0  0  0  0  0  0  0
   -3.0313   -2.8248    1.1655 C   0  0  0  0  0  0  0  0  0  0  0  0
   -3.5959   -2.2130    1.8731 H   0  0  0  0  0  0  0  0  0  0  0  0
   -3.5435   -2.8208    0.2003 H   0  0  0  0  0  0  0  0  0  0  0  0
   -1.6274   -2.2721    1.0077 C   0  0  0  0  0  0  0  0  0  0  0  0
   -0.6639   -2.9709    1.2807 O   0  0  0  0  0  0  0  0  0  0  0  0
   -1.4496   -0.9723    0.5802 N   0  0  0  0  0  0  0  0  0  0  0  0
   -2.2840   -0.4003    0.4605 H   0  0  0  0  0  0  0  0  0  0  0  0
   -0.1540   -0.2874    0.4246 C   0  0  1  0  0  0  0  0  0  0  0  0
    0.5704   -0.8207    1.0489 H   0  0  0  0  0  0  0  0  0  0  0  0
    0.3999   -0.3632   -1.0427 C   0  0  1  0  0  0  0  0  0  0  0  0
    1.4794   -0.4796   -0.8967 H   0  0  0  0  0  0  0  0  0  0  0  0
   -0.0286   -1.6347   -1.8023 C   0  0  0  0  0  0  0  0  0  0  0  0
   -1.1068   -1.6460   -1.9881 H   0  0  0  0  0  0  0  0  0  0  0  0
    0.4915   -1.6958   -2.7630 H   0  0  0  0  0  0  0  0  0  0  0  0
    0.2342   -2.5270   -1.2265 H   0  0  0  0  0  0  0  0  0  0  0  0
    0.2913    0.9367   -1.9017 C   0  0  0  0  0  0  0  0  0  0  0  0
    0.1697    1.8341   -1.2943 H   0  0  0  0  0  0  0  0  0  0  0  0
    1.2410    1.0621   -2.4319 H   0  0  0  0  0  0  0  0  0  0  0  0
   -0.8121    0.9166   -2.9660 C   0  0  0  0  0  0  0  0  0  0  0  0
   -1.7843    0.7269   -2.5004 H   0  0  0  0  0  0  0  0  0  0  0  0
   -0.8563    1.8864   -3.4710 H   0  0  0  0  0  0  0  0  0  0  0  0
   -0.6236    0.1510   -3.7241 H   0  0  0  0  0  0  0  0  0  0  0  0
   -0.2431    1.1292    1.0317 C   0  0  0  0  0  0  0  0  0  0  0  0
   -1.2715    1.7873    0.9106 O   0  0  0  0  0  0  0  0  0  0  0  0
    0.7721    1.6093    1.8387 N   0  0  0  0  0  0  0  0  0  0  0  0
    1.5806    1.0118    1.9848 H   0  0  0  0  0  0  0  0  0  0  0  0
    0.7022    2.8863    2.5379 C   0  0  0  0  0  0  0  0  0  0  0  0
   -0.1525    2.9022    3.2224 H   0  0  0  0  0  0  0  0  0  0  0  0
    1.6141    3.0489    3.1204 H   0  0  0  0  0  0  0  0  0  0  0  0
    0.5968    3.7088    1.8226 H   0  0  0  0  0  0  0  0  0  0  0  0
  1  2  1  0  0  0  0
  2  3  1  0  0  0  0
  2  4  1  0  0  0  0
  2  5  1  0  0  0  0
  5  6  2  0  0  0  0
  5  7  1  0  0  0  0
  7  8  1  0  0  0  0
  7  9  1  0  0  0  0
  9 10  1  0  0  0  0
  9 11  1  0  0  0  0
  9 24  1  0  0  0  0
 11 12  1  0  0  0  0
 11 13  1  0  0  0  0
 11 17  1  0  0  0  0
 13 14  1  0  0  0  0
 13 15  1  0  0  0  0
 13 16  1  0  0  0  0
 17 18  1  0  0  0  0
 17 19  1  0  0  0  0
 17 20  1  0  0  0  0
 20 21  1  0  0  0  0
 20 22  1  0  0  0  0
 20 23  1  0  0  0  0
 24 25  2  0  0  0  0
 24 26  1  0  0  0  0
 26 27  1  0  0  0  0
 26 28  1  0  0  0  0
 28 29  1  0  0  0  0
 28 30  1  0  0  0  0
 28 31  1  0  0  0  0
M  END
$$$$

  -OEChem-03222214053D

 31 30  0     1  0  0  0  0  0999 V2000
   -2.9895   -3.8465    1.5704 H   0  0  0  0  0  0  0  0  0  0  0  0
   -3.0256   -2.8248    1.1819 C   0  0  0  0  0  0  0  0  0  0  0  0
   -3.5858   -2.2012    1.8831 H   0  0  0  0  0  0  0  0  0  0  0  0
   -3.5413   -2.8317    0.2186 H   0  0  0  0  0  0  0  0  0  0  0  0
   -1.6202   -2.2794    1.0121 C   0  0  0  0  0  0  0  0  0  0  0  0
   -0.6572   -2.9804    1.2817 O   0  0  0  0  0  0  0  0  0  0  0  0
   -1.4399   -0.9834    0.5747 N   0  0  0  0  0  0  0  0  0  0  0  0
   -2.2724   -0.4082    0.4567 H   0  0  0  0  0  0  0  0  0  0  0  0
   -0.1419   -0.3022    0.4257 C   0  0  1  0  0  0  0  0  0  0  0  0
    0.5809   -0.8323    1.0546 H   0  0  0  0  0  0  0  0  0  0  0  0
    0.4132   -0.3759   -1.0395 C   0  0  1  0  0  0  0  0  0  0  0  0
    1.4921   -0.5074   -0.9031 H   0  0  0  0  0  0  0  0  0  0  0  0
   -0.0450   -1.6204   -1.8248 C   0  0  0  0  0  0  0  0  0  0  0  0
   -1.1285   -1.6236   -1.9770 H   0  0  0  0  0  0  0  0  0  0  0  0
    0.4415   -1.6485   -2.8047 H   0  0  0  0  0  0  0  0  0  0  0  0
    0.2321   -2.5313   -1.2855 H   0  0  0  0  0  0  0  0  0  0  0  0
    0.3046    0.9292   -1.8784 C   0  0  0  0  0  0  0  0  0  0  0  0
    0.4538    1.8234   -1.2695 H   0  0  0  0  0  0  0  0  0  0  0  0
    1.1208    0.9253   -2.6083 H   0  0  0  0  0  0  0  0  0  0  0  0
   -1.0028    1.0565   -2.6673 C   0  0  0  0  0  0  0  0  0  0  0  0
   -1.8617    0.9765   -1.9936 H   0  0  0  0  0  0  0  0  0  0  0  0
   -1.0429    2.0310   -3.1632 H   0  0  0  0  0  0  0  0  0  0  0  0
   -1.0810    0.2824   -3.4360 H   0  0  0  0  0  0  0  0  0  0  0  0
   -0.2398    1.1192    1.0204 C   0  0  0  0  0  0  0  0  0  0  0  0
   -1.2632    1.7796    0.8731 O   0  0  0  0  0  0  0  0  0  0  0  0
    0.7652    1.6078    1.8349 N   0  0  0  0  0  0  0  0  0  0  0  0
    1.5695    1.0099    2.0013 H   0  0  0  0  0  0  0  0  0  0  0  0
    0.6868    2.8928    2.5186 C   0  0  0  0  0  0  0  0  0  0  0  0
   -0.1844    2.9212    3.1816 H   0  0  0  0  0  0  0  0  0  0  0  0
    1.5851    3.0562    3.1216 H   0  0  0  0  0  0  0  0  0  0  0  0
    0.6045    3.7086    1.7927 H   0  0  0  0  0  0  0  0  0  0  0  0
  1  2  1  0  0  0  0
  2  3  1  0  0  0  0
  2  4  1  0  0  0  0
  2  5  1  0  0  0  0
  5  6  2  0  0  0  0
  5  7  1  0  0  0  0
  7  8  1  0  0  0  0
  7  9  1  0  0  0  0
  9 10  1  0  0  0  0
  9 11  1  0  0  0  0
  9 24  1  0  0  0  0
 11 12  1  0  0  0  0
 11 13  1  0  0  0  0
 11 17  1  0  0  0  0
 13 14  1  0  0  0  0
 13 15  1  0  0  0  0
 13 16  1  0  0  0  0
 17 18  1  0  0  0  0
 17 19  1  0  0  0  0
 17 20  1  0  0  0  0
 20 21  1  0  0  0  0
 20 22  1  0  0  0  0
 20 23  1  0  0  0  0
 24 25  2  0  0  0  0
 24 26  1  0  0  0  0
 26 27  1  0  0  0  0
 26 28  1  0  0  0  0
 28 29  1  0  0  0  0
 28 30  1  0  0  0  0
 28 31  1  0  0  0  0
M  END
$$$$

  -OEChem-03222214053D

 31 30  0     1  0  0  0  0  0999 V2000
   -2.9751   -3.8610    1.5784 H   0  0  0  0  0  0  0  0  0  0  0  0
   -3.0225   -2.8382    1.1944 C   0  0  0  0  0  0  0  0  0  0  0  0
   -3.5803   -2.2213    1.9031 H   0  0  0  0  0  0  0  0  0  0  0  0
   -3.5473   -2.8453    0.2360 H   0  0  0  0  0  0  0  0  0  0  0  0
   -1.6229   -2.2818    1.0135 C   0  0  0  0  0  0  0  0  0  0  0  0
   -0.6528   -2.9768    1.2724 O   0  0  0  0  0  0  0  0  0  0  0  0
   -1.4562   -0.9834    0.5782 N   0  0  0  0  0  0  0  0  0  0  0  0
   -2.2937   -0.4132    0.4737 H   0  0  0  0  0  0  0  0  0  0  0  0
   -0.1647   -0.2911    0.4259 C   0  0  1  0  0  0  0  0  0  0  0  0
    0.5532   -0.8178    1.0629 H   0  0  0  0  0  0  0  0  0  0  0  0
    0.4212   -0.3709   -1.0260 C   0  0  1  0  0  0  0  0  0  0  0  0
    1.4986   -0.5083   -0.8843 H   0  0  0  0  0  0  0  0  0  0  0  0
   -0.0511   -1.6000   -1.8260 C   0  0  0  0  0  0  0  0  0  0  0  0
   -1.1341   -1.5878   -1.9796 H   0  0  0  0  0  0  0  0  0  0  0  0
    0.4342   -1.6228   -2.8065 H   0  0  0  0  0  0  0  0  0  0  0  0
    0.2142   -2.5205   -1.2974 H   0  0  0  0  0  0  0  0  0  0  0  0
    0.3063    0.9238   -1.8706 C   0  0  0  0  0  0  0  0  0  0  0  0
    0.6569    1.7877   -1.2988 H   0  0  0  0  0  0  0  0  0  0  0  0
    0.9734    0.8353   -2.7342 H   0  0  0  0  0  0  0  0  0  0  0  0
   -1.1086    1.2005   -2.3942 C   0  0  0  0  0  0  0  0  0  0  0  0
   -1.8376    1.1998   -1.5798 H   0  0  0  0  0  0  0  0  0  0  0  0
   -1.1378    2.1800   -2.8811 H   0  0  0  0  0  0  0  0  0  0  0  0
   -1.4069    0.4473   -3.1290 H   0  0  0  0  0  0  0  0  0  0  0  0
   -0.2477    1.1334    1.0179 C   0  0  0  0  0  0  0  0  0  0  0  0
   -1.2792    1.7888    0.9172 O   0  0  0  0  0  0  0  0  0  0  0  0
    0.7716    1.6128    1.8204 N   0  0  0  0  0  0  0  0  0  0  0  0
    1.5808    1.0149    1.9611 H   0  0  0  0  0  0  0  0  0  0  0  0
    0.7061    2.8890    2.5222 C   0  0  0  0  0  0  0  0  0  0  0  0
   -0.1431    2.9039    3.2136 H   0  0  0  0  0  0  0  0  0  0  0  0
    1.6225    3.0516    3.0976 H   0  0  0  0  0  0  0  0  0  0  0  0
    0.5947    3.7127    1.8093 H   0  0  0  0  0  0  0  0  0  0  0  0
  1  2  1  0  0  0  0
  2  3  1  0  0  0  0
  2  4  1  0  0  0  0
  2  5  1  0  0  0  0
  5  6  2  0  0  0  0
  5  7  1  0  0  0  0
  7  8  1  0  0  0  0
  7  9  1  0  0  0  0
  9 10  1  0  0  0  0
  9 11  1  0  0  0  0
  9 24  1  0  0  0  0
 11 12  1  0  0  0  0
 11 13  1  0  0  0  0
 11 17  1  0  0  0  0
 13 14  1  0  0  0  0
 13 15  1  0  0  0  0
 13 16  1  0  0  0  0
 17 18  1  0  0  0  0
 17 19  1  0  0  0  0
 17 20  1  0  0  0  0
 20 21  1  0  0  0  0
 20 22  1  0  0  0  0
 20 23  1  0  0  0  0
 24 25  2  0  0  0  0
 24 26  1  0  0  0  0
 26 27  1  0  0  0  0
 26 28  1  0  0  0  0
 28 29  1  0  0  0  0
 28 30  1  0  0  0  0
 28 31  1  0  0  0  0
M  END
$$$$

  -OEChem-03222214053D

 31 30  0     1  0  0  0  0  0999 V2000
   -2.9446   -3.8853    1.5753 H   0  0  0  0  0  0  0  0  0  0  0  0
   -3.0143   -2.8566    1.2109 C   0  0  0  0  0  0  0  0  0  0  0  0
   -3.5658   -2.2606    1.9420 H   0  0  0  0  0  0  0  0  0  0  0  0
   -3.5587   -2.8543    0.2635 H   0  0  0  0  0  0  0  0  0  0  0  0
   -1.6268   -2.2771    1.0119 C   0  0  0  0  0  0  0  0  0  0  0  0
   -0.6429   -2.9623    1.2441 O   0  0  0  0  0  0  0  0  0  0  0  0
   -1.4900   -0.9675    0.5985 N   0  0  0  0  0  0  0  0  0  0  0  0
   -2.3401   -0.4110    0.5294 H   0  0  0  0  0  0  0  0  0  0  0  0
   -0.2164   -0.2458    0.4257 C   0  0  1  0  0  0  0  0  0  0  0  0
    0.4974   -0.7703    1.0693 H   0  0  0  0  0  0  0  0  0  0  0  0
    0.4187   -0.3392   -1.0050 C   0  0  1  0  0  0  0  0  0  0  0  0
    1.4942   -0.4657   -0.8402 H   0  0  0  0  0  0  0  0  0  0  0  0
   -0.0411   -1.5780   -1.7962 C   0  0  0  0  0  0  0  0  0  0  0  0
   -1.1191   -1.5546   -1.9804 H   0  0  0  0  0  0  0  0  0  0  0  0
    0.4702   -1.6247   -2.7626 H   0  0  0  0  0  0  0  0  0  0  0  0
    0.2011   -2.4926   -1.2474 H   0  0  0  0  0  0  0  0  0  0  0  0
    0.2948    0.9165   -1.9037 C   0  0  0  0  0  0  0  0  0  0  0  0
    0.8062    1.7508   -1.4131 H   0  0  0  0  0  0  0  0  0  0  0  0
    0.8182    0.7388   -2.8487 H   0  0  0  0  0  0  0  0  0  0  0  0
   -1.1447    1.3517   -2.2150 C   0  0  0  0  0  0  0  0  0  0  0  0
   -1.7537    1.4567   -1.3185 H   0  0  0  0  0  0  0  0  0  0  0  0
   -1.1347    2.3145   -2.7351 H   0  0  0  0  0  0  0  0  0  0  0  0
   -1.6284    0.6181   -2.8665 H   0  0  0  0  0  0  0  0  0  0  0  0
   -0.2640    1.1746    1.0348 C   0  0  0  0  0  0  0  0  0  0  0  0
   -1.3140    1.8061    1.0687 O   0  0  0  0  0  0  0  0  0  0  0  0
    0.7956    1.6288    1.7998 N   0  0  0  0  0  0  0  0  0  0  0  0
    1.6145    1.0317    1.8689 H   0  0  0  0  0  0  0  0  0  0  0  0
    0.7510    2.8563    2.5853 C   0  0  0  0  0  0  0  0  0  0  0  0
   -0.0384    2.7989    3.3423 H   0  0  0  0  0  0  0  0  0  0  0  0
    1.7068    3.0147    3.0938 H   0  0  0  0  0  0  0  0  0  0  0  0
    0.5569    3.7183    1.9384 H   0  0  0  0  0  0  0  0  0  0  0  0
  1  2  1  0  0  0  0
  2  3  1  0  0  0  0
  2  4  1  0  0  0  0
  2  5  1  0  0  0  0
  5  6  2  0  0  0  0
  5  7  1  0  0  0  0
  7  8  1  0  0  0  0
  7  9  1  0  0  0  0
  9 10  1  0  0  0  0
  9 11  1  0  0  0  0
  9 24  1  0  0  0  0
 11 12  1  0  0  0  0
 11 13  1  0  0  0  0
 11 17  1  0  0  0  0
 13 14  1  0  0  0  0
 13 15  1  0  0  0  0
 13 16  1  0  0  0  0
 17 18  1  0  0  0  0
 17 19  1  0  0  0  0
 17 20  1  0  0  0  0
 20 21  1  0  0  0  0
 20 22  1  0  0  0  0
 20 23  1  0  0  0  0
 24 25  2  0  0  0  0
 24 26  1  0  0  0  0
 26 27  1  0  0  0  0
 26 28  1  0  0  0  0
 28 29  1  0  0  0  0
 28 30  1  0  0  0  0
 28 31  1  0  0  0  0
M  END
$$$$

  -OEChem-03222214053D

 31 30  0     1  0  0  0  0  0999 V2000
   -2.9161   -3.8879    1.6234 H   0  0  0  0  0  0  0  0  0  0  0  0
   -2.9907   -2.8578    1.2640 C   0  0  0  0  0  0  0  0  0  0  0  0
   -3.5266   -2.2631    2.0078 H   0  0  0  0  0  0  0  0  0  0  0  0
   -3.5532   -2.8508    0.3273 H   0  0  0  0  0  0  0  0  0  0  0  0
   -1.6063   -2.2802    1.0401 C   0  0  0  0  0  0  0  0  0  0  0  0
   -0.6191   -2.9630    1.2651 O   0  0  0  0  0  0  0  0  0  0  0  0
   -1.4759   -0.9730    0.6172 N   0  0  0  0  0  0  0  0  0  0  0  0
   -2.3253   -0.4120    0.5774 H   0  0  0  0  0  0  0  0  0  0  0  0
   -0.2057   -0.2476    0.4312 C   0  0  1  0  0  0  0  0  0  0  0  0
    0.5144   -0.7616    1.0761 H   0  0  0  0  0  0  0  0  0  0  0  0
    0.4279   -0.3435   -1.0019 C   0  0  1  0  0  0  0  0  0  0  0  0
    1.5020   -0.4848   -0.8402 H   0  0  0  0  0  0  0  0  0  0  0  0
   -0.0521   -1.5851   -1.7790 C   0  0  0  0  0  0  0  0  0  0  0  0
   -1.1242   -1.5277   -1.9891 H   0  0  0  0  0  0  0  0  0  0  0  0
    0.4789   -1.6725   -2.7317 H   0  0  0  0  0  0  0  0  0  0  0  0
    0.1489   -2.4962   -1.2091 H   0  0  0  0  0  0  0  0  0  0  0  0
    0.3191    0.8902   -1.9399 C   0  0  0  0  0  0  0  0  0  0  0  0
    1.0469    1.6420   -1.6174 H   0  0  0  0  0  0  0  0  0  0  0  0
    0.6096    0.5908   -2.9521 H   0  0  0  0  0  0  0  0  0  0  0  0
   -1.0532    1.5700   -2.0146 C   0  0  0  0  0  0  0  0  0  0  0  0
   -1.1801    2.0322   -2.9983 H   0  0  0  0  0  0  0  0  0  0  0  0
   -1.1449    2.3643   -1.2720 H   0  0  0  0  0  0  0  0  0  0  0  0
   -1.8596    0.8452   -1.8693 H   0  0  0  0  0  0  0  0  0  0  0  0
   -0.2792    1.1703    1.0383 C   0  0  0  0  0  0  0  0  0  0  0  0
   -1.3579    1.7498    1.1163 O   0  0  0  0  0  0  0  0  0  0  0  0
    0.7717    1.6462    1.8017 N   0  0  0  0  0  0  0  0  0  0  0  0
    1.6135    1.0792    1.8468 H   0  0  0  0  0  0  0  0  0  0  0  0
    0.6929    2.8557    2.6124 C   0  0  0  0  0  0  0  0  0  0  0  0
   -0.0698    2.7465    3.3907 H   0  0  0  0  0  0  0  0  0  0  0  0
    1.6552    3.0502    3.0955 H   0  0  0  0  0  0  0  0  0  0  0  0
    0.4392    3.7194    1.9886 H   0  0  0  0  0  0  0  0  0  0  0  0
  1  2  1  0  0  0  0
  2  3  1  0  0  0  0
  2  4  1  0  0  0  0
  2  5  1  0  0  0  0
  5  6  2  0  0  0  0
  5  7  1  0  0  0  0
  7  8  1  0  0  0  0
  7  9  1  0  0  0  0
  9 10  1  0  0  0  0
  9 11  1  0  0  0  0
  9 24  1  0  0  0  0
 11 12  1  0  0  0  0
 11 13  1  0  0  0  0
 11 17  1  0  0  0  0
 13 14  1  0  0  0  0
 13 15  1  0  0  0  0
 13 16  1  0  0  0  0
 17 18  1  0  0  0  0
 17 19  1  0  0  0  0
 17 20  1  0  0  0  0
 20 21  1  0  0  0  0
 20 22  1  0  0  0  0
 20 23  1  0  0  0  0
 24 25  2  0  0  0  0
 24 26  1  0  0  0  0
 26 27  1  0  0  0  0
 26 28  1  0  0  0  0
 28 29  1  0  0  0  0
 28 30  1  0  0  0  0
 28 31  1  0  0  0  0
M  END
$$$$

  -OEChem-03222214053D

 31 30  0     1  0  0  0  0  0999 V2000
   -3.1156   -3.8620    1.3658 H   0  0  0  0  0  0  0  0  0  0  0  0
   -3.1413   -2.8230    1.0257 C   0  0  0  0  0  0  0  0  0  0  0  0
   -3.7337   -2.2355    1.7313 H   0  0  0  0  0  0  0  0  0  0  0  0
   -3.6155   -2.7855    0.0421 H   0  0  0  0  0  0  0  0  0  0  0  0
   -1.7332   -2.2651    0.9424 C   0  0  0  0  0  0  0  0  0  0  0  0
   -0.7830   -2.9647    1.2575 O   0  0  0  0  0  0  0  0  0  0  0  0
   -1.5435   -0.9550    0.5511 N   0  0  0  0  0  0  0  0  0  0  0  0
   -2.3774   -0.3817    0.4341 H   0  0  0  0  0  0  0  0  0  0  0  0
   -0.2509   -0.2480    0.4779 C   0  0  1  0  0  0  0  0  0  0  0  0
    0.4004   -0.7794    1.1795 H   0  0  0  0  0  0  0  0  0  0  0  0
    0.5122   -0.3542   -0.8948 C   0  0  1  0  0  0  0  0  0  0  0  0
    1.5621   -0.5181   -0.6285 H   0  0  0  0  0  0  0  0  0  0  0  0
    0.0855   -1.5988   -1.6987 C   0  0  0  0  0  0  0  0  0  0  0  0
   -0.9568   -1.5150   -2.0219 H   0  0  0  0  0  0  0  0  0  0  0  0
    0.7126   -1.7194   -2.5876 H   0  0  0  0  0  0  0  0  0  0  0  0
    0.2014   -2.5052   -1.0991 H   0  0  0  0  0  0  0  0  0  0  0  0
    0.5333    0.8596   -1.8755 C   0  0  0  0  0  0  0  0  0  0  0  0
    1.4163    1.4645   -1.6450 H   0  0  0  0  0  0  0  0  0  0  0  0
    0.6708    0.4941   -2.8984 H   0  0  0  0  0  0  0  0  0  0  0  0
   -0.6686    1.8075   -1.8783 C   0  0  0  0  0  0  0  0  0  0  0  0
   -0.7386    2.3078   -2.8488 H   0  0  0  0  0  0  0  0  0  0  0  0
   -0.5589    2.5881   -1.1222 H   0  0  0  0  0  0  0  0  0  0  0  0
   -1.5996    1.2578   -1.7091 H   0  0  0  0  0  0  0  0  0  0  0  0
   -0.3571    1.1610    1.0996 C   0  0  0  0  0  0  0  0  0  0  0  0
   -1.4314    1.7547    1.0954 O   0  0  0  0  0  0  0  0  0  0  0  0
    0.6334    1.6116    1.9533 N   0  0  0  0  0  0  0  0  0  0  0  0
    1.4628    1.0342    2.0556 H   0  0  0  0  0  0  0  0  0  0  0  0
    0.5085    2.8151    2.7668 C   0  0  0  0  0  0  0  0  0  0  0  0
   -0.3175    2.7128    3.4785 H   0  0  0  0  0  0  0  0  0  0  0  0
    1.4309    2.9878    3.3296 H   0  0  0  0  0  0  0  0  0  0  0  0
    0.3222    3.6885    2.1332 H   0  0  0  0  0  0  0  0  0  0  0  0
  1  2  1  0  0  0  0
  2  3  1  0  0  0  0
  2  4  1  0  0  0  0
  2  5  1  0  0  0  0
  5  6  2  0  0  0  0
  5  7  1  0  0  0  0
  7  8  1  0  0  0  0
  7  9  1  0  0  0  0
  9 10  1  0  0  0  0
  9 11  1  0  0  0  0
  9 24  1  0  0  0  0
 11 12  1  0  0  0  0
 11 13  1  0  0  0  0
 11 17  1  0  0  0  0
 13 14  1  0  0  0  0
 13 15  1  0  0  0  0
 13 16  1  0  0  0  0
 17 18  1  0  0  0  0
 17 19  1  0  0  0  0
 17 20  1  0  0  0  0
 20 21  1  0  0  0  0
 20 22  1  0  0  0  0
 20 23  1  0  0  0  0
 24 25  2  0  0  0  0
 24 26  1  0  0  0  0
 26 27  1  0  0  0  0
 26 28  1  0  0  0  0
 28 29  1  0  0  0  0
 28 30  1  0  0  0  0
 28 31  1  0  0  0  0
M  END
$$$$

  -OEChem-03222214053D

 31 30  0     1  0  0  0  0  0999 V2000
   -3.0398   -3.8900    1.4355 H   0  0  0  0  0  0  0  0  0  0  0  0
   -3.0831   -2.8440    1.1196 C   0  0  0  0  0  0  0  0  0  0  0  0
   -3.6403   -2.2732    1.8664 H   0  0  0  0  0  0  0  0  0  0  0  0
   -3.6063   -2.7867    0.1622 H   0  0  0  0  0  0  0  0  0  0  0  0
   -1.6818   -2.2806    0.9781 C   0  0  0  0  0  0  0  0  0  0  0  0
   -0.7157   -2.9860    1.2239 O   0  0  0  0  0  0  0  0  0  0  0  0
   -1.5151   -0.9586    0.6177 N   0  0  0  0  0  0  0  0  0  0  0  0
   -2.3557   -0.3864    0.5568 H   0  0  0  0  0  0  0  0  0  0  0  0
   -0.2306   -0.2472    0.4743 C   0  0  1  0  0  0  0  0  0  0  0  0
    0.4687   -0.7970    1.1128 H   0  0  0  0  0  0  0  0  0  0  0  0
    0.4273   -0.3273   -0.9573 C   0  0  1  0  0  0  0  0  0  0  0  0
    1.4932   -0.4759   -0.7519 H   0  0  0  0  0  0  0  0  0  0  0  0
   -0.0147   -1.5842   -1.7337 C   0  0  0  0  0  0  0  0  0  0  0  0
   -1.0793   -1.5341   -1.9829 H   0  0  0  0  0  0  0  0  0  0  0  0
    0.5528   -1.6823   -2.6646 H   0  0  0  0  0  0  0  0  0  0  0  0
    0.1729   -2.4870   -1.1470 H   0  0  0  0  0  0  0  0  0  0  0  0
    0.3995    0.8852   -1.9488 C   0  0  0  0  0  0  0  0  0  0  0  0
    1.4096    1.3057   -1.9898 H   0  0  0  0  0  0  0  0  0  0  0  0
    0.1801    0.5165   -2.9563 H   0  0  0  0  0  0  0  0  0  0  0  0
   -0.5568    2.0512   -1.6988 C   0  0  0  0  0  0  0  0  0  0  0  0
   -0.1845    2.7068   -0.9076 H   0  0  0  0  0  0  0  0  0  0  0  0
   -0.6413    2.6561   -2.6066 H   0  0  0  0  0  0  0  0  0  0  0  0
   -1.5556    1.6852   -1.4420 H   0  0  0  0  0  0  0  0  0  0  0  0
   -0.2995    1.1384    1.1507 C   0  0  0  0  0  0  0  0  0  0  0  0
   -1.3702    1.7345    1.2239 O   0  0  0  0  0  0  0  0  0  0  0  0
    0.7444    1.5698    1.9493 N   0  0  0  0  0  0  0  0  0  0  0  0
    1.5794    0.9924    1.9840 H   0  0  0  0  0  0  0  0  0  0  0  0
    0.6711    2.7552    2.7951 C   0  0  0  0  0  0  0  0  0  0  0  0
   -0.1049    2.6345    3.5584 H   0  0  0  0  0  0  0  0  0  0  0  0
    1.6286    2.9208    3.2981 H   0  0  0  0  0  0  0  0  0  0  0  0
    0.4396    3.6409    2.1939 H   0  0  0  0  0  0  0  0  0  0  0  0
  1  2  1  0  0  0  0
  2  3  1  0  0  0  0
  2  4  1  0  0  0  0
  2  5  1  0  0  0  0
  5  6  2  0  0  0  0
  5  7  1  0  0  0  0
  7  8  1  0  0  0  0
  7  9  1  0  0  0  0
  9 10  1  0  0  0  0
  9 11  1  0  0  0  0
  9 24  1  0  0  0  0
 11 12  1  0  0  0  0
 11 13  1  0  0  0  0
 11 17  1  0  0  0  0
 13 14  1  0  0  0  0
 13 15  1  0  0  0  0
 13 16  1  0  0  0  0
 17 18  1  0  0  0  0
 17 19  1  0  0  0  0
 17 20  1  0  0  0  0
 20 21  1  0  0  0  0
 20 22  1  0  0  0  0
 20 23  1  0  0  0  0
 24 25  2  0  0  0  0
 24 26  1  0  0  0  0
 26 27  1  0  0  0  0
 26 28  1  0  0  0  0
 28 29  1  0  0  0  0
 28 30  1  0  0  0  0
 28 31  1  0  0  0  0
M  END
$$$$

  -OEChem-03222214053D

 31 30  0     1  0  0  0  0  0999 V2000
   -2.9069   -3.9033    1.6251 H   0  0  0  0  0  0  0  0  0  0  0  0
   -2.9832   -2.8650    1.2903 C   0  0  0  0  0  0  0  0  0  0  0  0
   -3.5164   -2.2884    2.0501 H   0  0  0  0  0  0  0  0  0  0  0  0
   -3.5496   -2.8357    0.3564 H   0  0  0  0  0  0  0  0  0  0  0  0
   -1.5998   -2.2817    1.0744 C   0  0  0  0  0  0  0  0  0  0  0  0
   -0.6116   -2.9657    1.2910 O   0  0  0  0  0  0  0  0  0  0  0  0
   -1.4723   -0.9639    0.6847 N   0  0  0  0  0  0  0  0  0  0  0  0
   -2.3242   -0.4059    0.6536 H   0  0  0  0  0  0  0  0  0  0  0  0
   -0.2072   -0.2332    0.4816 C   0  0  1  0  0  0  0  0  0  0  0  0
    0.5290   -0.7573    1.0999 H   0  0  0  0  0  0  0  0  0  0  0  0
    0.3818   -0.3327   -0.9795 C   0  0  1  0  0  0  0  0  0  0  0  0
    1.4577   -0.4337   -0.7990 H   0  0  0  0  0  0  0  0  0  0  0  0
   -0.0279   -1.6304   -1.7026 C   0  0  0  0  0  0  0  0  0  0  0  0
   -1.1043   -1.6444   -1.9000 H   0  0  0  0  0  0  0  0  0  0  0  0
    0.4979   -1.7187   -2.6586 H   0  0  0  0  0  0  0  0  0  0  0  0
    0.2364   -2.5063   -1.1046 H   0  0  0  0  0  0  0  0  0  0  0  0
    0.3059    0.8408   -2.0162 C   0  0  0  0  0  0  0  0  0  0  0  0
    1.3281    1.0652   -2.3387 H   0  0  0  0  0  0  0  0  0  0  0  0
   -0.2264    0.4825   -2.9038 H   0  0  0  0  0  0  0  0  0  0  0  0
   -0.3571    2.1686   -1.6555 C   0  0  0  0  0  0  0  0  0  0  0  0
    0.2093    2.6981   -0.8849 H   0  0  0  0  0  0  0  0  0  0  0  0
   -0.3882    2.8126   -2.5395 H   0  0  0  0  0  0  0  0  0  0  0  0
   -1.3868    2.0088   -1.3238 H   0  0  0  0  0  0  0  0  0  0  0  0
   -0.2899    1.1599    1.1396 C   0  0  0  0  0  0  0  0  0  0  0  0
   -1.3703    1.7361    1.2277 O   0  0  0  0  0  0  0  0  0  0  0  0
    0.7671    1.6313    1.8975 N   0  0  0  0  0  0  0  0  0  0  0  0
    1.6149    1.0721    1.9211 H   0  0  0  0  0  0  0  0  0  0  0  0
    0.6876    2.8273    2.7276 C   0  0  0  0  0  0  0  0  0  0  0  0
   -0.0519    2.6918    3.5238 H   0  0  0  0  0  0  0  0  0  0  0  0
    1.6584    3.0339    3.1878 H   0  0  0  0  0  0  0  0  0  0  0  0
    0.4008    3.6947    2.1235 H   0  0  0  0  0  0  0  0  0  0  0  0
  1  2  1  0  0  0  0
  2  3  1  0  0  0  0
  2  4  1  0  0  0  0
  2  5  1  0  0  0  0
  5  6  2  0  0  0  0
  5  7  1  0  0  0  0
  7  8  1  0  0  0  0
  7  9  1  0  0  0  0
  9 10  1  0  0  0  0
  9 11  1  0  0  0  0
  9 24  1  0  0  0  0
 11 12  1  0  0  0  0
 11 13  1  0  0  0  0
 11 17  1  0  0  0  0
 13 14  1  0  0  0  0
 13 15  1  0  0  0  0
 13 16  1  0  0  0  0
 17 18  1  0  0  0  0
 17 19  1  0  0  0  0
 17 20  1  0  0  0  0
 20 21  1  0  0  0  0
 20 22  1  0  0  0  0
 20 23  1  0  0  0  0
 24 25  2  0  0  0  0
 24 26  1  0  0  0  0
 26 27  1  0  0  0  0
 26 28  1  0  0  0  0
 28 29  1  0  0  0  0
 28 30  1  0  0  0  0
 28 31  1  0  0  0  0
M  END
$$$$

  -OEChem-03222214053D

 31 30  0     1  0  0  0  0  0999 V2000
   -3.1028   -3.7856    1.5784 H   0  0  0  0  0  0  0  0  0  0  0  0
   -3.1247   -2.7555    1.2120 C   0  0  0  0  0  0  0  0  0  0  0  0
   -3.6838   -2.1408    1.9218 H   0  0  0  0  0  0  0  0  0  0  0  0
   -3.6320   -2.7358    0.2445 H   0  0  0  0  0  0  0  0  0  0  0  0
   -1.7123   -2.2219    1.0660 C   0  0  0  0  0  0  0  0  0  0  0  0
   -0.7618   -2.9299    1.3605 O   0  0  0  0  0  0  0  0  0  0  0  0
   -1.5174   -0.9213    0.6475 N   0  0  0  0  0  0  0  0  0  0  0  0
   -2.3461   -0.3369    0.5471 H   0  0  0  0  0  0  0  0  0  0  0  0
   -0.2177   -0.2381    0.5100 C   0  0  1  0  0  0  0  0  0  0  0  0
    0.4673   -0.7654    1.1825 H   0  0  0  0  0  0  0  0  0  0  0  0
    0.4374   -0.3913   -0.9181 C   0  0  1  0  0  0  0  0  0  0  0  0
    1.4980   -0.5176   -0.6737 H   0  0  0  0  0  0  0  0  0  0  0  0
    0.0277   -1.6894   -1.6389 C   0  0  0  0  0  0  0  0  0  0  0  0
   -1.0378   -1.6788   -1.8884 H   0  0  0  0  0  0  0  0  0  0  0  0
    0.5961   -1.8057   -2.5672 H   0  0  0  0  0  0  0  0  0  0  0  0
    0.2382   -2.5613   -1.0139 H   0  0  0  0  0  0  0  0  0  0  0  0
    0.4660    0.7513   -1.9868 C   0  0  0  0  0  0  0  0  0  0  0  0
    1.4542    0.7332   -2.4587 H   0  0  0  0  0  0  0  0  0  0  0  0
   -0.2596    0.5007   -2.7680 H   0  0  0  0  0  0  0  0  0  0  0  0
    0.1660    2.2005   -1.6087 C   0  0  0  0  0  0  0  0  0  0  0  0
    0.8349    2.5483   -0.8168 H   0  0  0  0  0  0  0  0  0  0  0  0
   -0.8757    2.3144   -1.2993 H   0  0  0  0  0  0  0  0  0  0  0  0
    0.3204    2.8441   -2.4801 H   0  0  0  0  0  0  0  0  0  0  0  0
   -0.3139    1.1735    1.1241 C   0  0  0  0  0  0  0  0  0  0  0  0
   -1.3804    1.7814    1.1084 O   0  0  0  0  0  0  0  0  0  0  0  0
    0.6975    1.6407    1.9441 N   0  0  0  0  0  0  0  0  0  0  0  0
    1.5270    1.0629    2.0431 H   0  0  0  0  0  0  0  0  0  0  0  0
    0.5957    2.8688    2.7228 C   0  0  0  0  0  0  0  0  0  0  0  0
   -0.2312    2.8018    3.4376 H   0  0  0  0  0  0  0  0  0  0  0  0
    1.5212    3.0414    3.2804 H   0  0  0  0  0  0  0  0  0  0  0  0
    0.4241    3.7267    2.0642 H   0  0  0  0  0  0  0  0  0  0  0  0
  1  2  1  0  0  0  0
  2  3  1  0  0  0  0
  2  4  1  0  0  0  0
  2  5  1  0  0  0  0
  5  6  2  0  0  0  0
  5  7  1  0  0  0  0
  7  8  1  0  0  0  0
  7  9  1  0  0  0  0
  9 10  1  0  0  0  0
  9 11  1  0  0  0  0
  9 24  1  0  0  0  0
 11 12  1  0  0  0  0
 11 13  1  0  0  0  0
 11 17  1  0  0  0  0
 13 14  1  0  0  0  0
 13 15  1  0  0  0  0
 13 16  1  0  0  0  0
 17 18  1  0  0  0  0
 17 19  1  0  0  0  0
 17 20  1  0  0  0  0
 20 21  1  0  0  0  0
 20 22  1  0  0  0  0
 20 23  1  0  0  0  0
 24 25  2  0  0  0  0
 24 26  1  0  0  0  0
 26 27  1  0  0  0  0
 26 28  1  0  0  0  0
 28 29  1  0  0  0  0
 28 30  1  0  0  0  0
 28 31  1  0  0  0  0
M  END
$$$$

  -OEChem-03222214053D

 31 30  0     1  0  0  0  0  0999 V2000
   -3.2042   -3.7924    1.3094 H   0  0  0  0  0  0  0  0  0  0  0  0
   -3.1907   -2.7517    0.9738 C   0  0  0  0  0  0  0  0  0  0  0  0
   -3.7800   -2.1496    1.6697 H   0  0  0  0  0  0  0  0  0  0  0  0
   -3.6433   -2.6957   -0.0192 H   0  0  0  0  0  0  0  0  0  0  0  0
   -1.7649   -2.2363    0.9225 C   0  0  0  0  0  0  0  0  0  0  0  0
   -0.8416   -2.9671    1.2462 O   0  0  0  0  0  0  0  0  0  0  0  0
   -1.5263   -0.9302    0.5461 N   0  0  0  0  0  0  0  0  0  0  0  0
   -2.3380   -0.3282    0.4144 H   0  0  0  0  0  0  0  0  0  0  0  0
   -0.2093   -0.2673    0.5065 C   0  0  1  0  0  0  0  0  0  0  0  0
    0.4369   -0.8213    1.1955 H   0  0  0  0  0  0  0  0  0  0  0  0
    0.5011   -0.3752   -0.8984 C   0  0  1  0  0  0  0  0  0  0  0  0
    1.5479   -0.5438   -0.6230 H   0  0  0  0  0  0  0  0  0  0  0  0
    0.0767   -1.6185   -1.7021 C   0  0  0  0  0  0  0  0  0  0  0  0
   -0.9765   -1.5559   -1.9932 H   0  0  0  0  0  0  0  0  0  0  0  0
    0.6778   -1.7089   -2.6123 H   0  0  0  0  0  0  0  0  0  0  0  0
    0.2296   -2.5278   -1.1143 H   0  0  0  0  0  0  0  0  0  0  0  0
    0.5939    0.8147   -1.9049 C   0  0  0  0  0  0  0  0  0  0  0  0
    1.4863    0.6504   -2.5183 H   0  0  0  0  0  0  0  0  0  0  0  0
   -0.2695    0.7578   -2.5766 H   0  0  0  0  0  0  0  0  0  0  0  0
    0.6460    2.2589   -1.4045 C   0  0  0  0  0  0  0  0  0  0  0  0
    1.3776    2.3677   -0.5987 H   0  0  0  0  0  0  0  0  0  0  0  0
   -0.3358    2.5967   -1.0666 H   0  0  0  0  0  0  0  0  0  0  0  0
    0.9477    2.9169   -2.2250 H   0  0  0  0  0  0  0  0  0  0  0  0
   -0.3415    1.1289    1.1479 C   0  0  0  0  0  0  0  0  0  0  0  0
   -1.3944    1.7529    1.0505 O   0  0  0  0  0  0  0  0  0  0  0  0
    0.6105    1.5733    2.0479 N   0  0  0  0  0  0  0  0  0  0  0  0
    1.4260    0.9867    2.1988 H   0  0  0  0  0  0  0  0  0  0  0  0
    0.4701    2.8003    2.8223 C   0  0  0  0  0  0  0  0  0  0  0  0
   -0.4060    2.7420    3.4766 H   0  0  0  0  0  0  0  0  0  0  0  0
    1.3564    2.9595    3.4441 H   0  0  0  0  0  0  0  0  0  0  0  0
    0.3564    3.6622    2.1564 H   0  0  0  0  0  0  0  0  0  0  0  0
  1  2  1  0  0  0  0
  2  3  1  0  0  0  0
  2  4  1  0  0  0  0
  2  5  1  0  0  0  0
  5  6  2  0  0  0  0
  5  7  1  0  0  0  0
  7  8  1  0  0  0  0
  7  9  1  0  0  0  0
  9 10  1  0  0  0  0
  9 11  1  0  0  0  0
  9 24  1  0  0  0  0
 11 12  1  0  0  0  0
 11 13  1  0  0  0  0
 11 17  1  0  0  0  0
 13 14  1  0  0  0  0
 13 15  1  0  0  0  0
 13 16  1  0  0  0  0
 17 18  1  0  0  0  0
 17 19  1  0  0  0  0
 17 20  1  0  0  0  0
 20 21  1  0  0  0  0
 20 22  1  0  0  0  0
 20 23  1  0  0  0  0
 24 25  2  0  0  0  0
 24 26  1  0  0  0  0
 26 27  1  0  0  0  0
 26 28  1  0  0  0  0
 28 29  1  0  0  0  0
 28 30  1  0  0  0  0
 28 31  1  0  0  0  0
M  END
$$$$

  -OEChem-03222214053D

 31 30  0     1  0  0  0  0  0999 V2000
   -2.9551   -3.8931    1.5079 H   0  0  0  0  0  0  0  0  0  0  0  0
   -3.0012   -2.8511    1.1793 C   0  0  0  0  0  0  0  0  0  0  0  0
   -3.5391   -2.2681    1.9308 H   0  0  0  0  0  0  0  0  0  0  0  0
   -3.5451   -2.8038    0.2329 H   0  0  0  0  0  0  0  0  0  0  0  0
   -1.6005   -2.2974    0.9997 C   0  0  0  0  0  0  0  0  0  0  0  0
   -0.6320   -3.0051    1.2295 O   0  0  0  0  0  0  0  0  0  0  0  0
   -1.4302   -0.9847    0.6098 N   0  0  0  0  0  0  0  0  0  0  0  0
   -2.2641   -0.4013    0.5528 H   0  0  0  0  0  0  0  0  0  0  0  0
   -0.1359   -0.2925    0.4660 C   0  0  1  0  0  0  0  0  0  0  0  0
    0.5919   -0.8331    1.0797 H   0  0  0  0  0  0  0  0  0  0  0  0
    0.4247   -0.3402   -1.0070 C   0  0  1  0  0  0  0  0  0  0  0  0
    1.4964   -0.5181   -0.8672 H   0  0  0  0  0  0  0  0  0  0  0  0
   -0.0990   -1.5408   -1.8187 C   0  0  0  0  0  0  0  0  0  0  0  0
   -1.1734   -1.4481   -2.0056 H   0  0  0  0  0  0  0  0  0  0  0  0
    0.4113   -1.6026   -2.7849 H   0  0  0  0  0  0  0  0  0  0  0  0
    0.0899   -2.4775   -1.2868 H   0  0  0  0  0  0  0  0  0  0  0  0
    0.3753    0.9044   -1.9424 C   0  0  0  0  0  0  0  0  0  0  0  0
    1.0222    0.6936   -2.8007 H   0  0  0  0  0  0  0  0  0  0  0  0
   -0.6449    1.0105   -2.3265 H   0  0  0  0  0  0  0  0  0  0  0  0
    0.7958    2.2691   -1.3864 C   0  0  0  0  0  0  0  0  0  0  0  0
    1.6597    2.1685   -0.7229 H   0  0  0  0  0  0  0  0  0  0  0  0
    1.0771    2.9285   -2.2132 H   0  0  0  0  0  0  0  0  0  0  0  0
   -0.0233    2.7568   -0.8540 H   0  0  0  0  0  0  0  0  0  0  0  0
   -0.2688    1.0938    1.1271 C   0  0  0  0  0  0  0  0  0  0  0  0
   -1.3350    1.7008    1.0739 O   0  0  0  0  0  0  0  0  0  0  0  0
    0.7297    1.5699    1.9577 N   0  0  0  0  0  0  0  0  0  0  0  0
    1.5647    1.0012    2.0640 H   0  0  0  0  0  0  0  0  0  0  0  0
    0.6083    2.7987    2.7326 C   0  0  0  0  0  0  0  0  0  0  0  0
   -0.2119    2.7169    3.4534 H   0  0  0  0  0  0  0  0  0  0  0  0
    1.5341    2.9928    3.2826 H   0  0  0  0  0  0  0  0  0  0  0  0
    0.4144    3.6506    2.0724 H   0  0  0  0  0  0  0  0  0  0  0  0
  1  2  1  0  0  0  0
  2  3  1  0  0  0  0
  2  4  1  0  0  0  0
  2  5  1  0  0  0  0
  5  6  2  0  0  0  0
  5  7  1  0  0  0  0
  7  8  1  0  0  0  0
  7  9  1  0  0  0  0
  9 10  1  0  0  0  0
  9 11  1  0  0  0  0
  9 24  1  0  0  0  0
 11 12  1  0  0  0  0
 11 13  1  0  0  0  0
 11 17  1  0  0  0  0
 13 14  1  0  0  0  0
 13 15  1  0  0  0  0
 13 16  1  0  0  0  0
 17 18  1  0  0  0  0
 17 19  1  0  0  0  0
 17 20  1  0  0  0  0
 20 21  1  0  0  0  0
 20 22  1  0  0  0  0
 20 23  1  0  0  0  0
 24 25  2  0  0  0  0
 24 26  1  0  0  0  0
 26 27  1  0  0  0  0
 26 28  1  0  0  0  0
 28 29  1  0  0  0  0
 28 30  1  0  0  0  0
 28 31  1  0  0  0  0
M  END
$$$$

  -OEChem-03222214053D

 31 30  0     1  0  0  0  0  0999 V2000
   -2.9562   -3.8887    1.5311 H   0  0  0  0  0  0  0  0  0  0  0  0
   -2.9942   -2.8559    1.1735 C   0  0  0  0  0  0  0  0  0  0  0  0
   -3.5446   -2.2518    1.8989 H   0  0  0  0  0  0  0  0  0  0  0  0
   -3.5210   -2.8334    0.2164 H   0  0  0  0  0  0  0  0  0  0  0  0
   -1.5896   -2.3084    1.0036 C   0  0  0  0  0  0  0  0  0  0  0  0
   -0.6248   -3.0139    1.2539 O   0  0  0  0  0  0  0  0  0  0  0  0
   -1.4123   -1.0037    0.5920 N   0  0  0  0  0  0  0  0  0  0  0  0
   -2.2450   -0.4228    0.5043 H   0  0  0  0  0  0  0  0  0  0  0  0
   -0.1154   -0.3154    0.4555 C   0  0  1  0  0  0  0  0  0  0  0  0
    0.6125   -0.8485    1.0757 H   0  0  0  0  0  0  0  0  0  0  0  0
    0.4432   -0.3579   -1.0160 C   0  0  1  0  0  0  0  0  0  0  0  0
    1.5135   -0.5610   -0.9017 H   0  0  0  0  0  0  0  0  0  0  0  0
   -0.1231   -1.5263   -1.8461 C   0  0  0  0  0  0  0  0  0  0  0  0
   -1.1918   -1.3876   -2.0379 H   0  0  0  0  0  0  0  0  0  0  0  0
    0.3905   -1.5972   -2.8098 H   0  0  0  0  0  0  0  0  0  0  0  0
    0.0247   -2.4762   -1.3245 H   0  0  0  0  0  0  0  0  0  0  0  0
    0.3703    0.9224   -1.8952 C   0  0  0  0  0  0  0  0  0  0  0  0
    0.7963    0.6818   -2.8749 H   0  0  0  0  0  0  0  0  0  0  0  0
   -0.6802    1.1874   -2.0554 H   0  0  0  0  0  0  0  0  0  0  0  0
    1.1123    2.1642   -1.3816 C   0  0  0  0  0  0  0  0  0  0  0  0
    2.0383    1.8804   -0.8727 H   0  0  0  0  0  0  0  0  0  0  0  0
    1.3700    2.8096   -2.2266 H   0  0  0  0  0  0  0  0  0  0  0  0
    0.4938    2.7569   -0.7049 H   0  0  0  0  0  0  0  0  0  0  0  0
   -0.2590    1.0827    1.0880 C   0  0  0  0  0  0  0  0  0  0  0  0
   -1.3052    1.7119    0.9588 O   0  0  0  0  0  0  0  0  0  0  0  0
    0.7238    1.5768    1.9267 N   0  0  0  0  0  0  0  0  0  0  0  0
    1.5492    1.0034    2.0746 H   0  0  0  0  0  0  0  0  0  0  0  0
    0.6091    2.8471    2.6325 C   0  0  0  0  0  0  0  0  0  0  0  0
   -0.2504    2.8323    3.3108 H   0  0  0  0  0  0  0  0  0  0  0  0
    1.5116    3.0353    3.2220 H   0  0  0  0  0  0  0  0  0  0  0  0
    0.4832    3.6702    1.9212 H   0  0  0  0  0  0  0  0  0  0  0  0
  1  2  1  0  0  0  0
  2  3  1  0  0  0  0
  2  4  1  0  0  0  0
  2  5  1  0  0  0  0
  5  6  2  0  0  0  0
  5  7  1  0  0  0  0
  7  8  1  0  0  0  0
  7  9  1  0  0  0  0
  9 10  1  0  0  0  0
  9 11  1  0  0  0  0
  9 24  1  0  0  0  0
 11 12  1  0  0  0  0
 11 13  1  0  0  0  0
 11 17  1  0  0  0  0
 13 14  1  0  0  0  0
 13 15  1  0  0  0  0
 13 16  1  0  0  0  0
 17 18  1  0  0  0  0
 17 19  1  0  0  0  0
 17 20  1  0  0  0  0
 20 21  1  0  0  0  0
 20 22  1  0  0  0  0
 20 23  1  0  0  0  0
 24 25  2  0  0  0  0
 24 26  1  0  0  0  0
 26 27  1  0  0  0  0
 26 28  1  0  0  0  0
 28 29  1  0  0  0  0
 28 30  1  0  0  0  0
 28 31  1  0  0  0  0
M  END
$$$$

  -OEChem-03222214053D

 31 30  0     1  0  0  0  0  0999 V2000
   -2.9550   -3.8850    1.5290 H   0  0  0  0  0  0  0  0  0  0  0  0
   -2.9944   -2.8556    1.1617 C   0  0  0  0  0  0  0  0  0  0  0  0
   -3.5606   -2.2493    1.8729 H   0  0  0  0  0  0  0  0  0  0  0  0
   -3.5057   -2.8452    0.1962 H   0  0  0  0  0  0  0  0  0  0  0  0
   -1.5906   -2.3007    1.0094 C   0  0  0  0  0  0  0  0  0  0  0  0
   -0.6262   -2.9969    1.2862 O   0  0  0  0  0  0  0  0  0  0  0  0
   -1.4120   -1.0023    0.5783 N   0  0  0  0  0  0  0  0  0  0  0  0
   -2.2455   -0.4284    0.4584 H   0  0  0  0  0  0  0  0  0  0  0  0
   -0.1141   -0.3150    0.4465 C   0  0  1  0  0  0  0  0  0  0  0  0
    0.6087   -0.8399    1.0795 H   0  0  0  0  0  0  0  0  0  0  0  0
    0.4563   -0.3729   -1.0186 C   0  0  1  0  0  0  0  0  0  0  0  0
    1.5244   -0.5897   -0.9113 H   0  0  0  0  0  0  0  0  0  0  0  0
   -0.1264   -1.5319   -1.8515 C   0  0  0  0  0  0  0  0  0  0  0  0
   -1.1908   -1.3736   -2.0512 H   0  0  0  0  0  0  0  0  0  0  0  0
    0.3935   -1.6131   -2.8110 H   0  0  0  0  0  0  0  0  0  0  0  0
    0.0002   -2.4840   -1.3281 H   0  0  0  0  0  0  0  0  0  0  0  0
    0.3649    0.9242   -1.8682 C   0  0  0  0  0  0  0  0  0  0  0  0
    0.5526    0.6680   -2.9160 H   0  0  0  0  0  0  0  0  0  0  0  0
   -0.6512    1.3292   -1.8156 H   0  0  0  0  0  0  0  0  0  0  0  0
    1.3743    2.0212   -1.5001 C   0  0  0  0  0  0  0  0  0  0  0  0
    2.3746    1.5968   -1.3722 H   0  0  0  0  0  0  0  0  0  0  0  0
    1.4161    2.7610   -2.3053 H   0  0  0  0  0  0  0  0  0  0  0  0
    1.0956    2.5507   -0.5888 H   0  0  0  0  0  0  0  0  0  0  0  0
   -0.2533    1.0967    1.0515 C   0  0  0  0  0  0  0  0  0  0  0  0
   -1.2824    1.7431    0.8813 O   0  0  0  0  0  0  0  0  0  0  0  0
    0.7263    1.5974    1.8902 N   0  0  0  0  0  0  0  0  0  0  0  0
    1.5400    1.0148    2.0650 H   0  0  0  0  0  0  0  0  0  0  0  0
    0.6174    2.8822    2.5700 C   0  0  0  0  0  0  0  0  0  0  0  0
   -0.2451    2.8868    3.2447 H   0  0  0  0  0  0  0  0  0  0  0  0
    1.5189    3.0758    3.1591 H   0  0  0  0  0  0  0  0  0  0  0  0
    0.4999    3.6921    1.8422 H   0  0  0  0  0  0  0  0  0  0  0  0
  1  2  1  0  0  0  0
  2  3  1  0  0  0  0
  2  4  1  0  0  0  0
  2  5  1  0  0  0  0
  5  6  2  0  0  0  0
  5  7  1  0  0  0  0
  7  8  1  0  0  0  0
  7  9  1  0  0  0  0
  9 10  1  0  0  0  0
  9 11  1  0  0  0  0
  9 24  1  0  0  0  0
 11 12  1  0  0  0  0
 11 13  1  0  0  0  0
 11 17  1  0  0  0  0
 13 14  1  0  0  0  0
 13 15  1  0  0  0  0
 13 16  1  0  0  0  0
 17 18  1  0  0  0  0
 17 19  1  0  0  0  0
 17 20  1  0  0  0  0
 20 21  1  0  0  0  0
 20 22  1  0  0  0  0
 20 23  1  0  0  0  0
 24 25  2  0  0  0  0
 24 26  1  0  0  0  0
 26 27  1  0  0  0  0
 26 28  1  0  0  0  0
 28 29  1  0  0  0  0
 28 30  1  0  0  0  0
 28 31  1  0  0  0  0
M  END
$$$$

  -OEChem-03222214053D

 31 30  0     1  0  0  0  0  0999 V2000
   -2.9552   -3.8742    1.5560 H   0  0  0  0  0  0  0  0  0  0  0  0
   -2.9993   -2.8530    1.1673 C   0  0  0  0  0  0  0  0  0  0  0  0
   -3.5647   -2.2337    1.8680 H   0  0  0  0  0  0  0  0  0  0  0  0
   -3.5141   -2.8644    0.2036 H   0  0  0  0  0  0  0  0  0  0  0  0
   -1.5985   -2.2964    0.9986 C   0  0  0  0  0  0  0  0  0  0  0  0
   -0.6307   -2.9892    1.2719 O   0  0  0  0  0  0  0  0  0  0  0  0
   -1.4282   -0.9999    0.5585 N   0  0  0  0  0  0  0  0  0  0  0  0
   -2.2652   -0.4297    0.4473 H   0  0  0  0  0  0  0  0  0  0  0  0
   -0.1355   -0.3042    0.4240 C   0  0  1  0  0  0  0  0  0  0  0  0
    0.5803   -0.8223    1.0703 H   0  0  0  0  0  0  0  0  0  0  0  0
    0.4639   -0.3773   -1.0266 C   0  0  1  0  0  0  0  0  0  0  0  0
    1.5321   -0.5861   -0.9045 H   0  0  0  0  0  0  0  0  0  0  0  0
   -0.0988   -1.5461   -1.8575 C   0  0  0  0  0  0  0  0  0  0  0  0
   -1.1632   -1.4010   -2.0668 H   0  0  0  0  0  0  0  0  0  0  0  0
    0.4310   -1.6249   -2.8118 H   0  0  0  0  0  0  0  0  0  0  0  0
    0.0339   -2.4937   -1.3276 H   0  0  0  0  0  0  0  0  0  0  0  0
    0.3505    0.9273   -1.8597 C   0  0  0  0  0  0  0  0  0  0  0  0
    0.2979    0.6772   -2.9243 H   0  0  0  0  0  0  0  0  0  0  0  0
   -0.5759    1.4594   -1.6244 H   0  0  0  0  0  0  0  0  0  0  0  0
    1.5588    1.8529   -1.6812 C   0  0  0  0  0  0  0  0  0  0  0  0
    2.4791    1.3422   -1.9812 H   0  0  0  0  0  0  0  0  0  0  0  0
    1.4391    2.7425   -2.3069 H   0  0  0  0  0  0  0  0  0  0  0  0
    1.6635    2.1779   -0.6441 H   0  0  0  0  0  0  0  0  0  0  0  0
   -0.2574    1.1190    1.0126 C   0  0  0  0  0  0  0  0  0  0  0  0
   -1.2943    1.7596    0.8716 O   0  0  0  0  0  0  0  0  0  0  0  0
    0.7326    1.6193    1.8389 N   0  0  0  0  0  0  0  0  0  0  0  0
    1.5508    1.0387    1.9983 H   0  0  0  0  0  0  0  0  0  0  0  0
    0.6356    2.9057    2.5169 C   0  0  0  0  0  0  0  0  0  0  0  0
   -0.2414    2.9284    3.1724 H   0  0  0  0  0  0  0  0  0  0  0  0
    1.5270    3.0799    3.1271 H   0  0  0  0  0  0  0  0  0  0  0  0
    0.5519    3.7172    1.7864 H   0  0  0  0  0  0  0  0  0  0  0  0
  1  2  1  0  0  0  0
  2  3  1  0  0  0  0
  2  4  1  0  0  0  0
  2  5  1  0  0  0  0
  5  6  2  0  0  0  0
  5  7  1  0  0  0  0
  7  8  1  0  0  0  0
  7  9  1  0  0  0  0
  9 10  1  0  0  0  0
  9 11  1  0  0  0  0
  9 24  1  0  0  0  0
 11 12  1  0  0  0  0
 11 13  1  0  0  0  0
 11 17  1  0  0  0  0
 13 14  1  0  0  0  0
 13 15  1  0  0  0  0
 13 16  1  0  0  0  0
 17 18  1  0  0  0  0
 17 19  1  0  0  0  0
 17 20  1  0  0  0  0
 20 21  1  0  0  0  0
 20 22  1  0  0  0  0
 20 23  1  0  0  0  0
 24 25  2  0  0  0  0
 24 26  1  0  0  0  0
 26 27  1  0  0  0  0
 26 28  1  0  0  0  0
 28 29  1  0  0  0  0
 28 30  1  0  0  0  0
 28 31  1  0  0  0  0
M  END
$$$$

  -OEChem-03222214053D

 31 30  0     1  0  0  0  0  0999 V2000
   -2.9488   -3.8898    1.5372 H   0  0  0  0  0  0  0  0  0  0  0  0
   -3.0041   -2.8643    1.1617 C   0  0  0  0  0  0  0  0  0  0  0  0
   -3.5701   -2.2585    1.8734 H   0  0  0  0  0  0  0  0  0  0  0  0
   -3.5249   -2.8684    0.2012 H   0  0  0  0  0  0  0  0  0  0  0  0
   -1.6091   -2.2937    0.9912 C   0  0  0  0  0  0  0  0  0  0  0  0
   -0.6343   -2.9795    1.2578 O   0  0  0  0  0  0  0  0  0  0  0  0
   -1.4523   -0.9932    0.5573 N   0  0  0  0  0  0  0  0  0  0  0  0
   -2.2949   -0.4302    0.4530 H   0  0  0  0  0  0  0  0  0  0  0  0
   -0.1665   -0.2871    0.4132 C   0  0  1  0  0  0  0  0  0  0  0  0
    0.5468   -0.8052    1.0623 H   0  0  0  0  0  0  0  0  0  0  0  0
    0.4536   -0.3637   -1.0262 C   0  0  1  0  0  0  0  0  0  0  0  0
    1.5217   -0.5583   -0.8803 H   0  0  0  0  0  0  0  0  0  0  0  0
   -0.0763   -1.5503   -1.8527 C   0  0  0  0  0  0  0  0  0  0  0  0
   -1.1430   -1.4323   -2.0676 H   0  0  0  0  0  0  0  0  0  0  0  0
    0.4605   -1.6199   -2.8039 H   0  0  0  0  0  0  0  0  0  0  0  0
    0.0762   -2.4915   -1.3167 H   0  0  0  0  0  0  0  0  0  0  0  0
    0.3319    0.9358   -1.8718 C   0  0  0  0  0  0  0  0  0  0  0  0
    0.0384    0.6823   -2.8957 H   0  0  0  0  0  0  0  0  0  0  0  0
   -0.4502    1.6003   -1.4986 H   0  0  0  0  0  0  0  0  0  0  0  0
    1.6661    1.6799   -1.9576 C   0  0  0  0  0  0  0  0  0  0  0  0
    2.4324    1.0456   -2.4144 H   0  0  0  0  0  0  0  0  0  0  0  0
    1.5538    2.5808   -2.5684 H   0  0  0  0  0  0  0  0  0  0  0  0
    2.0036    1.9777   -0.9602 H   0  0  0  0  0  0  0  0  0  0  0  0
   -0.2642    1.1371    1.0046 C   0  0  0  0  0  0  0  0  0  0  0  0
   -1.3084    1.7740    0.9072 O   0  0  0  0  0  0  0  0  0  0  0  0
    0.7454    1.6277    1.8123 N   0  0  0  0  0  0  0  0  0  0  0  0
    1.5669    1.0451    1.9457 H   0  0  0  0  0  0  0  0  0  0  0  0
    0.6663    2.9072    2.5060 C   0  0  0  0  0  0  0  0  0  0  0  0
   -0.1851    2.9181    3.1946 H   0  0  0  0  0  0  0  0  0  0  0  0
    1.5794    3.0814    3.0831 H   0  0  0  0  0  0  0  0  0  0  0  0
    0.5498    3.7256    1.7878 H   0  0  0  0  0  0  0  0  0  0  0  0
  1  2  1  0  0  0  0
  2  3  1  0  0  0  0
  2  4  1  0  0  0  0
  2  5  1  0  0  0  0
  5  6  2  0  0  0  0
  5  7  1  0  0  0  0
  7  8  1  0  0  0  0
  7  9  1  0  0  0  0
  9 10  1  0  0  0  0
  9 11  1  0  0  0  0
  9 24  1  0  0  0  0
 11 12  1  0  0  0  0
 11 13  1  0  0  0  0
 11 17  1  0  0  0  0
 13 14  1  0  0  0  0
 13 15  1  0  0  0  0
 13 16  1  0  0  0  0
 17 18  1  0  0  0  0
 17 19  1  0  0  0  0
 17 20  1  0  0  0  0
 20 21  1  0  0  0  0
 20 22  1  0  0  0  0
 20 23  1  0  0  0  0
 24 25  2  0  0  0  0
 24 26  1  0  0  0  0
 26 27  1  0  0  0  0
 26 28  1  0  0  0  0
 28 29  1  0  0  0  0
 28 30  1  0  0  0  0
 28 31  1  0  0  0  0
M  END
$$$$

  -OEChem-03222214053D

 31 30  0     1  0  0  0  0  0999 V2000
   -2.9437   -3.8868    1.5223 H   0  0  0  0  0  0  0  0  0  0  0  0
   -3.0007   -2.8581    1.1554 C   0  0  0  0  0  0  0  0  0  0  0  0
   -3.5643   -2.2584    1.8743 H   0  0  0  0  0  0  0  0  0  0  0  0
   -3.5252   -2.8542    0.1968 H   0  0  0  0  0  0  0  0  0  0  0  0
   -1.6065   -2.2854    0.9843 C   0  0  0  0  0  0  0  0  0  0  0  0
   -0.6304   -2.9723    1.2426 O   0  0  0  0  0  0  0  0  0  0  0  0
   -1.4524   -0.9808    0.5618 N   0  0  0  0  0  0  0  0  0  0  0  0
   -2.2964   -0.4192    0.4618 H   0  0  0  0  0  0  0  0  0  0  0  0
   -0.1685   -0.2720    0.4165 C   0  0  1  0  0  0  0  0  0  0  0  0
    0.5496   -0.7945    1.0567 H   0  0  0  0  0  0  0  0  0  0  0  0
    0.4345   -0.3449   -1.0310 C   0  0  1  0  0  0  0  0  0  0  0  0
    1.5040   -0.5217   -0.8731 H   0  0  0  0  0  0  0  0  0  0  0  0
   -0.0663   -1.5480   -1.8515 C   0  0  0  0  0  0  0  0  0  0  0  0
   -1.1382   -1.4646   -2.0561 H   0  0  0  0  0  0  0  0  0  0  0  0
    0.4629   -1.5999   -2.8082 H   0  0  0  0  0  0  0  0  0  0  0  0
    0.1202   -2.4833   -1.3159 H   0  0  0  0  0  0  0  0  0  0  0  0
    0.3188    0.9447   -1.8978 C   0  0  0  0  0  0  0  0  0  0  0  0
   -0.2545    0.7297   -2.8057 H   0  0  0  0  0  0  0  0  0  0  0  0
   -0.2206    1.7472   -1.3937 H   0  0  0  0  0  0  0  0  0  0  0  0
    1.6961    1.4666   -2.3114 C   0  0  0  0  0  0  0  0  0  0  0  0
    2.2420    0.7043   -2.8761 H   0  0  0  0  0  0  0  0  0  0  0  0
    1.5873    2.3537   -2.9426 H   0  0  0  0  0  0  0  0  0  0  0  0
    2.2820    1.7393   -1.4281 H   0  0  0  0  0  0  0  0  0  0  0  0
   -0.2674    1.1451    1.0225 C   0  0  0  0  0  0  0  0  0  0  0  0
   -1.3113    1.7829    0.9283 O   0  0  0  0  0  0  0  0  0  0  0  0
    0.7444    1.6314    1.8301 N   0  0  0  0  0  0  0  0  0  0  0  0
    1.5654    1.0473    1.9594 H   0  0  0  0  0  0  0  0  0  0  0  0
    0.6607    2.9001    2.5430 C   0  0  0  0  0  0  0  0  0  0  0  0
   -0.1871    2.8949    3.2362 H   0  0  0  0  0  0  0  0  0  0  0  0
    1.5760    3.0722    3.1175 H   0  0  0  0  0  0  0  0  0  0  0  0
    0.5343    3.7280    1.8374 H   0  0  0  0  0  0  0  0  0  0  0  0
  1  2  1  0  0  0  0
  2  3  1  0  0  0  0
  2  4  1  0  0  0  0
  2  5  1  0  0  0  0
  5  6  2  0  0  0  0
  5  7  1  0  0  0  0
  7  8  1  0  0  0  0
  7  9  1  0  0  0  0
  9 10  1  0  0  0  0
  9 11  1  0  0  0  0
  9 24  1  0  0  0  0
 11 12  1  0  0  0  0
 11 13  1  0  0  0  0
 11 17  1  0  0  0  0
 13 14  1  0  0  0  0
 13 15  1  0  0  0  0
 13 16  1  0  0  0  0
 17 18  1  0  0  0  0
 17 19  1  0  0  0  0
 17 20  1  0  0  0  0
 20 21  1  0  0  0  0
 20 22  1  0  0  0  0
 20 23  1  0  0  0  0
 24 25  2  0  0  0  0
 24 26  1  0  0  0  0
 26 27  1  0  0  0  0
 26 28  1  0  0  0  0
 28 29  1  0  0  0  0
 28 30  1  0  0  0  0
 28 31  1  0  0  0  0
M  END
$$$$

  -OEChem-03222214053D

 31 30  0     1  0  0  0  0  0999 V2000
   -2.9400   -3.8823    1.5147 H   0  0  0  0  0  0  0  0  0  0  0  0
   -2.9943   -2.8522    1.1513 C   0  0  0  0  0  0  0  0  0  0  0  0
   -3.5570   -2.2537    1.8719 H   0  0  0  0  0  0  0  0  0  0  0  0
   -3.5182   -2.8440    0.1925 H   0  0  0  0  0  0  0  0  0  0  0  0
   -1.5985   -2.2822    0.9833 C   0  0  0  0  0  0  0  0  0  0  0  0
   -0.6240   -2.9722    1.2391 O   0  0  0  0  0  0  0  0  0  0  0  0
   -1.4407   -0.9769    0.5646 N   0  0  0  0  0  0  0  0  0  0  0  0
   -2.2830   -0.4127    0.4635 H   0  0  0  0  0  0  0  0  0  0  0  0
   -0.1545   -0.2719    0.4210 C   0  0  1  0  0  0  0  0  0  0  0  0
    0.5690   -0.7978    1.0524 H   0  0  0  0  0  0  0  0  0  0  0  0
    0.4266   -0.3369   -1.0366 C   0  0  1  0  0  0  0  0  0  0  0  0
    1.4977   -0.5070   -0.8826 H   0  0  0  0  0  0  0  0  0  0  0  0
   -0.0763   -1.5369   -1.8602 C   0  0  0  0  0  0  0  0  0  0  0  0
   -1.1506   -1.4571   -2.0535 H   0  0  0  0  0  0  0  0  0  0  0  0
    0.4420   -1.5817   -2.8229 H   0  0  0  0  0  0  0  0  0  0  0  0
    0.1194   -2.4743   -1.3315 H   0  0  0  0  0  0  0  0  0  0  0  0
    0.3143    0.9533   -1.9007 C   0  0  0  0  0  0  0  0  0  0  0  0
   -0.4970    0.8427   -2.6278 H   0  0  0  0  0  0  0  0  0  0  0  0
    0.0774    1.8378   -1.3090 H   0  0  0  0  0  0  0  0  0  0  0  0
    1.6247    1.2500   -2.6347 C   0  0  0  0  0  0  0  0  0  0  0  0
    1.9044    0.4108   -3.2789 H   0  0  0  0  0  0  0  0  0  0  0  0
    1.5107    2.1418   -3.2585 H   0  0  0  0  0  0  0  0  0  0  0  0
    2.4337    1.4298   -1.9198 H   0  0  0  0  0  0  0  0  0  0  0  0
   -0.2626    1.1407    1.0346 C   0  0  0  0  0  0  0  0  0  0  0  0
   -1.3011    1.7831    0.9165 O   0  0  0  0  0  0  0  0  0  0  0  0
    0.7419    1.6308    1.8489 N   0  0  0  0  0  0  0  0  0  0  0  0
    1.5585    1.0444    1.9951 H   0  0  0  0  0  0  0  0  0  0  0  0
    0.6490    2.9016    2.5573 C   0  0  0  0  0  0  0  0  0  0  0  0
   -0.2055    2.8972    3.2422 H   0  0  0  0  0  0  0  0  0  0  0  0
    1.5581    3.0773    3.1405 H   0  0  0  0  0  0  0  0  0  0  0  0
    0.5284    3.7274    1.8482 H   0  0  0  0  0  0  0  0  0  0  0  0
  1  2  1  0  0  0  0
  2  3  1  0  0  0  0
  2  4  1  0  0  0  0
  2  5  1  0  0  0  0
  5  6  2  0  0  0  0
  5  7  1  0  0  0  0
  7  8  1  0  0  0  0
  7  9  1  0  0  0  0
  9 10  1  0  0  0  0
  9 11  1  0  0  0  0
  9 24  1  0  0  0  0
 11 12  1  0  0  0  0
 11 13  1  0  0  0  0
 11 17  1  0  0  0  0
 13 14  1  0  0  0  0
 13 15  1  0  0  0  0
 13 16  1  0  0  0  0
 17 18  1  0  0  0  0
 17 19  1  0  0  0  0
 17 20  1  0  0  0  0
 20 21  1  0  0  0  0
 20 22  1  0  0  0  0
 20 23  1  0  0  0  0
 24 25  2  0  0  0  0
 24 26  1  0  0  0  0
 26 27  1  0  0  0  0
 26 28  1  0  0  0  0
 28 29  1  0  0  0  0
 28 30  1  0  0  0  0
 28 31  1  0  0  0  0
M  END
$$$$

  -OEChem-03222214053D

 31 30  0     1  0  0  0  0  0999 V2000
   -2.9473   -3.8742    1.5327 H   0  0  0  0  0  0  0  0  0  0  0  0
   -2.9942   -2.8492    1.1545 C   0  0  0  0  0  0  0  0  0  0  0  0
   -3.5628   -2.2388    1.8604 H   0  0  0  0  0  0  0  0  0  0  0  0
   -3.5078   -2.8525    0.1901 H   0  0  0  0  0  0  0  0  0  0  0  0
   -1.5945   -2.2867    0.9930 C   0  0  0  0  0  0  0  0  0  0  0  0
   -0.6246   -2.9790    1.2601 O   0  0  0  0  0  0  0  0  0  0  0  0
   -1.4275   -0.9860    0.5643 N   0  0  0  0  0  0  0  0  0  0  0  0
   -2.2662   -0.4192    0.4484 H   0  0  0  0  0  0  0  0  0  0  0  0
   -0.1366   -0.2895    0.4207 C   0  0  1  0  0  0  0  0  0  0  0  0
    0.5884   -0.8139    1.0518 H   0  0  0  0  0  0  0  0  0  0  0  0
    0.4375   -0.3495   -1.0411 C   0  0  1  0  0  0  0  0  0  0  0  0
    1.5100   -0.5236   -0.9036 H   0  0  0  0  0  0  0  0  0  0  0  0
   -0.0933   -1.5403   -1.8636 C   0  0  0  0  0  0  0  0  0  0  0  0
   -1.1645   -1.4326   -2.0601 H   0  0  0  0  0  0  0  0  0  0  0  0
    0.4238   -1.6111   -2.8240 H   0  0  0  0  0  0  0  0  0  0  0  0
    0.0759   -2.4796   -1.3292 H   0  0  0  0  0  0  0  0  0  0  0  0
    0.3209    0.9567   -1.8761 C   0  0  0  0  0  0  0  0  0  0  0  0
   -0.6494    0.9873   -2.3825 H   0  0  0  0  0  0  0  0  0  0  0  0
    0.3845    1.8468   -1.2477 H   0  0  0  0  0  0  0  0  0  0  0  0
    1.4549    1.0901   -2.8978 C   0  0  0  0  0  0  0  0  0  0  0  0
    1.4312    0.2708   -3.6215 H   0  0  0  0  0  0  0  0  0  0  0  0
    1.3522    2.0322   -3.4450 H   0  0  0  0  0  0  0  0  0  0  0  0
    2.4275    1.0877   -2.3962 H   0  0  0  0  0  0  0  0  0  0  0  0
   -0.2565    1.1256    1.0266 C   0  0  0  0  0  0  0  0  0  0  0  0
   -1.2875    1.7735    0.8763 O   0  0  0  0  0  0  0  0  0  0  0  0
    0.7390    1.6231    1.8473 N   0  0  0  0  0  0  0  0  0  0  0  0
    1.5530    1.0369    2.0085 H   0  0  0  0  0  0  0  0  0  0  0  0
    0.6456    2.9068    2.5318 C   0  0  0  0  0  0  0  0  0  0  0  0
   -0.2299    2.9288    3.1893 H   0  0  0  0  0  0  0  0  0  0  0  0
    1.5386    3.0761    3.1409 H   0  0  0  0  0  0  0  0  0  0  0  0
    0.5622    3.7225    1.8061 H   0  0  0  0  0  0  0  0  0  0  0  0
  1  2  1  0  0  0  0
  2  3  1  0  0  0  0
  2  4  1  0  0  0  0
  2  5  1  0  0  0  0
  5  6  2  0  0  0  0
  5  7  1  0  0  0  0
  7  8  1  0  0  0  0
  7  9  1  0  0  0  0
  9 10  1  0  0  0  0
  9 11  1  0  0  0  0
  9 24  1  0  0  0  0
 11 12  1  0  0  0  0
 11 13  1  0  0  0  0
 11 17  1  0  0  0  0
 13 14  1  0  0  0  0
 13 15  1  0  0  0  0
 13 16  1  0  0  0  0
 17 18  1  0  0  0  0
 17 19  1  0  0  0  0
 17 20  1  0  0  0  0
 20 21  1  0  0  0  0
 20 22  1  0  0  0  0
 20 23  1  0  0  0  0
 24 25  2  0  0  0  0
 24 26  1  0  0  0  0
 26 27  1  0  0  0  0
 26 28  1  0  0  0  0
 28 29  1  0  0  0  0
 28 30  1  0  0  0  0
 28 31  1  0  0  0  0
M  END
$$$$

  -OEChem-03222214053D

 31 30  0     1  0  0  0  0  0999 V2000
   -2.9596   -3.8710    1.5454 H   0  0  0  0  0  0  0  0  0  0  0  0
   -3.0000   -2.8474    1.1624 C   0  0  0  0  0  0  0  0  0  0  0  0
   -3.5684   -2.2309    1.8631 H   0  0  0  0  0  0  0  0  0  0  0  0
   -3.5089   -2.8521    0.1954 H   0  0  0  0  0  0  0  0  0  0  0  0
   -1.5971   -2.2922    1.0051 C   0  0  0  0  0  0  0  0  0  0  0  0
   -0.6319   -2.9835    1.2912 O   0  0  0  0  0  0  0  0  0  0  0  0
   -1.4214   -0.9981    0.5602 N   0  0  0  0  0  0  0  0  0  0  0  0
   -2.2563   -0.4283    0.4325 H   0  0  0  0  0  0  0  0  0  0  0  0
   -0.1255   -0.3102    0.4175 C   0  0  1  0  0  0  0  0  0  0  0  0
    0.5966   -0.8312    1.0544 H   0  0  0  0  0  0  0  0  0  0  0  0
    0.4512   -0.3724   -1.0430 C   0  0  1  0  0  0  0  0  0  0  0  0
    1.5248   -0.5500   -0.9191 H   0  0  0  0  0  0  0  0  0  0  0  0
   -0.0958   -1.5578   -1.8640 C   0  0  0  0  0  0  0  0  0  0  0  0
   -1.1547   -1.4121   -2.0987 H   0  0  0  0  0  0  0  0  0  0  0  0
    0.4524   -1.6716   -2.8027 H   0  0  0  0  0  0  0  0  0  0  0  0
    0.0193   -2.4929   -1.3087 H   0  0  0  0  0  0  0  0  0  0  0  0
    0.3273    0.9519   -1.8438 C   0  0  0  0  0  0  0  0  0  0  0  0
   -0.7198    1.1240   -2.1144 H   0  0  0  0  0  0  0  0  0  0  0  0
    0.6565    1.7974   -1.2339 H   0  0  0  0  0  0  0  0  0  0  0  0
    1.2030    0.9776   -3.1014 C   0  0  0  0  0  0  0  0  0  0  0  0
    0.8432    0.2634   -3.8469 H   0  0  0  0  0  0  0  0  0  0  0  0
    1.1773    1.9750   -3.5510 H   0  0  0  0  0  0  0  0  0  0  0  0
    2.2415    0.7376   -2.8531 H   0  0  0  0  0  0  0  0  0  0  0  0
   -0.2480    1.1130    1.0051 C   0  0  0  0  0  0  0  0  0  0  0  0
   -1.2729    1.7646    0.8313 O   0  0  0  0  0  0  0  0  0  0  0  0
    0.7409    1.6188    1.8287 N   0  0  0  0  0  0  0  0  0  0  0  0
    1.5480    1.0297    2.0118 H   0  0  0  0  0  0  0  0  0  0  0  0
    0.6465    2.9136    2.4915 C   0  0  0  0  0  0  0  0  0  0  0  0
   -0.2232    2.9411    3.1563 H   0  0  0  0  0  0  0  0  0  0  0  0
    1.5444    3.0990    3.0888 H   0  0  0  0  0  0  0  0  0  0  0  0
    0.5512    3.7162    1.7527 H   0  0  0  0  0  0  0  0  0  0  0  0
  1  2  1  0  0  0  0
  2  3  1  0  0  0  0
  2  4  1  0  0  0  0
  2  5  1  0  0  0  0
  5  6  2  0  0  0  0
  5  7  1  0  0  0  0
  7  8  1  0  0  0  0
  7  9  1  0  0  0  0
  9 10  1  0  0  0  0
  9 11  1  0  0  0  0
  9 24  1  0  0  0  0
 11 12  1  0  0  0  0
 11 13  1  0  0  0  0
 11 17  1  0  0  0  0
 13 14  1  0  0  0  0
 13 15  1  0  0  0  0
 13 16  1  0  0  0  0
 17 18  1  0  0  0  0
 17 19  1  0  0  0  0
 17 20  1  0  0  0  0
 20 21  1  0  0  0  0
 20 22  1  0  0  0  0
 20 23  1  0  0  0  0
 24 25  2  0  0  0  0
 24 26  1  0  0  0  0
 26 27  1  0  0  0  0
 26 28  1  0  0  0  0
 28 29  1  0  0  0  0
 28 30  1  0  0  0  0
 28 31  1  0  0  0  0
M  END
$$$$

  -OEChem-03222214053D

 31 30  0     1  0  0  0  0  0999 V2000
   -2.9634   -3.8596    1.5837 H   0  0  0  0  0  0  0  0  0  0  0  0
   -3.0040   -2.8374    1.1972 C   0  0  0  0  0  0  0  0  0  0  0  0
   -3.5514   -2.2136    1.9079 H   0  0  0  0  0  0  0  0  0  0  0  0
   -3.5350   -2.8425    0.2423 H   0  0  0  0  0  0  0  0  0  0  0  0
   -1.6006   -2.2946    1.0051 C   0  0  0  0  0  0  0  0  0  0  0  0
   -0.6342   -2.9947    1.2641 O   0  0  0  0  0  0  0  0  0  0  0  0
   -1.4233   -1.0046    0.5496 N   0  0  0  0  0  0  0  0  0  0  0  0
   -2.2551   -0.4265    0.4381 H   0  0  0  0  0  0  0  0  0  0  0  0
   -0.1226   -0.3262    0.4055 C   0  0  1  0  0  0  0  0  0  0  0  0
    0.5945   -0.8389    1.0549 H   0  0  0  0  0  0  0  0  0  0  0  0
    0.4762   -0.3943   -1.0487 C   0  0  1  0  0  0  0  0  0  0  0  0
    1.4667   -0.8516   -0.9517 H   0  0  0  0  0  0  0  0  0  0  0  0
   -0.3344   -1.3115   -1.9908 C   0  0  0  0  0  0  0  0  0  0  0  0
   -1.3195   -0.8808   -2.1957 H   0  0  0  0  0  0  0  0  0  0  0  0
    0.1857   -1.4597   -2.9406 H   0  0  0  0  0  0  0  0  0  0  0  0
   -0.4647   -2.3027   -1.5470 H   0  0  0  0  0  0  0  0  0  0  0  0
    0.6960    1.0039   -1.6888 C   0  0  0  0  0  0  0  0  0  0  0  0
   -0.2555    1.5448   -1.7290 H   0  0  0  0  0  0  0  0  0  0  0  0
    1.3863    1.5790   -1.0634 H   0  0  0  0  0  0  0  0  0  0  0  0
    1.2802    0.9656   -3.1050 C   0  0  0  0  0  0  0  0  0  0  0  0
    0.5473    0.5863   -3.8232 H   0  0  0  0  0  0  0  0  0  0  0  0
    1.5638    1.9755   -3.4167 H   0  0  0  0  0  0  0  0  0  0  0  0
    2.1714    0.3311   -3.1362 H   0  0  0  0  0  0  0  0  0  0  0  0
   -0.2516    1.1014    0.9841 C   0  0  0  0  0  0  0  0  0  0  0  0
   -1.2774    1.7497    0.8036 O   0  0  0  0  0  0  0  0  0  0  0  0
    0.7314    1.6133    1.8113 N   0  0  0  0  0  0  0  0  0  0  0  0
    1.5398    1.0279    2.0011 H   0  0  0  0  0  0  0  0  0  0  0  0
    0.6295    2.9114    2.4663 C   0  0  0  0  0  0  0  0  0  0  0  0
   -0.2447    2.9405    3.1254 H   0  0  0  0  0  0  0  0  0  0  0  0
    1.5229    3.1025    3.0686 H   0  0  0  0  0  0  0  0  0  0  0  0
    0.5368    3.7096    1.7222 H   0  0  0  0  0  0  0  0  0  0  0  0
  1  2  1  0  0  0  0
  2  3  1  0  0  0  0
  2  4  1  0  0  0  0
  2  5  1  0  0  0  0
  5  6  2  0  0  0  0
  5  7  1  0  0  0  0
  7  8  1  0  0  0  0
  7  9  1  0  0  0  0
  9 10  1  0  0  0  0
  9 11  1  0  0  0  0
  9 24  1  0  0  0  0
 11 12  1  0  0  0  0
 11 13  1  0  0  0  0
 11 17  1  0  0  0  0
 13 14  1  0  0  0  0
 13 15  1  0  0  0  0
 13 16  1  0  0  0  0
 17 18  1  0  0  0  0
 17 19  1  0  0  0  0
 17 20  1  0  0  0  0
 20 21  1  0  0  0  0
 20 22  1  0  0  0  0
 20 23  1  0  0  0  0
 24 25  2  0  0  0  0
 24 26  1  0  0  0  0
 26 27  1  0  0  0  0
 26 28  1  0  0  0  0
 28 29  1  0  0  0  0
 28 30  1  0  0  0  0
 28 31  1  0  0  0  0
M  END
$$$$

  -OEChem-03222214053D

 31 30  0     1  0  0  0  0  0999 V2000
   -2.9697   -3.8551    1.5970 H   0  0  0  0  0  0  0  0  0  0  0  0
   -3.0143   -2.8349    1.2057 C   0  0  0  0  0  0  0  0  0  0  0  0
   -3.5543   -2.2074    1.9189 H   0  0  0  0  0  0  0  0  0  0  0  0
   -3.5556   -2.8447    0.2566 H   0  0  0  0  0  0  0  0  0  0  0  0
   -1.6130   -2.2927    0.9965 C   0  0  0  0  0  0  0  0  0  0  0  0
   -0.6437   -2.9954    1.2374 O   0  0  0  0  0  0  0  0  0  0  0  0
   -1.4408   -0.9990    0.5495 N   0  0  0  0  0  0  0  0  0  0  0  0
   -2.2740   -0.4193    0.4598 H   0  0  0  0  0  0  0  0  0  0  0  0
   -0.1426   -0.3163    0.3973 C   0  0  1  0  0  0  0  0  0  0  0  0
    0.5717   -0.8319    1.0475 H   0  0  0  0  0  0  0  0  0  0  0  0
    0.4713   -0.3918   -1.0519 C   0  0  1  0  0  0  0  0  0  0  0  0
    1.4663   -0.8377   -0.9483 H   0  0  0  0  0  0  0  0  0  0  0  0
   -0.3225   -1.3414   -1.9773 C   0  0  0  0  0  0  0  0  0  0  0  0
   -1.3139   -0.9307   -2.1927 H   0  0  0  0  0  0  0  0  0  0  0  0
    0.2029   -1.5024   -2.9226 H   0  0  0  0  0  0  0  0  0  0  0  0
   -0.4378   -2.3252   -1.5141 H   0  0  0  0  0  0  0  0  0  0  0  0
    0.6869    1.0058   -1.7040 C   0  0  0  0  0  0  0  0  0  0  0  0
   -0.2055    1.6216   -1.5565 H   0  0  0  0  0  0  0  0  0  0  0  0
    1.5260    1.5027   -1.2063 H   0  0  0  0  0  0  0  0  0  0  0  0
    0.9416    0.9959   -3.2157 C   0  0  0  0  0  0  0  0  0  0  0  0
    0.0509    0.6749   -3.7641 H   0  0  0  0  0  0  0  0  0  0  0  0
    1.1990    2.0043   -3.5538 H   0  0  0  0  0  0  0  0  0  0  0  0
    1.7729    0.3272   -3.4603 H   0  0  0  0  0  0  0  0  0  0  0  0
   -0.2565    1.1090    0.9856 C   0  0  0  0  0  0  0  0  0  0  0  0
   -1.2913    1.7528    0.8441 O   0  0  0  0  0  0  0  0  0  0  0  0
    0.7402    1.6113    1.8021 N   0  0  0  0  0  0  0  0  0  0  0  0
    1.5551    1.0269    1.9645 H   0  0  0  0  0  0  0  0  0  0  0  0
    0.6490    2.9007    2.4763 C   0  0  0  0  0  0  0  0  0  0  0  0
   -0.2168    2.9225    3.1464 H   0  0  0  0  0  0  0  0  0  0  0  0
    1.5500    3.0820    3.0701 H   0  0  0  0  0  0  0  0  0  0  0  0
    0.5492    3.7093    1.7446 H   0  0  0  0  0  0  0  0  0  0  0  0
  1  2  1  0  0  0  0
  2  3  1  0  0  0  0
  2  4  1  0  0  0  0
  2  5  1  0  0  0  0
  5  6  2  0  0  0  0
  5  7  1  0  0  0  0
  7  8  1  0  0  0  0
  7  9  1  0  0  0  0
  9 10  1  0  0  0  0
  9 11  1  0  0  0  0
  9 24  1  0  0  0  0
 11 12  1  0  0  0  0
 11 13  1  0  0  0  0
 11 17  1  0  0  0  0
 13 14  1  0  0  0  0
 13 15  1  0  0  0  0
 13 16  1  0  0  0  0
 17 18  1  0  0  0  0
 17 19  1  0  0  0  0
 17 20  1  0  0  0  0
 20 21  1  0  0  0  0
 20 22  1  0  0  0  0
 20 23  1  0  0  0  0
 24 25  2  0  0  0  0
 24 26  1  0  0  0  0
 26 27  1  0  0  0  0
 26 28  1  0  0  0  0
 28 29  1  0  0  0  0
 28 30  1  0  0  0  0
 28 31  1  0  0  0  0
M  END
$$$$

  -OEChem-03222214053D

 31 30  0     1  0  0  0  0  0999 V2000
   -2.9716   -3.8584    1.5698 H   0  0  0  0  0  0  0  0  0  0  0  0
   -3.0215   -2.8307    1.1991 C   0  0  0  0  0  0  0  0  0  0  0  0
   -3.5574   -2.2191    1.9290 H   0  0  0  0  0  0  0  0  0  0  0  0
   -3.5700   -2.8227    0.2540 H   0  0  0  0  0  0  0  0  0  0  0  0
   -1.6229   -2.2815    0.9901 C   0  0  0  0  0  0  0  0  0  0  0  0
   -0.6509   -2.9838    1.2210 O   0  0  0  0  0  0  0  0  0  0  0  0
   -1.4565   -0.9820    0.5572 N   0  0  0  0  0  0  0  0  0  0  0  0
   -2.2921   -0.4045    0.4754 H   0  0  0  0  0  0  0  0  0  0  0  0
   -0.1616   -0.2942    0.3975 C   0  0  1  0  0  0  0  0  0  0  0  0
    0.5528   -0.8151    1.0433 H   0  0  0  0  0  0  0  0  0  0  0  0
    0.4564   -0.3746   -1.0516 C   0  0  1  0  0  0  0  0  0  0  0  0
    1.4570   -0.8045   -0.9341 H   0  0  0  0  0  0  0  0  0  0  0  0
   -0.3102   -1.3709   -1.9516 C   0  0  0  0  0  0  0  0  0  0  0  0
   -1.3190   -1.0043   -2.1657 H   0  0  0  0  0  0  0  0  0  0  0  0
    0.2138   -1.5320   -2.8974 H   0  0  0  0  0  0  0  0  0  0  0  0
   -0.3843   -2.3486   -1.4678 H   0  0  0  0  0  0  0  0  0  0  0  0
    0.6765    1.0128   -1.7398 C   0  0  0  0  0  0  0  0  0  0  0  0
   -0.0887    1.7208   -1.4142 H   0  0  0  0  0  0  0  0  0  0  0  0
    1.6485    1.4095   -1.4293 H   0  0  0  0  0  0  0  0  0  0  0  0
    0.5840    1.0372   -3.2708 C   0  0  0  0  0  0  0  0  0  0  0  0
   -0.4184    0.7599   -3.6109 H   0  0  0  0  0  0  0  0  0  0  0  0
    0.7968    2.0461   -3.6371 H   0  0  0  0  0  0  0  0  0  0  0  0
    1.3157    0.3533   -3.7118 H   0  0  0  0  0  0  0  0  0  0  0  0
   -0.2627    1.1242    1.0025 C   0  0  0  0  0  0  0  0  0  0  0  0
   -1.3004    1.7692    0.8907 O   0  0  0  0  0  0  0  0  0  0  0  0
    0.7483    1.6131    1.8095 N   0  0  0  0  0  0  0  0  0  0  0  0
    1.5632    1.0235    1.9522 H   0  0  0  0  0  0  0  0  0  0  0  0
    0.6667    2.8874    2.5129 C   0  0  0  0  0  0  0  0  0  0  0  0
   -0.1763    2.8860    3.2119 H   0  0  0  0  0  0  0  0  0  0  0  0
    1.5855    3.0659    3.0798 H   0  0  0  0  0  0  0  0  0  0  0  0
    0.5339    3.7098    1.8020 H   0  0  0  0  0  0  0  0  0  0  0  0
  1  2  1  0  0  0  0
  2  3  1  0  0  0  0
  2  4  1  0  0  0  0
  2  5  1  0  0  0  0
  5  6  2  0  0  0  0
  5  7  1  0  0  0  0
  7  8  1  0  0  0  0
  7  9  1  0  0  0  0
  9 10  1  0  0  0  0
  9 11  1  0  0  0  0
  9 24  1  0  0  0  0
 11 12  1  0  0  0  0
 11 13  1  0  0  0  0
 11 17  1  0  0  0  0
 13 14  1  0  0  0  0
 13 15  1  0  0  0  0
 13 16  1  0  0  0  0
 17 18  1  0  0  0  0
 17 19  1  0  0  0  0
 17 20  1  0  0  0  0
 20 21  1  0  0  0  0
 20 22  1  0  0  0  0
 20 23  1  0  0  0  0
 24 25  2  0  0  0  0
 24 26  1  0  0  0  0
 26 27  1  0  0  0  0
 26 28  1  0  0  0  0
 28 29  1  0  0  0  0
 28 30  1  0  0  0  0
 28 31  1  0  0  0  0
M  END
$$$$

  -OEChem-03222214053D

 31 30  0     1  0  0  0  0  0999 V2000
   -2.9754   -3.8569    1.5459 H   0  0  0  0  0  0  0  0  0  0  0  0
   -3.0241   -2.8250    1.1867 C   0  0  0  0  0  0  0  0  0  0  0  0
   -3.5646   -2.2217    1.9202 H   0  0  0  0  0  0  0  0  0  0  0  0
   -3.5670   -2.8071    0.2386 H   0  0  0  0  0  0  0  0  0  0  0  0
   -1.6247   -2.2726    0.9917 C   0  0  0  0  0  0  0  0  0  0  0  0
   -0.6539   -2.9772    1.2206 O   0  0  0  0  0  0  0  0  0  0  0  0
   -1.4558   -0.9694    0.5707 N   0  0  0  0  0  0  0  0  0  0  0  0
   -2.2904   -0.3907    0.4882 H   0  0  0  0  0  0  0  0  0  0  0  0
   -0.1601   -0.2839    0.4088 C   0  0  1  0  0  0  0  0  0  0  0  0
    0.5600   -0.8109    1.0433 H   0  0  0  0  0  0  0  0  0  0  0  0
    0.4374   -0.3594   -1.0511 C   0  0  1  0  0  0  0  0  0  0  0  0
    1.4423   -0.7773   -0.9260 H   0  0  0  0  0  0  0  0  0  0  0  0
   -0.3024   -1.3915   -1.9339 C   0  0  0  0  0  0  0  0  0  0  0  0
   -1.3295   -1.0716   -2.1348 H   0  0  0  0  0  0  0  0  0  0  0  0
    0.2152   -1.5362   -2.8859 H   0  0  0  0  0  0  0  0  0  0  0  0
   -0.3288   -2.3679   -1.4423 H   0  0  0  0  0  0  0  0  0  0  0  0
    0.6704    1.0160   -1.7712 C   0  0  0  0  0  0  0  0  0  0  0  0
    0.1412    1.8253   -1.2688 H   0  0  0  0  0  0  0  0  0  0  0  0
    1.7377    1.2547   -1.7192 H   0  0  0  0  0  0  0  0  0  0  0  0
    0.2172    1.1139   -3.2339 C   0  0  0  0  0  0  0  0  0  0  0  0
   -0.8558    0.9198   -3.3255 H   0  0  0  0  0  0  0  0  0  0  0  0
    0.4114    2.1224   -3.6118 H   0  0  0  0  0  0  0  0  0  0  0  0
    0.7679    0.4081   -3.8627 H   0  0  0  0  0  0  0  0  0  0  0  0
   -0.2639    1.1258    1.0314 C   0  0  0  0  0  0  0  0  0  0  0  0
   -1.2991    1.7747    0.9181 O   0  0  0  0  0  0  0  0  0  0  0  0
    0.7479    1.6094    1.8404 N   0  0  0  0  0  0  0  0  0  0  0  0
    1.5640    1.0200    1.9769 H   0  0  0  0  0  0  0  0  0  0  0  0
    0.6716    2.8834    2.5444 C   0  0  0  0  0  0  0  0  0  0  0  0
   -0.1696    2.8844    3.2455 H   0  0  0  0  0  0  0  0  0  0  0  0
    1.5924    3.0588    3.1090 H   0  0  0  0  0  0  0  0  0  0  0  0
    0.5398    3.7062    1.8340 H   0  0  0  0  0  0  0  0  0  0  0  0
  1  2  1  0  0  0  0
  2  3  1  0  0  0  0
  2  4  1  0  0  0  0
  2  5  1  0  0  0  0
  5  6  2  0  0  0  0
  5  7  1  0  0  0  0
  7  8  1  0  0  0  0
  7  9  1  0  0  0  0
  9 10  1  0  0  0  0
  9 11  1  0  0  0  0
  9 24  1  0  0  0  0
 11 12  1  0  0  0  0
 11 13  1  0  0  0  0
 11 17  1  0  0  0  0
 13 14  1  0  0  0  0
 13 15  1  0  0  0  0
 13 16  1  0  0  0  0
 17 18  1  0  0  0  0
 17 19  1  0  0  0  0
 17 20  1  0  0  0  0
 20 21  1  0  0  0  0
 20 22  1  0  0  0  0
 20 23  1  0  0  0  0
 24 25  2  0  0  0  0
 24 26  1  0  0  0  0
 26 27  1  0  0  0  0
 26 28  1  0  0  0  0
 28 29  1  0  0  0  0
 28 30  1  0  0  0  0
 28 31  1  0  0  0  0
M  END
$$$$

  -OEChem-03222214053D

 31 30  0     1  0  0  0  0  0999 V2000
   -2.9786   -3.8403    1.5642 H   0  0  0  0  0  0  0  0  0  0  0  0
   -3.0193   -2.8154    1.1852 C   0  0  0  0  0  0  0  0  0  0  0  0
   -3.5668   -2.1966    1.9002 H   0  0  0  0  0  0  0  0  0  0  0  0
   -3.5498   -2.8132    0.2300 H   0  0  0  0  0  0  0  0  0  0  0  0
   -1.6161   -2.2706    0.9981 C   0  0  0  0  0  0  0  0  0  0  0  0
   -0.6494   -2.9789    1.2331 O   0  0  0  0  0  0  0  0  0  0  0  0
   -1.4397   -0.9691    0.5762 N   0  0  0  0  0  0  0  0  0  0  0  0
   -2.2710   -0.3861    0.4887 H   0  0  0  0  0  0  0  0  0  0  0  0
   -0.1400   -0.2911    0.4192 C   0  0  1  0  0  0  0  0  0  0  0  0
    0.5859   -0.8213    1.0445 H   0  0  0  0  0  0  0  0  0  0  0  0
    0.4229   -0.3564   -1.0535 C   0  0  1  0  0  0  0  0  0  0  0  0
    1.4311   -0.7658   -0.9262 H   0  0  0  0  0  0  0  0  0  0  0  0
   -0.2987   -1.3984   -1.9370 C   0  0  0  0  0  0  0  0  0  0  0  0
   -1.3360   -1.1064   -2.1269 H   0  0  0  0  0  0  0  0  0  0  0  0
    0.2166   -1.5150   -2.8945 H   0  0  0  0  0  0  0  0  0  0  0  0
   -0.2945   -2.3791   -1.4529 H   0  0  0  0  0  0  0  0  0  0  0  0
    0.6663    1.0116   -1.7828 C   0  0  0  0  0  0  0  0  0  0  0  0
    0.4755    1.8718   -1.1420 H   0  0  0  0  0  0  0  0  0  0  0  0
    1.7292    1.0612   -2.0413 H   0  0  0  0  0  0  0  0  0  0  0  0
   -0.1240    1.2370   -3.0784 C   0  0  0  0  0  0  0  0  0  0  0  0
   -1.1993    1.1603   -2.8906 H   0  0  0  0  0  0  0  0  0  0  0  0
    0.0832    2.2391   -3.4659 H   0  0  0  0  0  0  0  0  0  0  0  0
    0.1596    0.5152   -3.8494 H   0  0  0  0  0  0  0  0  0  0  0  0
   -0.2567    1.1165    1.0439 C   0  0  0  0  0  0  0  0  0  0  0  0
   -1.2859    1.7696    0.9030 O   0  0  0  0  0  0  0  0  0  0  0  0
    0.7445    1.6047    1.8636 N   0  0  0  0  0  0  0  0  0  0  0  0
    1.5608    1.0182    2.0108 H   0  0  0  0  0  0  0  0  0  0  0  0
    0.6588    2.8833    2.5586 C   0  0  0  0  0  0  0  0  0  0  0  0
   -0.2199    2.9070    3.2117 H   0  0  0  0  0  0  0  0  0  0  0  0
    1.5500    3.0391    3.1739 H   0  0  0  0  0  0  0  0  0  0  0  0
    0.5863    3.7058    1.8393 H   0  0  0  0  0  0  0  0  0  0  0  0
  1  2  1  0  0  0  0
  2  3  1  0  0  0  0
  2  4  1  0  0  0  0
  2  5  1  0  0  0  0
  5  6  2  0  0  0  0
  5  7  1  0  0  0  0
  7  8  1  0  0  0  0
  7  9  1  0  0  0  0
  9 10  1  0  0  0  0
  9 11  1  0  0  0  0
  9 24  1  0  0  0  0
 11 12  1  0  0  0  0
 11 13  1  0  0  0  0
 11 17  1  0  0  0  0
 13 14  1  0  0  0  0
 13 15  1  0  0  0  0
 13 16  1  0  0  0  0
 17 18  1  0  0  0  0
 17 19  1  0  0  0  0
 17 20  1  0  0  0  0
 20 21  1  0  0  0  0
 20 22  1  0  0  0  0
 20 23  1  0  0  0  0
 24 25  2  0  0  0  0
 24 26  1  0  0  0  0
 26 27  1  0  0  0  0
 26 28  1  0  0  0  0
 28 29  1  0  0  0  0
 28 30  1  0  0  0  0
 28 31  1  0  0  0  0
M  END
$$$$

  -OEChem-03222214053D

 31 30  0     1  0  0  0  0  0999 V2000
   -2.9808   -3.8456    1.5593 H   0  0  0  0  0  0  0  0  0  0  0  0
   -3.0174   -2.8163    1.1916 C   0  0  0  0  0  0  0  0  0  0  0  0
   -3.5596   -2.2027    1.9151 H   0  0  0  0  0  0  0  0  0  0  0  0
   -3.5514   -2.8014    0.2383 H   0  0  0  0  0  0  0  0  0  0  0  0
   -1.6120   -2.2768    1.0055 C   0  0  0  0  0  0  0  0  0  0  0  0
   -0.6484   -2.9861    1.2494 O   0  0  0  0  0  0  0  0  0  0  0  0
   -1.4293   -0.9800    0.5726 N   0  0  0  0  0  0  0  0  0  0  0  0
   -2.2580   -0.3955    0.4712 H   0  0  0  0  0  0  0  0  0  0  0  0
   -0.1258   -0.3084    0.4258 C   0  0  1  0  0  0  0  0  0  0  0  0
    0.6002   -0.8362    1.0532 H   0  0  0  0  0  0  0  0  0  0  0  0
    0.4250   -0.3681   -1.0484 C   0  0  1  0  0  0  0  0  0  0  0  0
    1.4317   -0.7829   -0.9264 H   0  0  0  0  0  0  0  0  0  0  0  0
   -0.3045   -1.3855   -1.9514 C   0  0  0  0  0  0  0  0  0  0  0  0
   -1.3495   -1.1008   -2.1084 H   0  0  0  0  0  0  0  0  0  0  0  0
    0.1900   -1.4530   -2.9251 H   0  0  0  0  0  0  0  0  0  0  0  0
   -0.2782   -2.3825   -1.5014 H   0  0  0  0  0  0  0  0  0  0  0  0
    0.6725    1.0013   -1.7606 C   0  0  0  0  0  0  0  0  0  0  0  0
    0.7913    1.8280   -1.0586 H   0  0  0  0  0  0  0  0  0  0  0  0
    1.6305    0.9245   -2.2855 H   0  0  0  0  0  0  0  0  0  0  0  0
   -0.3713    1.3873   -2.8155 C   0  0  0  0  0  0  0  0  0  0  0  0
   -1.3708    1.4065   -2.3696 H   0  0  0  0  0  0  0  0  0  0  0  0
   -0.1502    2.3851   -3.2065 H   0  0  0  0  0  0  0  0  0  0  0  0
   -0.3691    0.6889   -3.6571 H   0  0  0  0  0  0  0  0  0  0  0  0
   -0.2525    1.1045    1.0359 C   0  0  0  0  0  0  0  0  0  0  0  0
   -1.2720    1.7638    0.8586 O   0  0  0  0  0  0  0  0  0  0  0  0
    0.7361    1.6003    1.8660 N   0  0  0  0  0  0  0  0  0  0  0  0
    1.5415    1.0077    2.0458 H   0  0  0  0  0  0  0  0  0  0  0  0
    0.6461    2.8926    2.5343 C   0  0  0  0  0  0  0  0  0  0  0  0
   -0.2198    2.9179    3.2043 H   0  0  0  0  0  0  0  0  0  0  0  0
    1.5477    3.0754    3.1270 H   0  0  0  0  0  0  0  0  0  0  0  0
    0.5470    3.6981    1.7991 H   0  0  0  0  0  0  0  0  0  0  0  0
  1  2  1  0  0  0  0
  2  3  1  0  0  0  0
  2  4  1  0  0  0  0
  2  5  1  0  0  0  0
  5  6  2  0  0  0  0
  5  7  1  0  0  0  0
  7  8  1  0  0  0  0
  7  9  1  0  0  0  0
  9 10  1  0  0  0  0
  9 11  1  0  0  0  0
  9 24  1  0  0  0  0
 11 12  1  0  0  0  0
 11 13  1  0  0  0  0
 11 17  1  0  0  0  0
 13 14  1  0  0  0  0
 13 15  1  0  0  0  0
 13 16  1  0  0  0  0
 17 18  1  0  0  0  0
 17 19  1  0  0  0  0
 17 20  1  0  0  0  0
 20 21  1  0  0  0  0
 20 22  1  0  0  0  0
 20 23  1  0  0  0  0
 24 25  2  0  0  0  0
 24 26  1  0  0  0  0
 26 27  1  0  0  0  0
 26 28  1  0  0  0  0
 28 29  1  0  0  0  0
 28 30  1  0  0  0  0
 28 31  1  0  0  0  0
M  END
$$$$

  -OEChem-03222214053D

 31 30  0     1  0  0  0  0  0999 V2000
   -2.9744   -3.8499    1.5696 H   0  0  0  0  0  0  0  0  0  0  0  0
   -3.0151   -2.8211    1.2011 C   0  0  0  0  0  0  0  0  0  0  0  0
   -3.5556   -2.2080    1.9264 H   0  0  0  0  0  0  0  0  0  0  0  0
   -3.5533   -2.8082    0.2503 H   0  0  0  0  0  0  0  0  0  0  0  0
   -1.6117   -2.2789    1.0081 C   0  0  0  0  0  0  0  0  0  0  0  0
   -0.6456   -2.9868    1.2463 O   0  0  0  0  0  0  0  0  0  0  0  0
   -1.4337   -0.9836    0.5693 N   0  0  0  0  0  0  0  0  0  0  0  0
   -2.2638   -0.3999    0.4753 H   0  0  0  0  0  0  0  0  0  0  0  0
   -0.1320   -0.3085    0.4247 C   0  0  1  0  0  0  0  0  0  0  0  0
    0.5901   -0.8324    1.0597 H   0  0  0  0  0  0  0  0  0  0  0  0
    0.4331   -0.3756   -1.0411 C   0  0  1  0  0  0  0  0  0  0  0  0
    1.4369   -0.7972   -0.9204 H   0  0  0  0  0  0  0  0  0  0  0  0
   -0.3093   -1.3650   -1.9625 C   0  0  0  0  0  0  0  0  0  0  0  0
   -1.3575   -1.0792   -2.0926 H   0  0  0  0  0  0  0  0  0  0  0  0
    0.1668   -1.3951   -2.9474 H   0  0  0  0  0  0  0  0  0  0  0  0
   -0.2732   -2.3752   -1.5435 H   0  0  0  0  0  0  0  0  0  0  0  0
    0.6747    0.9916   -1.7431 C   0  0  0  0  0  0  0  0  0  0  0  0
    1.0243    1.7503   -1.0387 H   0  0  0  0  0  0  0  0  0  0  0  0
    1.4879    0.8564   -2.4638 H   0  0  0  0  0  0  0  0  0  0  0  0
   -0.5307    1.5256   -2.5259 C   0  0  0  0  0  0  0  0  0  0  0  0
   -1.4128    1.5826   -1.8813 H   0  0  0  0  0  0  0  0  0  0  0  0
   -0.3129    2.5298   -2.9015 H   0  0  0  0  0  0  0  0  0  0  0  0
   -0.7612    0.8870   -3.3835 H   0  0  0  0  0  0  0  0  0  0  0  0
   -0.2517    1.1104    1.0237 C   0  0  0  0  0  0  0  0  0  0  0  0
   -1.2781    1.7638    0.8669 O   0  0  0  0  0  0  0  0  0  0  0  0
    0.7404    1.6058    1.8503 N   0  0  0  0  0  0  0  0  0  0  0  0
    1.5484    1.0148    2.0232 H   0  0  0  0  0  0  0  0  0  0  0  0
    0.6491    2.8938    2.5268 C   0  0  0  0  0  0  0  0  0  0  0  0
   -0.2083    2.9085    3.2077 H   0  0  0  0  0  0  0  0  0  0  0  0
    1.5566    3.0807    3.1089 H   0  0  0  0  0  0  0  0  0  0  0  0
    0.5341    3.7023    1.7973 H   0  0  0  0  0  0  0  0  0  0  0  0
  1  2  1  0  0  0  0
  2  3  1  0  0  0  0
  2  4  1  0  0  0  0
  2  5  1  0  0  0  0
  5  6  2  0  0  0  0
  5  7  1  0  0  0  0
  7  8  1  0  0  0  0
  7  9  1  0  0  0  0
  9 10  1  0  0  0  0
  9 11  1  0  0  0  0
  9 24  1  0  0  0  0
 11 12  1  0  0  0  0
 11 13  1  0  0  0  0
 11 17  1  0  0  0  0
 13 14  1  0  0  0  0
 13 15  1  0  0  0  0
 13 16  1  0  0  0  0
 17 18  1  0  0  0  0
 17 19  1  0  0  0  0
 17 20  1  0  0  0  0
 20 21  1  0  0  0  0
 20 22  1  0  0  0  0
 20 23  1  0  0  0  0
 24 25  2  0  0  0  0
 24 26  1  0  0  0  0
 26 27  1  0  0  0  0
 26 28  1  0  0  0  0
 28 29  1  0  0  0  0
 28 30  1  0  0  0  0
 28 31  1  0  0  0  0
M  END
$$$$

  -OEChem-03222214053D

 31 30  0     1  0  0  0  0  0999 V2000
   -2.9497   -3.8551    1.5916 H   0  0  0  0  0  0  0  0  0  0  0  0
   -3.0097   -2.8267    1.2247 C   0  0  0  0  0  0  0  0  0  0  0  0
   -3.5355   -2.2190    1.9652 H   0  0  0  0  0  0  0  0  0  0  0  0
   -3.5738   -2.8185    0.2890 H   0  0  0  0  0  0  0  0  0  0  0  0
   -1.6169   -2.2716    0.9937 C   0  0  0  0  0  0  0  0  0  0  0  0
   -0.6393   -2.9759    1.1928 O   0  0  0  0  0  0  0  0  0  0  0  0
   -1.4625   -0.9675    0.5705 N   0  0  0  0  0  0  0  0  0  0  0  0
   -2.2991   -0.3874    0.5289 H   0  0  0  0  0  0  0  0  0  0  0  0
   -0.1724   -0.2719    0.4162 C   0  0  1  0  0  0  0  0  0  0  0  0
    0.5415   -0.7940    1.0615 H   0  0  0  0  0  0  0  0  0  0  0  0
    0.4388   -0.3614   -1.0289 C   0  0  1  0  0  0  0  0  0  0  0  0
    1.4417   -0.7788   -0.8878 H   0  0  0  0  0  0  0  0  0  0  0  0
   -0.2981   -1.3476   -1.9569 C   0  0  0  0  0  0  0  0  0  0  0  0
   -1.3441   -1.0578   -2.0953 H   0  0  0  0  0  0  0  0  0  0  0  0
    0.1838   -1.3773   -2.9389 H   0  0  0  0  0  0  0  0  0  0  0  0
   -0.2683   -2.3587   -1.5397 H   0  0  0  0  0  0  0  0  0  0  0  0
    0.6676    0.9857   -1.7625 C   0  0  0  0  0  0  0  0  0  0  0  0
    1.1825    1.6861   -1.0985 H   0  0  0  0  0  0  0  0  0  0  0  0
    1.3395    0.8112   -2.6093 H   0  0  0  0  0  0  0  0  0  0  0  0
   -0.6077    1.6483   -2.3026 C   0  0  0  0  0  0  0  0  0  0  0  0
   -1.3788    1.7288   -1.5346 H   0  0  0  0  0  0  0  0  0  0  0  0
   -0.3769    2.6546   -2.6650 H   0  0  0  0  0  0  0  0  0  0  0  0
   -1.0159    1.0726   -3.1385 H   0  0  0  0  0  0  0  0  0  0  0  0
   -0.2629    1.1454    1.0265 C   0  0  0  0  0  0  0  0  0  0  0  0
   -1.3165    1.7719    0.9871 O   0  0  0  0  0  0  0  0  0  0  0  0
    0.7582    1.6205    1.8297 N   0  0  0  0  0  0  0  0  0  0  0  0
    1.5805    1.0344    1.9408 H   0  0  0  0  0  0  0  0  0  0  0  0
    0.6730    2.8665    2.5819 C   0  0  0  0  0  0  0  0  0  0  0  0
   -0.1517    2.8247    3.3012 H   0  0  0  0  0  0  0  0  0  0  0  0
    1.6026    3.0410    3.1318 H   0  0  0  0  0  0  0  0  0  0  0  0
    0.5080    3.7115    1.9052 H   0  0  0  0  0  0  0  0  0  0  0  0
  1  2  1  0  0  0  0
  2  3  1  0  0  0  0
  2  4  1  0  0  0  0
  2  5  1  0  0  0  0
  5  6  2  0  0  0  0
  5  7  1  0  0  0  0
  7  8  1  0  0  0  0
  7  9  1  0  0  0  0
  9 10  1  0  0  0  0
  9 11  1  0  0  0  0
  9 24  1  0  0  0  0
 11 12  1  0  0  0  0
 11 13  1  0  0  0  0
 11 17  1  0  0  0  0
 13 14  1  0  0  0  0
 13 15  1  0  0  0  0
 13 16  1  0  0  0  0
 17 18  1  0  0  0  0
 17 19  1  0  0  0  0
 17 20  1  0  0  0  0
 20 21  1  0  0  0  0
 20 22  1  0  0  0  0
 20 23  1  0  0  0  0
 24 25  2  0  0  0  0
 24 26  1  0  0  0  0
 26 27  1  0  0  0  0
 26 28  1  0  0  0  0
 28 29  1  0  0  0  0
 28 30  1  0  0  0  0
 28 31  1  0  0  0  0
M  END
$$$$

  -OEChem-03222214053D

 31 30  0     1  0  0  0  0  0999 V2000
   -2.9239   -3.8775    1.5972 H   0  0  0  0  0  0  0  0  0  0  0  0
   -2.9961   -2.8376    1.2666 C   0  0  0  0  0  0  0  0  0  0  0  0
   -3.4996   -2.2554    2.0421 H   0  0  0  0  0  0  0  0  0  0  0  0
   -3.5886   -2.7996    0.3494 H   0  0  0  0  0  0  0  0  0  0  0  0
   -1.6118   -2.2724    1.0111 C   0  0  0  0  0  0  0  0  0  0  0  0
   -0.6260   -2.9732    1.1809 O   0  0  0  0  0  0  0  0  0  0  0  0
   -1.4760   -0.9628    0.5991 N   0  0  0  0  0  0  0  0  0  0  0  0
   -2.3169   -0.3872    0.5926 H   0  0  0  0  0  0  0  0  0  0  0  0
   -0.1967   -0.2522    0.4223 C   0  0  1  0  0  0  0  0  0  0  0  0
    0.5211   -0.7719    1.0654 H   0  0  0  0  0  0  0  0  0  0  0  0
    0.4285   -0.3489   -1.0160 C   0  0  1  0  0  0  0  0  0  0  0  0
    1.4314   -0.7645   -0.8686 H   0  0  0  0  0  0  0  0  0  0  0  0
   -0.3094   -1.3493   -1.9298 C   0  0  0  0  0  0  0  0  0  0  0  0
   -1.3551   -1.0616   -2.0715 H   0  0  0  0  0  0  0  0  0  0  0  0
    0.1689   -1.3977   -2.9127 H   0  0  0  0  0  0  0  0  0  0  0  0
   -0.2790   -2.3542   -1.4988 H   0  0  0  0  0  0  0  0  0  0  0  0
    0.6558    0.9705   -1.8036 C   0  0  0  0  0  0  0  0  0  0  0  0
    1.3720    1.5914   -1.2558 H   0  0  0  0  0  0  0  0  0  0  0  0
    1.1268    0.7187   -2.7597 H   0  0  0  0  0  0  0  0  0  0  0  0
   -0.5869    1.8230   -2.1013 C   0  0  0  0  0  0  0  0  0  0  0  0
   -0.3481    2.5483   -2.8848 H   0  0  0  0  0  0  0  0  0  0  0  0
   -0.9163    2.3884   -1.2308 H   0  0  0  0  0  0  0  0  0  0  0  0
   -1.4160    1.2038   -2.4533 H   0  0  0  0  0  0  0  0  0  0  0  0
   -0.2760    1.1577    1.0465 C   0  0  0  0  0  0  0  0  0  0  0  0
   -1.3533    1.7426    1.1049 O   0  0  0  0  0  0  0  0  0  0  0  0
    0.7661    1.6282    1.8253 N   0  0  0  0  0  0  0  0  0  0  0  0
    1.6104    1.0651    1.8714 H   0  0  0  0  0  0  0  0  0  0  0  0
    0.6852    2.8444    2.6255 C   0  0  0  0  0  0  0  0  0  0  0  0
   -0.0750    2.7391    3.4067 H   0  0  0  0  0  0  0  0  0  0  0  0
    1.6481    3.0472    3.1040 H   0  0  0  0  0  0  0  0  0  0  0  0
    0.4266    3.7014    1.9946 H   0  0  0  0  0  0  0  0  0  0  0  0
  1  2  1  0  0  0  0
  2  3  1  0  0  0  0
  2  4  1  0  0  0  0
  2  5  1  0  0  0  0
  5  6  2  0  0  0  0
  5  7  1  0  0  0  0
  7  8  1  0  0  0  0
  7  9  1  0  0  0  0
  9 10  1  0  0  0  0
  9 11  1  0  0  0  0
  9 24  1  0  0  0  0
 11 12  1  0  0  0  0
 11 13  1  0  0  0  0
 11 17  1  0  0  0  0
 13 14  1  0  0  0  0
 13 15  1  0  0  0  0
 13 16  1  0  0  0  0
 17 18  1  0  0  0  0
 17 19  1  0  0  0  0
 17 20  1  0  0  0  0
 20 21  1  0  0  0  0
 20 22  1  0  0  0  0
 20 23  1  0  0  0  0
 24 25  2  0  0  0  0
 24 26  1  0  0  0  0
 26 27  1  0  0  0  0
 26 28  1  0  0  0  0
 28 29  1  0  0  0  0
 28 30  1  0  0  0  0
 28 31  1  0  0  0  0
M  END
$$$$

  -OEChem-03222214053D

 31 30  0     1  0  0  0  0  0999 V2000
   -2.9943   -3.8774    1.5067 H   0  0  0  0  0  0  0  0  0  0  0  0
   -3.0497   -2.8408    1.1627 C   0  0  0  0  0  0  0  0  0  0  0  0
   -3.5890   -2.2508    1.9078 H   0  0  0  0  0  0  0  0  0  0  0  0
   -3.5981   -2.8114    0.2181 H   0  0  0  0  0  0  0  0  0  0  0  0
   -1.6540   -2.2792    0.9677 C   0  0  0  0  0  0  0  0  0  0  0  0
   -0.6783   -2.9824    1.1802 O   0  0  0  0  0  0  0  0  0  0  0  0
   -1.4957   -0.9680    0.5684 N   0  0  0  0  0  0  0  0  0  0  0  0
   -2.3337   -0.3898    0.5238 H   0  0  0  0  0  0  0  0  0  0  0  0
   -0.2069   -0.2612    0.4489 C   0  0  1  0  0  0  0  0  0  0  0  0
    0.4813   -0.7831    1.1218 H   0  0  0  0  0  0  0  0  0  0  0  0
    0.4862   -0.3566   -0.9631 C   0  0  1  0  0  0  0  0  0  0  0  0
    1.4689   -0.8060   -0.7825 H   0  0  0  0  0  0  0  0  0  0  0  0
   -0.2549   -1.3221   -1.9128 C   0  0  0  0  0  0  0  0  0  0  0  0
   -1.2660   -0.9610   -2.1257 H   0  0  0  0  0  0  0  0  0  0  0  0
    0.2806   -1.4213   -2.8620 H   0  0  0  0  0  0  0  0  0  0  0  0
   -0.3205   -2.3217   -1.4742 H   0  0  0  0  0  0  0  0  0  0  0  0
    0.7689    0.9479   -1.7658 C   0  0  0  0  0  0  0  0  0  0  0  0
    1.6392    1.4410   -1.3211 H   0  0  0  0  0  0  0  0  0  0  0  0
    1.0568    0.6787   -2.7874 H   0  0  0  0  0  0  0  0  0  0  0  0
   -0.3543    1.9886   -1.8478 C   0  0  0  0  0  0  0  0  0  0  0  0
   -0.2628    2.5540   -2.7801 H   0  0  0  0  0  0  0  0  0  0  0  0
   -0.2912    2.7079   -1.0280 H   0  0  0  0  0  0  0  0  0  0  0  0
   -1.3369    1.5073   -1.8338 H   0  0  0  0  0  0  0  0  0  0  0  0
   -0.3219    1.1420    1.0801 C   0  0  0  0  0  0  0  0  0  0  0  0
   -1.3990    1.7311    1.0711 O   0  0  0  0  0  0  0  0  0  0  0  0
    0.6792    1.6135    1.9101 N   0  0  0  0  0  0  0  0  0  0  0  0
    1.5180    1.0480    2.0030 H   0  0  0  0  0  0  0  0  0  0  0  0
    0.5579    2.8318    2.7018 C   0  0  0  0  0  0  0  0  0  0  0  0
   -0.2680    2.7444    3.4157 H   0  0  0  0  0  0  0  0  0  0  0  0
    1.4806    3.0134    3.2612 H   0  0  0  0  0  0  0  0  0  0  0  0
    0.3729    3.6934    2.0518 H   0  0  0  0  0  0  0  0  0  0  0  0
  1  2  1  0  0  0  0
  2  3  1  0  0  0  0
  2  4  1  0  0  0  0
  2  5  1  0  0  0  0
  5  6  2  0  0  0  0
  5  7  1  0  0  0  0
  7  8  1  0  0  0  0
  7  9  1  0  0  0  0
  9 10  1  0  0  0  0
  9 11  1  0  0  0  0
  9 24  1  0  0  0  0
 11 12  1  0  0  0  0
 11 13  1  0  0  0  0
 11 17  1  0  0  0  0
 13 14  1  0  0  0  0
 13 15  1  0  0  0  0
 13 16  1  0  0  0  0
 17 18  1  0  0  0  0
 17 19  1  0  0  0  0
 17 20  1  0  0  0  0
 20 21  1  0  0  0  0
 20 22  1  0  0  0  0
 20 23  1  0  0  0  0
 24 25  2  0  0  0  0
 24 26  1  0  0  0  0
 26 27  1  0  0  0  0
 26 28  1  0  0  0  0
 28 29  1  0  0  0  0
 28 30  1  0  0  0  0
 28 31  1  0  0  0  0
M  END
$$$$

  -OEChem-03222214053D

 31 30  0     1  0  0  0  0  0999 V2000
   -2.9513   -3.9164    1.5024 H   0  0  0  0  0  0  0  0  0  0  0  0
   -3.0188   -2.8714    1.1869 C   0  0  0  0  0  0  0  0  0  0  0  0
   -3.5389   -2.3023    1.9613 H   0  0  0  0  0  0  0  0  0  0  0  0
   -3.5926   -2.8196    0.2583 H   0  0  0  0  0  0  0  0  0  0  0  0
   -1.6309   -2.2994    0.9697 C   0  0  0  0  0  0  0  0  0  0  0  0
   -0.6477   -3.0040    1.1381 O   0  0  0  0  0  0  0  0  0  0  0  0
   -1.4885   -0.9764    0.6044 N   0  0  0  0  0  0  0  0  0  0  0  0
   -2.3302   -0.4017    0.5964 H   0  0  0  0  0  0  0  0  0  0  0  0
   -0.2068   -0.2607    0.4567 C   0  0  1  0  0  0  0  0  0  0  0  0
    0.5029   -0.7960    1.0959 H   0  0  0  0  0  0  0  0  0  0  0  0
    0.4487   -0.3304   -0.9805 C   0  0  1  0  0  0  0  0  0  0  0  0
    1.4341   -0.7835   -0.8266 H   0  0  0  0  0  0  0  0  0  0  0  0
   -0.3151   -1.2997   -1.9096 C   0  0  0  0  0  0  0  0  0  0  0  0
   -1.3251   -0.9280   -2.1100 H   0  0  0  0  0  0  0  0  0  0  0  0
    0.2055   -1.4170   -2.8650 H   0  0  0  0  0  0  0  0  0  0  0  0
   -0.3828   -2.2954   -1.4637 H   0  0  0  0  0  0  0  0  0  0  0  0
    0.7228    0.9655   -1.8150 C   0  0  0  0  0  0  0  0  0  0  0  0
    1.7363    1.3020   -1.5733 H   0  0  0  0  0  0  0  0  0  0  0  0
    0.7338    0.7138   -2.8804 H   0  0  0  0  0  0  0  0  0  0  0  0
   -0.1922    2.1809   -1.6440 C   0  0  0  0  0  0  0  0  0  0  0  0
    0.0922    2.7781   -0.7744 H   0  0  0  0  0  0  0  0  0  0  0  0
   -0.1056    2.8294   -2.5209 H   0  0  0  0  0  0  0  0  0  0  0  0
   -1.2373    1.8689   -1.5543 H   0  0  0  0  0  0  0  0  0  0  0  0
   -0.3125    1.1193    1.1370 C   0  0  0  0  0  0  0  0  0  0  0  0
   -1.3897    1.7076    1.1698 O   0  0  0  0  0  0  0  0  0  0  0  0
    0.7128    1.5748    1.9462 N   0  0  0  0  0  0  0  0  0  0  0  0
    1.5615    1.0181    1.9885 H   0  0  0  0  0  0  0  0  0  0  0  0
    0.6169    2.7791    2.7621 C   0  0  0  0  0  0  0  0  0  0  0  0
   -0.1785    2.6747    3.5075 H   0  0  0  0  0  0  0  0  0  0  0  0
    1.5608    2.9576    3.2860 H   0  0  0  0  0  0  0  0  0  0  0  0
    0.4003    3.6503    2.1348 H   0  0  0  0  0  0  0  0  0  0  0  0
  1  2  1  0  0  0  0
  2  3  1  0  0  0  0
  2  4  1  0  0  0  0
  2  5  1  0  0  0  0
  5  6  2  0  0  0  0
  5  7  1  0  0  0  0
  7  8  1  0  0  0  0
  7  9  1  0  0  0  0
  9 10  1  0  0  0  0
  9 11  1  0  0  0  0
  9 24  1  0  0  0  0
 11 12  1  0  0  0  0
 11 13  1  0  0  0  0
 11 17  1  0  0  0  0
 13 14  1  0  0  0  0
 13 15  1  0  0  0  0
 13 16  1  0  0  0  0
 17 18  1  0  0  0  0
 17 19  1  0  0  0  0
 17 20  1  0  0  0  0
 20 21  1  0  0  0  0
 20 22  1  0  0  0  0
 20 23  1  0  0  0  0
 24 25  2  0  0  0  0
 24 26  1  0  0  0  0
 26 27  1  0  0  0  0
 26 28  1  0  0  0  0
 28 29  1  0  0  0  0
 28 30  1  0  0  0  0
 28 31  1  0  0  0  0
M  END
$$$$

  -OEChem-03222214053D

 31 30  0     1  0  0  0  0  0999 V2000
   -2.9088   -3.9332    1.5272 H   0  0  0  0  0  0  0  0  0  0  0  0
   -2.9841   -2.8852    1.2239 C   0  0  0  0  0  0  0  0  0  0  0  0
   -3.4965   -2.3264    2.0109 H   0  0  0  0  0  0  0  0  0  0  0  0
   -3.5697   -2.8254    0.3034 H   0  0  0  0  0  0  0  0  0  0  0  0
   -1.6010   -2.3061    0.9942 C   0  0  0  0  0  0  0  0  0  0  0  0
   -0.6126   -3.0060    1.1523 O   0  0  0  0  0  0  0  0  0  0  0  0
   -1.4686   -0.9807    0.6339 N   0  0  0  0  0  0  0  0  0  0  0  0
   -2.3133   -0.4104    0.6357 H   0  0  0  0  0  0  0  0  0  0  0  0
   -0.1928   -0.2576    0.4700 C   0  0  1  0  0  0  0  0  0  0  0  0
    0.5346   -0.7907    1.0913 H   0  0  0  0  0  0  0  0  0  0  0  0
    0.4240   -0.3180   -0.9882 C   0  0  1  0  0  0  0  0  0  0  0  0
    1.4185   -0.7526   -0.8387 H   0  0  0  0  0  0  0  0  0  0  0  0
   -0.3232   -1.3243   -1.8917 C   0  0  0  0  0  0  0  0  0  0  0  0
   -1.3467   -0.9863   -2.0829 H   0  0  0  0  0  0  0  0  0  0  0  0
    0.1889   -1.4385   -2.8522 H   0  0  0  0  0  0  0  0  0  0  0  0
   -0.3543   -2.3150   -1.4315 H   0  0  0  0  0  0  0  0  0  0  0  0
    0.6898    0.9635   -1.8584 C   0  0  0  0  0  0  0  0  0  0  0  0
    1.7732    1.1222   -1.8734 H   0  0  0  0  0  0  0  0  0  0  0  0
    0.3991    0.7615   -2.8944 H   0  0  0  0  0  0  0  0  0  0  0  0
    0.0621    2.3111   -1.4998 C   0  0  0  0  0  0  0  0  0  0  0  0
    0.5288    2.7488   -0.6142 H   0  0  0  0  0  0  0  0  0  0  0  0
    0.2138    3.0141   -2.3245 H   0  0  0  0  0  0  0  0  0  0  0  0
   -1.0155    2.2057   -1.3442 H   0  0  0  0  0  0  0  0  0  0  0  0
   -0.3142    1.1134    1.1652 C   0  0  0  0  0  0  0  0  0  0  0  0
   -1.3956    1.6939    1.1996 O   0  0  0  0  0  0  0  0  0  0  0  0
    0.7118    1.5774    1.9689 N   0  0  0  0  0  0  0  0  0  0  0  0
    1.5625    1.0240    2.0119 H   0  0  0  0  0  0  0  0  0  0  0  0
    0.6030    2.7711    2.7988 C   0  0  0  0  0  0  0  0  0  0  0  0
   -0.1706    2.6372    3.5623 H   0  0  0  0  0  0  0  0  0  0  0  0
    1.5545    2.9712    3.3008 H   0  0  0  0  0  0  0  0  0  0  0  0
    0.3466    3.6422    2.1866 H   0  0  0  0  0  0  0  0  0  0  0  0
  1  2  1  0  0  0  0
  2  3  1  0  0  0  0
  2  4  1  0  0  0  0
  2  5  1  0  0  0  0
  5  6  2  0  0  0  0
  5  7  1  0  0  0  0
  7  8  1  0  0  0  0
  7  9  1  0  0  0  0
  9 10  1  0  0  0  0
  9 11  1  0  0  0  0
  9 24  1  0  0  0  0
 11 12  1  0  0  0  0
 11 13  1  0  0  0  0
 11 17  1  0  0  0  0
 13 14  1  0  0  0  0
 13 15  1  0  0  0  0
 13 16  1  0  0  0  0
 17 18  1  0  0  0  0
 17 19  1  0  0  0  0
 17 20  1  0  0  0  0
 20 21  1  0  0  0  0
 20 22  1  0  0  0  0
 20 23  1  0  0  0  0
 24 25  2  0  0  0  0
 24 26  1  0  0  0  0
 26 27  1  0  0  0  0
 26 28  1  0  0  0  0
 28 29  1  0  0  0  0
 28 30  1  0  0  0  0
 28 31  1  0  0  0  0
M  END
$$$$

  -OEChem-03222214053D

 31 30  0     1  0  0  0  0  0999 V2000
   -3.0588   -3.8022    1.6037 H   0  0  0  0  0  0  0  0  0  0  0  0
   -3.0907   -2.7670    1.2527 C   0  0  0  0  0  0  0  0  0  0  0  0
   -3.6144   -2.1590    1.9944 H   0  0  0  0  0  0  0  0  0  0  0  0
   -3.6395   -2.7311    0.3085 H   0  0  0  0  0  0  0  0  0  0  0  0
   -1.6829   -2.2392    1.0524 C   0  0  0  0  0  0  0  0  0  0  0  0
   -0.7231   -2.9628    1.2690 O   0  0  0  0  0  0  0  0  0  0  0  0
   -1.4953   -0.9328    0.6499 N   0  0  0  0  0  0  0  0  0  0  0  0
   -2.3196   -0.3352    0.6023 H   0  0  0  0  0  0  0  0  0  0  0  0
   -0.1907   -0.2598    0.5043 C   0  0  1  0  0  0  0  0  0  0  0  0
    0.5105   -0.7928    1.1552 H   0  0  0  0  0  0  0  0  0  0  0  0
    0.4282   -0.3811   -0.9499 C   0  0  1  0  0  0  0  0  0  0  0  0
    1.4109   -0.8260   -0.7582 H   0  0  0  0  0  0  0  0  0  0  0  0
   -0.3097   -1.4126   -1.8309 C   0  0  0  0  0  0  0  0  0  0  0  0
   -1.3323   -1.0831   -2.0407 H   0  0  0  0  0  0  0  0  0  0  0  0
    0.2118   -1.5473   -2.7839 H   0  0  0  0  0  0  0  0  0  0  0  0
   -0.3428   -2.3900   -1.3427 H   0  0  0  0  0  0  0  0  0  0  0  0
    0.7619    0.8493   -1.8689 C   0  0  0  0  0  0  0  0  0  0  0  0
    1.8232    0.7782   -2.1298 H   0  0  0  0  0  0  0  0  0  0  0  0
    0.2064    0.7438   -2.8070 H   0  0  0  0  0  0  0  0  0  0  0  0
    0.5107    2.2880   -1.4198 C   0  0  0  0  0  0  0  0  0  0  0  0
    1.1134    2.5401   -0.5440 H   0  0  0  0  0  0  0  0  0  0  0  0
   -0.5496    2.4514   -1.2103 H   0  0  0  0  0  0  0  0  0  0  0  0
    0.7968    2.9743   -2.2226 H   0  0  0  0  0  0  0  0  0  0  0  0
   -0.3099    1.1352    1.1517 C   0  0  0  0  0  0  0  0  0  0  0  0
   -1.3742    1.7464    1.1111 O   0  0  0  0  0  0  0  0  0  0  0  0
    0.6926    1.6041    1.9823 N   0  0  0  0  0  0  0  0  0  0  0  0
    1.5278    1.0341    2.0798 H   0  0  0  0  0  0  0  0  0  0  0  0
    0.5847    2.8370    2.7527 C   0  0  0  0  0  0  0  0  0  0  0  0
   -0.2472    2.7741    3.4620 H   0  0  0  0  0  0  0  0  0  0  0  0
    1.5065    3.0128    3.3153 H   0  0  0  0  0  0  0  0  0  0  0  0
    0.4176    3.6910    2.0877 H   0  0  0  0  0  0  0  0  0  0  0  0
  1  2  1  0  0  0  0
  2  3  1  0  0  0  0
  2  4  1  0  0  0  0
  2  5  1  0  0  0  0
  5  6  2  0  0  0  0
  5  7  1  0  0  0  0
  7  8  1  0  0  0  0
  7  9  1  0  0  0  0
  9 10  1  0  0  0  0
  9 11  1  0  0  0  0
  9 24  1  0  0  0  0
 11 12  1  0  0  0  0
 11 13  1  0  0  0  0
 11 17  1  0  0  0  0
 13 14  1  0  0  0  0
 13 15  1  0  0  0  0
 13 16  1  0  0  0  0
 17 18  1  0  0  0  0
 17 19  1  0  0  0  0
 17 20  1  0  0  0  0
 20 21  1  0  0  0  0
 20 22  1  0  0  0  0
 20 23  1  0  0  0  0
 24 25  2  0  0  0  0
 24 26  1  0  0  0  0
 26 27  1  0  0  0  0
 26 28  1  0  0  0  0
 28 29  1  0  0  0  0
 28 30  1  0  0  0  0
 28 31  1  0  0  0  0
M  END
$$$$

  -OEChem-03222214053D

 31 30  0     1  0  0  0  0  0999 V2000
   -3.0685   -3.8396    1.4431 H   0  0  0  0  0  0  0  0  0  0  0  0
   -3.0896   -2.7964    1.1162 C   0  0  0  0  0  0  0  0  0  0  0  0
   -3.6343   -2.2059    1.8569 H   0  0  0  0  0  0  0  0  0  0  0  0
   -3.6112   -2.7375    0.1580 H   0  0  0  0  0  0  0  0  0  0  0  0
   -1.6764   -2.2655    0.9677 C   0  0  0  0  0  0  0  0  0  0  0  0
   -0.7231   -2.9950    1.1929 O   0  0  0  0  0  0  0  0  0  0  0  0
   -1.4764   -0.9523    0.5953 N   0  0  0  0  0  0  0  0  0  0  0  0
   -2.2979   -0.3512    0.5358 H   0  0  0  0  0  0  0  0  0  0  0  0
   -0.1664   -0.2808    0.5025 C   0  0  1  0  0  0  0  0  0  0  0  0
    0.5286   -0.8274    1.1488 H   0  0  0  0  0  0  0  0  0  0  0  0
    0.4546   -0.3509   -0.9529 C   0  0  1  0  0  0  0  0  0  0  0  0
    1.4361   -0.8003   -0.7654 H   0  0  0  0  0  0  0  0  0  0  0  0
   -0.2722   -1.3444   -1.8839 C   0  0  0  0  0  0  0  0  0  0  0  0
   -1.2967   -1.0139   -2.0822 H   0  0  0  0  0  0  0  0  0  0  0  0
    0.2532   -1.4268   -2.8408 H   0  0  0  0  0  0  0  0  0  0  0  0
   -0.2998   -2.3439   -1.4408 H   0  0  0  0  0  0  0  0  0  0  0  0
    0.8042    0.9062   -1.8215 C   0  0  0  0  0  0  0  0  0  0  0  0
    1.7615    0.7027   -2.3133 H   0  0  0  0  0  0  0  0  0  0  0  0
    0.0551    0.9881   -2.6166 H   0  0  0  0  0  0  0  0  0  0  0  0
    0.8939    2.3057   -1.2128 C   0  0  0  0  0  0  0  0  0  0  0  0
    1.5789    2.3174   -0.3611 H   0  0  0  0  0  0  0  0  0  0  0  0
   -0.0904    2.6707   -0.9112 H   0  0  0  0  0  0  0  0  0  0  0  0
    1.2819    3.0030   -1.9614 H   0  0  0  0  0  0  0  0  0  0  0  0
   -0.3238    1.0980    1.1761 C   0  0  0  0  0  0  0  0  0  0  0  0
   -1.3832    1.7127    1.0853 O   0  0  0  0  0  0  0  0  0  0  0  0
    0.6407    1.5596    2.0541 N   0  0  0  0  0  0  0  0  0  0  0  0
    1.4725    0.9904    2.1811 H   0  0  0  0  0  0  0  0  0  0  0  0
    0.4968    2.7843    2.8314 C   0  0  0  0  0  0  0  0  0  0  0  0
   -0.3668    2.7141    3.5011 H   0  0  0  0  0  0  0  0  0  0  0  0
    1.3915    2.9547    3.4377 H   0  0  0  0  0  0  0  0  0  0  0  0
    0.3600    3.6449    2.1681 H   0  0  0  0  0  0  0  0  0  0  0  0
  1  2  1  0  0  0  0
  2  3  1  0  0  0  0
  2  4  1  0  0  0  0
  2  5  1  0  0  0  0
  5  6  2  0  0  0  0
  5  7  1  0  0  0  0
  7  8  1  0  0  0  0
  7  9  1  0  0  0  0
  9 10  1  0  0  0  0
  9 11  1  0  0  0  0
  9 24  1  0  0  0  0
 11 12  1  0  0  0  0
 11 13  1  0  0  0  0
 11 17  1  0  0  0  0
 13 14  1  0  0  0  0
 13 15  1  0  0  0  0
 13 16  1  0  0  0  0
 17 18  1  0  0  0  0
 17 19  1  0  0  0  0
 17 20  1  0  0  0  0
 20 21  1  0  0  0  0
 20 22  1  0  0  0  0
 20 23  1  0  0  0  0
 24 25  2  0  0  0  0
 24 26  1  0  0  0  0
 26 27  1  0  0  0  0
 26 28  1  0  0  0  0
 28 29  1  0  0  0  0
 28 30  1  0  0  0  0
 28 31  1  0  0  0  0
M  END
$$$$

  -OEChem-03222214053D

 31 30  0     1  0  0  0  0  0999 V2000
   -2.9450   -3.8998    1.5053 H   0  0  0  0  0  0  0  0  0  0  0  0
   -2.9911   -2.8580    1.1766 C   0  0  0  0  0  0  0  0  0  0  0  0
   -3.5219   -2.2737    1.9320 H   0  0  0  0  0  0  0  0  0  0  0  0
   -3.5423   -2.8094    0.2345 H   0  0  0  0  0  0  0  0  0  0  0  0
   -1.5907   -2.3071    0.9852 C   0  0  0  0  0  0  0  0  0  0  0  0
   -0.6202   -3.0228    1.1791 O   0  0  0  0  0  0  0  0  0  0  0  0
   -1.4198   -0.9911    0.6087 N   0  0  0  0  0  0  0  0  0  0  0  0
   -2.2506   -0.4017    0.5675 H   0  0  0  0  0  0  0  0  0  0  0  0
   -0.1206   -0.3040    0.4856 C   0  0  1  0  0  0  0  0  0  0  0  0
    0.6099   -0.8429    1.0979 H   0  0  0  0  0  0  0  0  0  0  0  0
    0.4313   -0.3312   -0.9967 C   0  0  1  0  0  0  0  0  0  0  0  0
    1.4210   -0.7859   -0.8781 H   0  0  0  0  0  0  0  0  0  0  0  0
   -0.3485   -1.2794   -1.9315 C   0  0  0  0  0  0  0  0  0  0  0  0
   -1.3776   -0.9324   -2.0681 H   0  0  0  0  0  0  0  0  0  0  0  0
    0.1299   -1.3271   -2.9149 H   0  0  0  0  0  0  0  0  0  0  0  0
   -0.3660   -2.2953   -1.5262 H   0  0  0  0  0  0  0  0  0  0  0  0
    0.7234    0.9619   -1.8236 C   0  0  0  0  0  0  0  0  0  0  0  0
    1.5004    0.7095   -2.5530 H   0  0  0  0  0  0  0  0  0  0  0  0
   -0.1780    1.2151   -2.3921 H   0  0  0  0  0  0  0  0  0  0  0  0
    1.1581    2.2519   -1.1232 C   0  0  0  0  0  0  0  0  0  0  0  0
    1.9210    2.0439   -0.3677 H   0  0  0  0  0  0  0  0  0  0  0  0
    1.5902    2.9369   -1.8592 H   0  0  0  0  0  0  0  0  0  0  0  0
    0.3103    2.7673   -0.6664 H   0  0  0  0  0  0  0  0  0  0  0  0
   -0.2941    1.0686    1.1665 C   0  0  0  0  0  0  0  0  0  0  0  0
   -1.3516    1.6833    1.0572 O   0  0  0  0  0  0  0  0  0  0  0  0
    0.6747    1.5507    2.0287 N   0  0  0  0  0  0  0  0  0  0  0  0
    1.5134    0.9917    2.1552 H   0  0  0  0  0  0  0  0  0  0  0  0
    0.5301    2.7897    2.7826 C   0  0  0  0  0  0  0  0  0  0  0  0
   -0.3357    2.7328    3.4507 H   0  0  0  0  0  0  0  0  0  0  0  0
    1.4230    2.9702    3.3887 H   0  0  0  0  0  0  0  0  0  0  0  0
    0.3961    3.6381    2.1032 H   0  0  0  0  0  0  0  0  0  0  0  0
  1  2  1  0  0  0  0
  2  3  1  0  0  0  0
  2  4  1  0  0  0  0
  2  5  1  0  0  0  0
  5  6  2  0  0  0  0
  5  7  1  0  0  0  0
  7  8  1  0  0  0  0
  7  9  1  0  0  0  0
  9 10  1  0  0  0  0
  9 11  1  0  0  0  0
  9 24  1  0  0  0  0
 11 12  1  0  0  0  0
 11 13  1  0  0  0  0
 11 17  1  0  0  0  0
 13 14  1  0  0  0  0
 13 15  1  0  0  0  0
 13 16  1  0  0  0  0
 17 18  1  0  0  0  0
 17 19  1  0  0  0  0
 17 20  1  0  0  0  0
 20 21  1  0  0  0  0
 20 22  1  0  0  0  0
 20 23  1  0  0  0  0
 24 25  2  0  0  0  0
 24 26  1  0  0  0  0
 26 27  1  0  0  0  0
 26 28  1  0  0  0  0
 28 29  1  0  0  0  0
 28 30  1  0  0  0  0
 28 31  1  0  0  0  0
M  END
$$$$

  -OEChem-03222214053D

 31 30  0     1  0  0  0  0  0999 V2000
   -2.9519   -3.8814    1.5310 H   0  0  0  0  0  0  0  0  0  0  0  0
   -2.9895   -2.8479    1.1753 C   0  0  0  0  0  0  0  0  0  0  0  0
   -3.5351   -2.2441    1.9044 H   0  0  0  0  0  0  0  0  0  0  0  0
   -3.5205   -2.8222    0.2206 H   0  0  0  0  0  0  0  0  0  0  0  0
   -1.5847   -2.3030    1.0005 C   0  0  0  0  0  0  0  0  0  0  0  0
   -0.6196   -3.0155    1.2291 O   0  0  0  0  0  0  0  0  0  0  0  0
   -1.4034   -0.9976    0.5941 N   0  0  0  0  0  0  0  0  0  0  0  0
   -2.2319   -0.4088    0.5155 H   0  0  0  0  0  0  0  0  0  0  0  0
   -0.0992   -0.3192    0.4773 C   0  0  1  0  0  0  0  0  0  0  0  0
    0.6284   -0.8475    1.1022 H   0  0  0  0  0  0  0  0  0  0  0  0
    0.4544   -0.3573   -1.0020 C   0  0  1  0  0  0  0  0  0  0  0  0
    1.4336   -0.8384   -0.9049 H   0  0  0  0  0  0  0  0  0  0  0  0
   -0.3666   -1.2573   -1.9493 C   0  0  0  0  0  0  0  0  0  0  0  0
   -1.3801   -0.8644   -2.0777 H   0  0  0  0  0  0  0  0  0  0  0  0
    0.1062   -1.3112   -2.9348 H   0  0  0  0  0  0  0  0  0  0  0  0
   -0.4267   -2.2774   -1.5593 H   0  0  0  0  0  0  0  0  0  0  0  0
    0.7403    0.9566   -1.7876 C   0  0  0  0  0  0  0  0  0  0  0  0
    1.3283    0.6887   -2.6719 H   0  0  0  0  0  0  0  0  0  0  0  0
   -0.2102    1.3678   -2.1438 H   0  0  0  0  0  0  0  0  0  0  0  0
    1.4888    2.0867   -1.0733 C   0  0  0  0  0  0  0  0  0  0  0  0
    2.2517    1.6824   -0.4013 H   0  0  0  0  0  0  0  0  0  0  0  0
    1.9868    2.7191   -1.8145 H   0  0  0  0  0  0  0  0  0  0  0  0
    0.8057    2.7292   -0.5131 H   0  0  0  0  0  0  0  0  0  0  0  0
   -0.2813    1.0708    1.1207 C   0  0  0  0  0  0  0  0  0  0  0  0
   -1.3165    1.7052    0.9396 O   0  0  0  0  0  0  0  0  0  0  0  0
    0.6718    1.5720    1.9899 N   0  0  0  0  0  0  0  0  0  0  0  0
    1.4932    1.0014    2.1676 H   0  0  0  0  0  0  0  0  0  0  0  0
    0.5248    2.8391    2.6953 C   0  0  0  0  0  0  0  0  0  0  0  0
   -0.3613    2.8189    3.3386 H   0  0  0  0  0  0  0  0  0  0  0  0
    1.4022    3.0274    3.3214 H   0  0  0  0  0  0  0  0  0  0  0  0
    0.4247    3.6652    1.9834 H   0  0  0  0  0  0  0  0  0  0  0  0
  1  2  1  0  0  0  0
  2  3  1  0  0  0  0
  2  4  1  0  0  0  0
  2  5  1  0  0  0  0
  5  6  2  0  0  0  0
  5  7  1  0  0  0  0
  7  8  1  0  0  0  0
  7  9  1  0  0  0  0
  9 10  1  0  0  0  0
  9 11  1  0  0  0  0
  9 24  1  0  0  0  0
 11 12  1  0  0  0  0
 11 13  1  0  0  0  0
 11 17  1  0  0  0  0
 13 14  1  0  0  0  0
 13 15  1  0  0  0  0
 13 16  1  0  0  0  0
 17 18  1  0  0  0  0
 17 19  1  0  0  0  0
 17 20  1  0  0  0  0
 20 21  1  0  0  0  0
 20 22  1  0  0  0  0
 20 23  1  0  0  0  0
 24 25  2  0  0  0  0
 24 26  1  0  0  0  0
 26 27  1  0  0  0  0
 26 28  1  0  0  0  0
 28 29  1  0  0  0  0
 28 30  1  0  0  0  0
 28 31  1  0  0  0  0
M  END
$$$$

  -OEChem-03222214053D

 31 30  0     1  0  0  0  0  0999 V2000
   -2.9467   -3.8712    1.5574 H   0  0  0  0  0  0  0  0  0  0  0  0
   -2.9837   -2.8494    1.1695 C   0  0  0  0  0  0  0  0  0  0  0  0
   -3.5429   -2.2262    1.8717 H   0  0  0  0  0  0  0  0  0  0  0  0
   -3.5007   -2.8557    0.2068 H   0  0  0  0  0  0  0  0  0  0  0  0
   -1.5786   -2.3039    0.9981 C   0  0  0  0  0  0  0  0  0  0  0  0
   -0.6135   -3.0111    1.2423 O   0  0  0  0  0  0  0  0  0  0  0  0
   -1.3975   -1.0039    0.5750 N   0  0  0  0  0  0  0  0  0  0  0  0
   -2.2269   -0.4197    0.4772 H   0  0  0  0  0  0  0  0  0  0  0  0
   -0.0944   -0.3241    0.4591 C   0  0  1  0  0  0  0  0  0  0  0  0
    0.6310   -0.8453    1.0923 H   0  0  0  0  0  0  0  0  0  0  0  0
    0.4683   -0.3703   -1.0140 C   0  0  1  0  0  0  0  0  0  0  0  0
    1.4430   -0.8635   -0.9333 H   0  0  0  0  0  0  0  0  0  0  0  0
   -0.3719   -1.2439   -1.9698 C   0  0  0  0  0  0  0  0  0  0  0  0
   -1.3749   -0.8248   -2.0990 H   0  0  0  0  0  0  0  0  0  0  0  0
    0.1025   -1.3054   -2.9541 H   0  0  0  0  0  0  0  0  0  0  0  0
   -0.4584   -2.2648   -1.5862 H   0  0  0  0  0  0  0  0  0  0  0  0
    0.7339    0.9711   -1.7516 C   0  0  0  0  0  0  0  0  0  0  0  0
    1.1160    0.7369   -2.7509 H   0  0  0  0  0  0  0  0  0  0  0  0
   -0.2115    1.5083   -1.8847 H   0  0  0  0  0  0  0  0  0  0  0  0
    1.7509    1.9144   -1.0976 C   0  0  0  0  0  0  0  0  0  0  0  0
    2.5273    1.3489   -0.5736 H   0  0  0  0  0  0  0  0  0  0  0  0
    2.2316    2.5251   -1.8679 H   0  0  0  0  0  0  0  0  0  0  0  0
    1.2680    2.6012   -0.4001 H   0  0  0  0  0  0  0  0  0  0  0  0
   -0.2703    1.0782    1.0787 C   0  0  0  0  0  0  0  0  0  0  0  0
   -1.2961    1.7204    0.8757 O   0  0  0  0  0  0  0  0  0  0  0  0
    0.6832    1.5857    1.9438 N   0  0  0  0  0  0  0  0  0  0  0  0
    1.5003    1.0121    2.1319 H   0  0  0  0  0  0  0  0  0  0  0  0
    0.5496    2.8695    2.6212 C   0  0  0  0  0  0  0  0  0  0  0  0
   -0.3412    2.8765    3.2581 H   0  0  0  0  0  0  0  0  0  0  0  0
    1.4252    3.0579    3.2498 H   0  0  0  0  0  0  0  0  0  0  0  0
    0.4673    3.6817    1.8913 H   0  0  0  0  0  0  0  0  0  0  0  0
  1  2  1  0  0  0  0
  2  3  1  0  0  0  0
  2  4  1  0  0  0  0
  2  5  1  0  0  0  0
  5  6  2  0  0  0  0
  5  7  1  0  0  0  0
  7  8  1  0  0  0  0
  7  9  1  0  0  0  0
  9 10  1  0  0  0  0
  9 11  1  0  0  0  0
  9 24  1  0  0  0  0
 11 12  1  0  0  0  0
 11 13  1  0  0  0  0
 11 17  1  0  0  0  0
 13 14  1  0  0  0  0
 13 15  1  0  0  0  0
 13 16  1  0  0  0  0
 17 18  1  0  0  0  0
 17 19  1  0  0  0  0
 17 20  1  0  0  0  0
 20 21  1  0  0  0  0
 20 22  1  0  0  0  0
 20 23  1  0  0  0  0
 24 25  2  0  0  0  0
 24 26  1  0  0  0  0
 26 27  1  0  0  0  0
 26 28  1  0  0  0  0
 28 29  1  0  0  0  0
 28 30  1  0  0  0  0
 28 31  1  0  0  0  0
M  END
$$$$

  -OEChem-03222214053D

 31 30  0     1  0  0  0  0  0999 V2000
   -2.9462   -3.8545    1.5733 H   0  0  0  0  0  0  0  0  0  0  0  0
   -2.9813   -2.8366    1.1751 C   0  0  0  0  0  0  0  0  0  0  0  0
   -3.5401   -2.2054    1.8704 H   0  0  0  0  0  0  0  0  0  0  0  0
   -3.4971   -2.8520    0.2120 H   0  0  0  0  0  0  0  0  0  0  0  0
   -1.5753   -2.2954    0.9996 C   0  0  0  0  0  0  0  0  0  0  0  0
   -0.6120   -3.0021    1.2520 O   0  0  0  0  0  0  0  0  0  0  0  0
   -1.3903   -1.0004    0.5630 N   0  0  0  0  0  0  0  0  0  0  0  0
   -2.2178   -0.4144    0.4588 H   0  0  0  0  0  0  0  0  0  0  0  0
   -0.0848   -0.3245    0.4496 C   0  0  1  0  0  0  0  0  0  0  0  0
    0.6379   -0.8393    1.0910 H   0  0  0  0  0  0  0  0  0  0  0  0
    0.4810   -0.3825   -1.0232 C   0  0  1  0  0  0  0  0  0  0  0  0
    1.4497   -0.8884   -0.9513 H   0  0  0  0  0  0  0  0  0  0  0  0
   -0.3732   -1.2444   -1.9781 C   0  0  0  0  0  0  0  0  0  0  0  0
   -1.3665   -0.8052   -2.1147 H   0  0  0  0  0  0  0  0  0  0  0  0
    0.1052   -1.3229   -2.9591 H   0  0  0  0  0  0  0  0  0  0  0  0
   -0.4824   -2.2614   -1.5897 H   0  0  0  0  0  0  0  0  0  0  0  0
    0.7405    0.9715   -1.7380 C   0  0  0  0  0  0  0  0  0  0  0  0
    0.8780    0.7908   -2.8091 H   0  0  0  0  0  0  0  0  0  0  0  0
   -0.1349    1.6214   -1.6379 H   0  0  0  0  0  0  0  0  0  0  0  0
    1.9933    1.7113   -1.2539 C   0  0  0  0  0  0  0  0  0  0  0  0
    2.8691    1.0587   -1.3219 H   0  0  0  0  0  0  0  0  0  0  0  0
    2.1681    2.5869   -1.8865 H   0  0  0  0  0  0  0  0  0  0  0  0
    1.8991    2.0599   -0.2277 H   0  0  0  0  0  0  0  0  0  0  0  0
   -0.2661    1.0868    1.0534 C   0  0  0  0  0  0  0  0  0  0  0  0
   -1.2926    1.7238    0.8370 O   0  0  0  0  0  0  0  0  0  0  0  0
    0.6757    1.6090    1.9219 N   0  0  0  0  0  0  0  0  0  0  0  0
    1.4950    1.0431    2.1235 H   0  0  0  0  0  0  0  0  0  0  0  0
    0.5363    2.9072    2.5699 C   0  0  0  0  0  0  0  0  0  0  0  0
   -0.3878    2.9469    3.1562 H   0  0  0  0  0  0  0  0  0  0  0  0
    1.3796    3.0858    3.2437 H   0  0  0  0  0  0  0  0  0  0  0  0
    0.5143    3.7072    1.8227 H   0  0  0  0  0  0  0  0  0  0  0  0
  1  2  1  0  0  0  0
  2  3  1  0  0  0  0
  2  4  1  0  0  0  0
  2  5  1  0  0  0  0
  5  6  2  0  0  0  0
  5  7  1  0  0  0  0
  7  8  1  0  0  0  0
  7  9  1  0  0  0  0
  9 10  1  0  0  0  0
  9 11  1  0  0  0  0
  9 24  1  0  0  0  0
 11 12  1  0  0  0  0
 11 13  1  0  0  0  0
 11 17  1  0  0  0  0
 13 14  1  0  0  0  0
 13 15  1  0  0  0  0
 13 16  1  0  0  0  0
 17 18  1  0  0  0  0
 17 19  1  0  0  0  0
 17 20  1  0  0  0  0
 20 21  1  0  0  0  0
 20 22  1  0  0  0  0
 20 23  1  0  0  0  0
 24 25  2  0  0  0  0
 24 26  1  0  0  0  0
 26 27  1  0  0  0  0
 26 28  1  0  0  0  0
 28 29  1  0  0  0  0
 28 30  1  0  0  0  0
 28 31  1  0  0  0  0
M  END
$$$$

  -OEChem-03222214053D

 31 30  0     1  0  0  0  0  0999 V2000
   -2.9343   -3.8751    1.5659 H   0  0  0  0  0  0  0  0  0  0  0  0
   -2.9850   -2.8524    1.1816 C   0  0  0  0  0  0  0  0  0  0  0  0
   -3.5399   -2.2359    1.8930 H   0  0  0  0  0  0  0  0  0  0  0  0
   -3.5146   -2.8606    0.2259 H   0  0  0  0  0  0  0  0  0  0  0  0
   -1.5872   -2.2946    0.9923 C   0  0  0  0  0  0  0  0  0  0  0  0
   -0.6139   -2.9920    1.2321 O   0  0  0  0  0  0  0  0  0  0  0  0
   -1.4217   -0.9979    0.5522 N   0  0  0  0  0  0  0  0  0  0  0  0
   -2.2571   -0.4213    0.4617 H   0  0  0  0  0  0  0  0  0  0  0  0
   -0.1258   -0.3076    0.4218 C   0  0  1  0  0  0  0  0  0  0  0  0
    0.5900   -0.8179    1.0743 H   0  0  0  0  0  0  0  0  0  0  0  0
    0.4838   -0.3802   -1.0290 C   0  0  1  0  0  0  0  0  0  0  0  0
    1.4560   -0.8761   -0.9344 H   0  0  0  0  0  0  0  0  0  0  0  0
   -0.3456   -1.2593   -1.9883 C   0  0  0  0  0  0  0  0  0  0  0  0
   -1.3420   -0.8329   -2.1425 H   0  0  0  0  0  0  0  0  0  0  0  0
    0.1494   -1.3392   -2.9611 H   0  0  0  0  0  0  0  0  0  0  0  0
   -0.4493   -2.2738   -1.5923 H   0  0  0  0  0  0  0  0  0  0  0  0
    0.7194    0.9881   -1.7272 C   0  0  0  0  0  0  0  0  0  0  0  0
    0.6557    0.8635   -2.8130 H   0  0  0  0  0  0  0  0  0  0  0  0
   -0.0528    1.7156   -1.4639 H   0  0  0  0  0  0  0  0  0  0  0  0
    2.1147    1.5453   -1.4321 C   0  0  0  0  0  0  0  0  0  0  0  0
    2.8857    0.8562   -1.7908 H   0  0  0  0  0  0  0  0  0  0  0  0
    2.2474    2.5059   -1.9391 H   0  0  0  0  0  0  0  0  0  0  0  0
    2.2574    1.6997   -0.3601 H   0  0  0  0  0  0  0  0  0  0  0  0
   -0.2689    1.1122    1.0160 C   0  0  0  0  0  0  0  0  0  0  0  0
   -1.3078    1.7452    0.8548 O   0  0  0  0  0  0  0  0  0  0  0  0
    0.7044    1.6249    1.8541 N   0  0  0  0  0  0  0  0  0  0  0  0
    1.5314    1.0578    2.0174 H   0  0  0  0  0  0  0  0  0  0  0  0
    0.5954    2.9218    2.5105 C   0  0  0  0  0  0  0  0  0  0  0  0
   -0.2964    2.9569    3.1451 H   0  0  0  0  0  0  0  0  0  0  0  0
    1.4731    3.1027    3.1384 H   0  0  0  0  0  0  0  0  0  0  0  0
    0.5306    3.7229    1.7668 H   0  0  0  0  0  0  0  0  0  0  0  0
  1  2  1  0  0  0  0
  2  3  1  0  0  0  0
  2  4  1  0  0  0  0
  2  5  1  0  0  0  0
  5  6  2  0  0  0  0
  5  7  1  0  0  0  0
  7  8  1  0  0  0  0
  7  9  1  0  0  0  0
  9 10  1  0  0  0  0
  9 11  1  0  0  0  0
  9 24  1  0  0  0  0
 11 12  1  0  0  0  0
 11 13  1  0  0  0  0
 11 17  1  0  0  0  0
 13 14  1  0  0  0  0
 13 15  1  0  0  0  0
 13 16  1  0  0  0  0
 17 18  1  0  0  0  0
 17 19  1  0  0  0  0
 17 20  1  0  0  0  0
 20 21  1  0  0  0  0
 20 22  1  0  0  0  0
 20 23  1  0  0  0  0
 24 25  2  0  0  0  0
 24 26  1  0  0  0  0
 26 27  1  0  0  0  0
 26 28  1  0  0  0  0
 28 29  1  0  0  0  0
 28 30  1  0  0  0  0
 28 31  1  0  0  0  0
M  END
$$$$

  -OEChem-03222214053D

 31 30  0     1  0  0  0  0  0999 V2000
   -2.9306   -3.8846    1.5438 H   0  0  0  0  0  0  0  0  0  0  0  0
   -2.9881   -2.8570    1.1739 C   0  0  0  0  0  0  0  0  0  0  0  0
   -3.5399   -2.2525    1.8978 H   0  0  0  0  0  0  0  0  0  0  0  0
   -3.5253   -2.8545    0.2224 H   0  0  0  0  0  0  0  0  0  0  0  0
   -1.5939   -2.2911    0.9813 C   0  0  0  0  0  0  0  0  0  0  0  0
   -0.6162   -2.9863    1.2097 O   0  0  0  0  0  0  0  0  0  0  0  0
   -1.4378   -0.9887    0.5539 N   0  0  0  0  0  0  0  0  0  0  0  0
   -2.2777   -0.4175    0.4719 H   0  0  0  0  0  0  0  0  0  0  0  0
   -0.1480   -0.2883    0.4162 C   0  0  1  0  0  0  0  0  0  0  0  0
    0.5676   -0.8015    1.0668 H   0  0  0  0  0  0  0  0  0  0  0  0
    0.4732   -0.3615   -1.0288 C   0  0  1  0  0  0  0  0  0  0  0  0
    1.4498   -0.8440   -0.9120 H   0  0  0  0  0  0  0  0  0  0  0  0
   -0.3253   -1.2732   -1.9828 C   0  0  0  0  0  0  0  0  0  0  0  0
   -1.3304   -0.8735   -2.1518 H   0  0  0  0  0  0  0  0  0  0  0  0
    0.1824   -1.3524   -2.9493 H   0  0  0  0  0  0  0  0  0  0  0  0
   -0.4082   -2.2845   -1.5740 H   0  0  0  0  0  0  0  0  0  0  0  0
    0.7038    1.0032   -1.7464 C   0  0  0  0  0  0  0  0  0  0  0  0
    0.3895    0.9289   -2.7926 H   0  0  0  0  0  0  0  0  0  0  0  0
    0.1088    1.8148   -1.3246 H   0  0  0  0  0  0  0  0  0  0  0  0
    2.1856    1.3831   -1.7504 C   0  0  0  0  0  0  0  0  0  0  0  0
    2.7784    0.6192   -2.2634 H   0  0  0  0  0  0  0  0  0  0  0  0
    2.3268    2.3363   -2.2689 H   0  0  0  0  0  0  0  0  0  0  0  0
    2.5560    1.4875   -0.7259 H   0  0  0  0  0  0  0  0  0  0  0  0
   -0.2744    1.1266    1.0224 C   0  0  0  0  0  0  0  0  0  0  0  0
   -1.3142    1.7630    0.8842 O   0  0  0  0  0  0  0  0  0  0  0  0
    0.7157    1.6277    1.8475 N   0  0  0  0  0  0  0  0  0  0  0  0
    1.5408    1.0540    1.9959 H   0  0  0  0  0  0  0  0  0  0  0  0
    0.6191    2.9159    2.5227 C   0  0  0  0  0  0  0  0  0  0  0  0
   -0.2544    2.9387    3.1827 H   0  0  0  0  0  0  0  0  0  0  0  0
    1.5132    3.0944    3.1276 H   0  0  0  0  0  0  0  0  0  0  0  0
    0.5292    3.7253    1.7906 H   0  0  0  0  0  0  0  0  0  0  0  0
  1  2  1  0  0  0  0
  2  3  1  0  0  0  0
  2  4  1  0  0  0  0
  2  5  1  0  0  0  0
  5  6  2  0  0  0  0
  5  7  1  0  0  0  0
  7  8  1  0  0  0  0
  7  9  1  0  0  0  0
  9 10  1  0  0  0  0
  9 11  1  0  0  0  0
  9 24  1  0  0  0  0
 11 12  1  0  0  0  0
 11 13  1  0  0  0  0
 11 17  1  0  0  0  0
 13 14  1  0  0  0  0
 13 15  1  0  0  0  0
 13 16  1  0  0  0  0
 17 18  1  0  0  0  0
 17 19  1  0  0  0  0
 17 20  1  0  0  0  0
 20 21  1  0  0  0  0
 20 22  1  0  0  0  0
 20 23  1  0  0  0  0
 24 25  2  0  0  0  0
 24 26  1  0  0  0  0
 26 27  1  0  0  0  0
 26 28  1  0  0  0  0
 28 29  1  0  0  0  0
 28 30  1  0  0  0  0
 28 31  1  0  0  0  0
M  END
$$$$

  -OEChem-03222214053D

 31 30  0     1  0  0  0  0  0999 V2000
   -2.9244   -3.8774    1.5299 H   0  0  0  0  0  0  0  0  0  0  0  0
   -2.9810   -2.8476    1.1664 C   0  0  0  0  0  0  0  0  0  0  0  0
   -3.5310   -2.2465    1.8944 H   0  0  0  0  0  0  0  0  0  0  0  0
   -3.5185   -2.8383    0.2152 H   0  0  0  0  0  0  0  0  0  0  0  0
   -1.5861   -2.2827    0.9774 C   0  0  0  0  0  0  0  0  0  0  0  0
   -0.6089   -2.9788    1.2050 O   0  0  0  0  0  0  0  0  0  0  0  0
   -1.4285   -0.9782    0.5575 N   0  0  0  0  0  0  0  0  0  0  0  0
   -2.2678   -0.4064    0.4725 H   0  0  0  0  0  0  0  0  0  0  0  0
   -0.1378   -0.2795    0.4236 C   0  0  1  0  0  0  0  0  0  0  0  0
    0.5830   -0.7965    1.0654 H   0  0  0  0  0  0  0  0  0  0  0  0
    0.4609   -0.3427   -1.0318 C   0  0  1  0  0  0  0  0  0  0  0  0
    1.4406   -0.8163   -0.9059 H   0  0  0  0  0  0  0  0  0  0  0  0
   -0.3221   -1.2682   -1.9844 C   0  0  0  0  0  0  0  0  0  0  0  0
   -1.3382   -0.8935   -2.1440 H   0  0  0  0  0  0  0  0  0  0  0  0
    0.1803   -1.3266   -2.9551 H   0  0  0  0  0  0  0  0  0  0  0  0
   -0.3772   -2.2833   -1.5802 H   0  0  0  0  0  0  0  0  0  0  0  0
    0.7000    1.0145   -1.7654 C   0  0  0  0  0  0  0  0  0  0  0  0
    0.1104    1.0501   -2.6876 H   0  0  0  0  0  0  0  0  0  0  0  0
    0.3880    1.8819   -1.1837 H   0  0  0  0  0  0  0  0  0  0  0  0
    2.1759    1.1939   -2.1255 C   0  0  0  0  0  0  0  0  0  0  0  0
    2.5176    0.3750   -2.7664 H   0  0  0  0  0  0  0  0  0  0  0  0
    2.3189    2.1366   -2.6623 H   0  0  0  0  0  0  0  0  0  0  0  0
    2.7909    1.2136   -1.2205 H   0  0  0  0  0  0  0  0  0  0  0  0
   -0.2756    1.1286    1.0413 C   0  0  0  0  0  0  0  0  0  0  0  0
   -1.3114    1.7680    0.8878 O   0  0  0  0  0  0  0  0  0  0  0  0
    0.7082    1.6292    1.8740 N   0  0  0  0  0  0  0  0  0  0  0  0
    1.5311    1.0544    2.0308 H   0  0  0  0  0  0  0  0  0  0  0  0
    0.6009    2.9120    2.5581 C   0  0  0  0  0  0  0  0  0  0  0  0
   -0.2756    2.9244    3.2146 H   0  0  0  0  0  0  0  0  0  0  0  0
    1.4915    3.0912    3.1680 H   0  0  0  0  0  0  0  0  0  0  0  0
    0.5090    3.7267    1.8321 H   0  0  0  0  0  0  0  0  0  0  0  0
  1  2  1  0  0  0  0
  2  3  1  0  0  0  0
  2  4  1  0  0  0  0
  2  5  1  0  0  0  0
  5  6  2  0  0  0  0
  5  7  1  0  0  0  0
  7  8  1  0  0  0  0
  7  9  1  0  0  0  0
  9 10  1  0  0  0  0
  9 11  1  0  0  0  0
  9 24  1  0  0  0  0
 11 12  1  0  0  0  0
 11 13  1  0  0  0  0
 11 17  1  0  0  0  0
 13 14  1  0  0  0  0
 13 15  1  0  0  0  0
 13 16  1  0  0  0  0
 17 18  1  0  0  0  0
 17 19  1  0  0  0  0
 17 20  1  0  0  0  0
 20 21  1  0  0  0  0
 20 22  1  0  0  0  0
 20 23  1  0  0  0  0
 24 25  2  0  0  0  0
 24 26  1  0  0  0  0
 26 27  1  0  0  0  0
 26 28  1  0  0  0  0
 28 29  1  0  0  0  0
 28 30  1  0  0  0  0
 28 31  1  0  0  0  0
M  END
$$$$

  -OEChem-03222214053D

 31 30  0     1  0  0  0  0  0999 V2000
   -2.9272   -3.8746    1.5229 H   0  0  0  0  0  0  0  0  0  0  0  0
   -2.9771   -2.8439    1.1606 C   0  0  0  0  0  0  0  0  0  0  0  0
   -3.5305   -2.2421    1.8855 H   0  0  0  0  0  0  0  0  0  0  0  0
   -3.5077   -2.8310    0.2055 H   0  0  0  0  0  0  0  0  0  0  0  0
   -1.5788   -2.2839    0.9826 C   0  0  0  0  0  0  0  0  0  0  0  0
   -0.6058   -2.9824    1.2203 O   0  0  0  0  0  0  0  0  0  0  0  0
   -1.4133   -0.9817    0.5595 N   0  0  0  0  0  0  0  0  0  0  0  0
   -2.2497   -0.4076    0.4623 H   0  0  0  0  0  0  0  0  0  0  0  0
   -0.1185   -0.2901    0.4309 C   0  0  1  0  0  0  0  0  0  0  0  0
    0.6059   -0.8089    1.0675 H   0  0  0  0  0  0  0  0  0  0  0  0
    0.4594   -0.3409   -1.0332 C   0  0  1  0  0  0  0  0  0  0  0  0
    1.4408   -0.8134   -0.9151 H   0  0  0  0  0  0  0  0  0  0  0  0
   -0.3336   -1.2506   -1.9923 C   0  0  0  0  0  0  0  0  0  0  0  0
   -1.3516   -0.8740   -2.1339 H   0  0  0  0  0  0  0  0  0  0  0  0
    0.1554   -1.2928   -2.9703 H   0  0  0  0  0  0  0  0  0  0  0  0
   -0.3839   -2.2717   -1.6025 H   0  0  0  0  0  0  0  0  0  0  0  0
    0.7022    1.0205   -1.7517 C   0  0  0  0  0  0  0  0  0  0  0  0
   -0.0973    1.2140   -2.4747 H   0  0  0  0  0  0  0  0  0  0  0  0
    0.7096    1.8651   -1.0621 H   0  0  0  0  0  0  0  0  0  0  0  0
    2.0608    1.0392   -2.4570 C   0  0  0  0  0  0  0  0  0  0  0  0
    2.1207    0.2372   -3.1993 H   0  0  0  0  0  0  0  0  0  0  0  0
    2.2031    1.9957   -2.9691 H   0  0  0  0  0  0  0  0  0  0  0  0
    2.8721    0.9103   -1.7337 H   0  0  0  0  0  0  0  0  0  0  0  0
   -0.2688    1.1176    1.0470 C   0  0  0  0  0  0  0  0  0  0  0  0
   -1.2953    1.7634    0.8615 O   0  0  0  0  0  0  0  0  0  0  0  0
    0.7035    1.6242    1.8898 N   0  0  0  0  0  0  0  0  0  0  0  0
    1.5215    1.0482    2.0671 H   0  0  0  0  0  0  0  0  0  0  0  0
    0.5912    2.9176    2.5531 C   0  0  0  0  0  0  0  0  0  0  0  0
   -0.2898    2.9397    3.2031 H   0  0  0  0  0  0  0  0  0  0  0  0
    1.4775    3.1078    3.1660 H   0  0  0  0  0  0  0  0  0  0  0  0
    0.5036    3.7203    1.8134 H   0  0  0  0  0  0  0  0  0  0  0  0
  1  2  1  0  0  0  0
  2  3  1  0  0  0  0
  2  4  1  0  0  0  0
  2  5  1  0  0  0  0
  5  6  2  0  0  0  0
  5  7  1  0  0  0  0
  7  8  1  0  0  0  0
  7  9  1  0  0  0  0
  9 10  1  0  0  0  0
  9 11  1  0  0  0  0
  9 24  1  0  0  0  0
 11 12  1  0  0  0  0
 11 13  1  0  0  0  0
 11 17  1  0  0  0  0
 13 14  1  0  0  0  0
 13 15  1  0  0  0  0
 13 16  1  0  0  0  0
 17 18  1  0  0  0  0
 17 19  1  0  0  0  0
 17 20  1  0  0  0  0
 20 21  1  0  0  0  0
 20 22  1  0  0  0  0
 20 23  1  0  0  0  0
 24 25  2  0  0  0  0
 24 26  1  0  0  0  0
 26 27  1  0  0  0  0
 26 28  1  0  0  0  0
 28 29  1  0  0  0  0
 28 30  1  0  0  0  0
 28 31  1  0  0  0  0
M  END
$$$$

  -OEChem-03222214053D

 31 30  0     1  0  0  0  0  0999 V2000
   -2.9384   -3.8621    1.5594 H   0  0  0  0  0  0  0  0  0  0  0  0
   -2.9826   -2.8393    1.1749 C   0  0  0  0  0  0  0  0  0  0  0  0
   -3.5384   -2.2205    1.8836 H   0  0  0  0  0  0  0  0  0  0  0  0
   -3.5075   -2.8450    0.2167 H   0  0  0  0  0  0  0  0  0  0  0  0
   -1.5810   -2.2881    0.9931 C   0  0  0  0  0  0  0  0  0  0  0  0
   -0.6121   -2.9885    1.2415 O   0  0  0  0  0  0  0  0  0  0  0  0
   -1.4071   -0.9919    0.5549 N   0  0  0  0  0  0  0  0  0  0  0  0
   -2.2400   -0.4141    0.4486 H   0  0  0  0  0  0  0  0  0  0  0  0
   -0.1075   -0.3092    0.4239 C   0  0  1  0  0  0  0  0  0  0  0  0
    0.6165   -0.8252    1.0631 H   0  0  0  0  0  0  0  0  0  0  0  0
    0.4695   -0.3601   -1.0405 C   0  0  1  0  0  0  0  0  0  0  0  0
    1.4520   -0.8331   -0.9365 H   0  0  0  0  0  0  0  0  0  0  0  0
   -0.3466   -1.2544   -1.9971 C   0  0  0  0  0  0  0  0  0  0  0  0
   -1.3580   -0.8583   -2.1315 H   0  0  0  0  0  0  0  0  0  0  0  0
    0.1302   -1.3123   -2.9789 H   0  0  0  0  0  0  0  0  0  0  0  0
   -0.4142   -2.2739   -1.6057 H   0  0  0  0  0  0  0  0  0  0  0  0
    0.7087    1.0158   -1.7244 C   0  0  0  0  0  0  0  0  0  0  0  0
   -0.2097    1.3577   -2.2139 H   0  0  0  0  0  0  0  0  0  0  0  0
    0.9936    1.7774   -0.9956 H   0  0  0  0  0  0  0  0  0  0  0  0
    1.8640    0.9667   -2.7303 C   0  0  0  0  0  0  0  0  0  0  0  0
    1.6421    0.2804   -3.5522 H   0  0  0  0  0  0  0  0  0  0  0  0
    2.0306    1.9622   -3.1530 H   0  0  0  0  0  0  0  0  0  0  0  0
    2.7875    0.6413   -2.2412 H   0  0  0  0  0  0  0  0  0  0  0  0
   -0.2614    1.1054    1.0247 C   0  0  0  0  0  0  0  0  0  0  0  0
   -1.2827    1.7541    0.8212 O   0  0  0  0  0  0  0  0  0  0  0  0
    0.7070    1.6176    1.8686 N   0  0  0  0  0  0  0  0  0  0  0  0
    1.5214    1.0401    2.0572 H   0  0  0  0  0  0  0  0  0  0  0  0
    0.5939    2.9156    2.5222 C   0  0  0  0  0  0  0  0  0  0  0  0
   -0.3051    2.9544    3.1465 H   0  0  0  0  0  0  0  0  0  0  0  0
    1.4647    3.0947    3.1602 H   0  0  0  0  0  0  0  0  0  0  0  0
    0.5404    3.7157    1.7765 H   0  0  0  0  0  0  0  0  0  0  0  0
  1  2  1  0  0  0  0
  2  3  1  0  0  0  0
  2  4  1  0  0  0  0
  2  5  1  0  0  0  0
  5  6  2  0  0  0  0
  5  7  1  0  0  0  0
  7  8  1  0  0  0  0
  7  9  1  0  0  0  0
  9 10  1  0  0  0  0
  9 11  1  0  0  0  0
  9 24  1  0  0  0  0
 11 12  1  0  0  0  0
 11 13  1  0  0  0  0
 11 17  1  0  0  0  0
 13 14  1  0  0  0  0
 13 15  1  0  0  0  0
 13 16  1  0  0  0  0
 17 18  1  0  0  0  0
 17 19  1  0  0  0  0
 17 20  1  0  0  0  0
 20 21  1  0  0  0  0
 20 22  1  0  0  0  0
 20 23  1  0  0  0  0
 24 25  2  0  0  0  0
 24 26  1  0  0  0  0
 26 27  1  0  0  0  0
 26 28  1  0  0  0  0
 28 29  1  0  0  0  0
 28 30  1  0  0  0  0
 28 31  1  0  0  0  0
M  END
$$$$

  -OEChem-03222214053D

 31 30  0     1  0  0  0  0  0999 V2000
   -2.9543   -3.8633    1.5611 H   0  0  0  0  0  0  0  0  0  0  0  0
   -2.9938   -2.8378    1.1837 C   0  0  0  0  0  0  0  0  0  0  0  0
   -3.5461   -2.2210    1.8968 H   0  0  0  0  0  0  0  0  0  0  0  0
   -3.5195   -2.8348    0.2258 H   0  0  0  0  0  0  0  0  0  0  0  0
   -1.5897   -2.2920    1.0046 C   0  0  0  0  0  0  0  0  0  0  0  0
   -0.6239   -2.9919    1.2664 O   0  0  0  0  0  0  0  0  0  0  0  0
   -1.4102   -1.0012    0.5527 N   0  0  0  0  0  0  0  0  0  0  0  0
   -2.2408   -0.4215    0.4393 H   0  0  0  0  0  0  0  0  0  0  0  0
   -0.1081   -0.3239    0.4160 C   0  0  1  0  0  0  0  0  0  0  0  0
    0.6128   -0.8368    1.0609 H   0  0  0  0  0  0  0  0  0  0  0  0
    0.4760   -0.3837   -1.0451 C   0  0  1  0  0  0  0  0  0  0  0  0
    1.4618   -0.8514   -0.9488 H   0  0  0  0  0  0  0  0  0  0  0  0
   -0.3448   -1.2820   -1.9954 C   0  0  0  0  0  0  0  0  0  0  0  0
   -1.3369   -0.8544   -2.1710 H   0  0  0  0  0  0  0  0  0  0  0  0
    0.1566   -1.3980   -2.9593 H   0  0  0  0  0  0  0  0  0  0  0  0
   -0.4597   -2.2849   -1.5737 H   0  0  0  0  0  0  0  0  0  0  0  0
    0.7058    1.0064   -1.6976 C   0  0  0  0  0  0  0  0  0  0  0  0
   -0.2568    1.4651   -1.9482 H   0  0  0  0  0  0  0  0  0  0  0  0
    1.2187    1.6670   -0.9928 H   0  0  0  0  0  0  0  0  0  0  0  0
    1.5943    0.9519   -2.9453 C   0  0  0  0  0  0  0  0  0  0  0  0
    1.0880    0.4438   -3.7706 H   0  0  0  0  0  0  0  0  0  0  0  0
    1.8341    1.9682   -3.2726 H   0  0  0  0  0  0  0  0  0  0  0  0
    2.5310    0.4291   -2.7288 H   0  0  0  0  0  0  0  0  0  0  0  0
   -0.2529    1.0994    1.0003 C   0  0  0  0  0  0  0  0  0  0  0  0
   -1.2727    1.7498    0.7951 O   0  0  0  0  0  0  0  0  0  0  0  0
    0.7189    1.6153    1.8382 N   0  0  0  0  0  0  0  0  0  0  0  0
    1.5247    1.0308    2.0415 H   0  0  0  0  0  0  0  0  0  0  0  0
    0.6092    2.9177    2.4838 C   0  0  0  0  0  0  0  0  0  0  0  0
   -0.2694    2.9488    3.1369 H   0  0  0  0  0  0  0  0  0  0  0  0
    1.4982    3.1157    3.0903 H   0  0  0  0  0  0  0  0  0  0  0  0
    0.5192    3.7104    1.7336 H   0  0  0  0  0  0  0  0  0  0  0  0
  1  2  1  0  0  0  0
  2  3  1  0  0  0  0
  2  4  1  0  0  0  0
  2  5  1  0  0  0  0
  5  6  2  0  0  0  0
  5  7  1  0  0  0  0
  7  8  1  0  0  0  0
  7  9  1  0  0  0  0
  9 10  1  0  0  0  0
  9 11  1  0  0  0  0
  9 24  1  0  0  0  0
 11 12  1  0  0  0  0
 11 13  1  0  0  0  0
 11 17  1  0  0  0  0
 13 14  1  0  0  0  0
 13 15  1  0  0  0  0
 13 16  1  0  0  0  0
 17 18  1  0  0  0  0
 17 19  1  0  0  0  0
 17 20  1  0  0  0  0
 20 21  1  0  0  0  0
 20 22  1  0  0  0  0
 20 23  1  0  0  0  0
 24 25  2  0  0  0  0
 24 26  1  0  0  0  0
 26 27  1  0  0  0  0
 26 28  1  0  0  0  0
 28 29  1  0  0  0  0
 28 30  1  0  0  0  0
 28 31  1  0  0  0  0
M  END
$$$$

  -OEChem-03222214053D

 31 30  0     1  0  0  0  0  0999 V2000
   -2.9547   -3.8528    1.6066 H   0  0  0  0  0  0  0  0  0  0  0  0
   -2.9931   -2.8345    1.2094 C   0  0  0  0  0  0  0  0  0  0  0  0
   -3.5349   -2.2010    1.9160 H   0  0  0  0  0  0  0  0  0  0  0  0
   -3.5289   -2.8471    0.2571 H   0  0  0  0  0  0  0  0  0  0  0  0
   -1.5882   -2.2996    1.0051 C   0  0  0  0  0  0  0  0  0  0  0  0
   -0.6233   -3.0044    1.2561 O   0  0  0  0  0  0  0  0  0  0  0  0
   -1.4065   -1.0139    0.5413 N   0  0  0  0  0  0  0  0  0  0  0  0
   -2.2341   -0.4285    0.4360 H   0  0  0  0  0  0  0  0  0  0  0  0
   -0.1013   -0.3441    0.4041 C   0  0  1  0  0  0  0  0  0  0  0  0
    0.6183   -0.8469    1.0582 H   0  0  0  0  0  0  0  0  0  0  0  0
    0.4942   -0.4126   -1.0515 C   0  0  1  0  0  0  0  0  0  0  0  0
    1.3231   -1.1280   -1.0228 H   0  0  0  0  0  0  0  0  0  0  0  0
   -0.5232   -0.9554   -2.0815 C   0  0  0  0  0  0  0  0  0  0  0  0
   -1.3704   -0.2695   -2.1815 H   0  0  0  0  0  0  0  0  0  0  0  0
   -0.0620   -1.0881   -3.0633 H   0  0  0  0  0  0  0  0  0  0  0  0
   -0.8956   -1.9390   -1.7808 H   0  0  0  0  0  0  0  0  0  0  0  0
    1.0672    0.9494   -1.5336 C   0  0  0  0  0  0  0  0  0  0  0  0
    0.2811    1.7118   -1.5227 H   0  0  0  0  0  0  0  0  0  0  0  0
    1.8544    1.2643   -0.8408 H   0  0  0  0  0  0  0  0  0  0  0  0
    1.6605    0.9259   -2.9464 C   0  0  0  0  0  0  0  0  0  0  0  0
    0.8769    0.8266   -3.7029 H   0  0  0  0  0  0  0  0  0  0  0  0
    2.1944    1.8615   -3.1389 H   0  0  0  0  0  0  0  0  0  0  0  0
    2.3663    0.0963   -3.0525 H   0  0  0  0  0  0  0  0  0  0  0  0
   -0.2513    1.0848    0.9757 C   0  0  0  0  0  0  0  0  0  0  0  0
   -1.2732    1.7297    0.7628 O   0  0  0  0  0  0  0  0  0  0  0  0
    0.7141    1.6092    1.8158 N   0  0  0  0  0  0  0  0  0  0  0  0
    1.5240    1.0313    2.0211 H   0  0  0  0  0  0  0  0  0  0  0  0
    0.5996    2.9162    2.4510 C   0  0  0  0  0  0  0  0  0  0  0  0
   -0.2918    2.9572    3.0857 H   0  0  0  0  0  0  0  0  0  0  0  0
    1.4770    3.1110    3.0750 H   0  0  0  0  0  0  0  0  0  0  0  0
    0.5309    3.7054    1.6950 H   0  0  0  0  0  0  0  0  0  0  0  0
  1  2  1  0  0  0  0
  2  3  1  0  0  0  0
  2  4  1  0  0  0  0
  2  5  1  0  0  0  0
  5  6  2  0  0  0  0
  5  7  1  0  0  0  0
  7  8  1  0  0  0  0
  7  9  1  0  0  0  0
  9 10  1  0  0  0  0
  9 11  1  0  0  0  0
  9 24  1  0  0  0  0
 11 12  1  0  0  0  0
 11 13  1  0  0  0  0
 11 17  1  0  0  0  0
 13 14  1  0  0  0  0
 13 15  1  0  0  0  0
 13 16  1  0  0  0  0
 17 18  1  0  0  0  0
 17 19  1  0  0  0  0
 17 20  1  0  0  0  0
 20 21  1  0  0  0  0
 20 22  1  0  0  0  0
 20 23  1  0  0  0  0
 24 25  2  0  0  0  0
 24 26  1  0  0  0  0
 26 27  1  0  0  0  0
 26 28  1  0  0  0  0
 28 29  1  0  0  0  0
 28 30  1  0  0  0  0
 28 31  1  0  0  0  0
M  END
$$$$

  -OEChem-03222214053D

 31 30  0     1  0  0  0  0  0999 V2000
   -2.9557   -3.8592    1.5874 H   0  0  0  0  0  0  0  0  0  0  0  0
   -2.9976   -2.8361    1.2034 C   0  0  0  0  0  0  0  0  0  0  0  0
   -3.5394   -2.2133    1.9192 H   0  0  0  0  0  0  0  0  0  0  0  0
   -3.5353   -2.8379    0.2523 H   0  0  0  0  0  0  0  0  0  0  0  0
   -1.5950   -2.2944    1.0023 C   0  0  0  0  0  0  0  0  0  0  0  0
   -0.6272   -2.9996    1.2410 O   0  0  0  0  0  0  0  0  0  0  0  0
   -1.4190   -1.0034    0.5504 N   0  0  0  0  0  0  0  0  0  0  0  0
   -2.2487   -0.4191    0.4564 H   0  0  0  0  0  0  0  0  0  0  0  0
   -0.1160   -0.3303    0.4036 C   0  0  1  0  0  0  0  0  0  0  0  0
    0.6036   -0.8374    1.0544 H   0  0  0  0  0  0  0  0  0  0  0  0
    0.4877   -0.4048   -1.0519 C   0  0  1  0  0  0  0  0  0  0  0  0
    1.3227   -1.1126   -1.0164 H   0  0  0  0  0  0  0  0  0  0  0  0
   -0.5264   -0.9875   -2.0663 C   0  0  0  0  0  0  0  0  0  0  0  0
   -1.3829   -0.3156   -2.1816 H   0  0  0  0  0  0  0  0  0  0  0  0
   -0.0660   -1.1420   -3.0455 H   0  0  0  0  0  0  0  0  0  0  0  0
   -0.8853   -1.9683   -1.7414 H   0  0  0  0  0  0  0  0  0  0  0  0
    1.0619    0.9553   -1.5581 C   0  0  0  0  0  0  0  0  0  0  0  0
    0.3562    1.7645   -1.3510 H   0  0  0  0  0  0  0  0  0  0  0  0
    1.9873    1.1681   -1.0135 H   0  0  0  0  0  0  0  0  0  0  0  0
    1.3369    1.0413   -3.0642 C   0  0  0  0  0  0  0  0  0  0  0  0
    0.4051    1.0333   -3.6378 H   0  0  0  0  0  0  0  0  0  0  0  0
    1.8625    1.9738   -3.2917 H   0  0  0  0  0  0  0  0  0  0  0  0
    1.9643    0.2049   -3.3877 H   0  0  0  0  0  0  0  0  0  0  0  0
   -0.2556    1.0922    0.9916 C   0  0  0  0  0  0  0  0  0  0  0  0
   -1.2816    1.7381    0.8030 O   0  0  0  0  0  0  0  0  0  0  0  0
    0.7215    1.6083    1.8233 N   0  0  0  0  0  0  0  0  0  0  0  0
    1.5337    1.0284    2.0135 H   0  0  0  0  0  0  0  0  0  0  0  0
    0.6149    2.9097    2.4711 C   0  0  0  0  0  0  0  0  0  0  0  0
   -0.2681    2.9448    3.1178 H   0  0  0  0  0  0  0  0  0  0  0  0
    1.5003    3.1003    3.0851 H   0  0  0  0  0  0  0  0  0  0  0  0
    0.5353    3.7048    1.7222 H   0  0  0  0  0  0  0  0  0  0  0  0
  1  2  1  0  0  0  0
  2  3  1  0  0  0  0
  2  4  1  0  0  0  0
  2  5  1  0  0  0  0
  5  6  2  0  0  0  0
  5  7  1  0  0  0  0
  7  8  1  0  0  0  0
  7  9  1  0  0  0  0
  9 10  1  0  0  0  0
  9 11  1  0  0  0  0
  9 24  1  0  0  0  0
 11 12  1  0  0  0  0
 11 13  1  0  0  0  0
 11 17  1  0  0  0  0
 13 14  1  0  0  0  0
 13 15  1  0  0  0  0
 13 16  1  0  0  0  0
 17 18  1  0  0  0  0
 17 19  1  0  0  0  0
 17 20  1  0  0  0  0
 20 21  1  0  0  0  0
 20 22  1  0  0  0  0
 20 23  1  0  0  0  0
 24 25  2  0  0  0  0
 24 26  1  0  0  0  0
 26 27  1  0  0  0  0
 26 28  1  0  0  0  0
 28 29  1  0  0  0  0
 28 30  1  0  0  0  0
 28 31  1  0  0  0  0
M  END
$$$$

  -OEChem-03222214053D

 31 30  0     1  0  0  0  0  0999 V2000
   -2.9555   -3.8496    1.6000 H   0  0  0  0  0  0  0  0  0  0  0  0
   -3.0007   -2.8301    1.2069 C   0  0  0  0  0  0  0  0  0  0  0  0
   -3.5397   -2.2015    1.9198 H   0  0  0  0  0  0  0  0  0  0  0  0
   -3.5430   -2.8413    0.2584 H   0  0  0  0  0  0  0  0  0  0  0  0
   -1.5996   -2.2892    0.9945 C   0  0  0  0  0  0  0  0  0  0  0  0
   -0.6303   -2.9978    1.2167 O   0  0  0  0  0  0  0  0  0  0  0  0
   -1.4260   -0.9931    0.5564 N   0  0  0  0  0  0  0  0  0  0  0  0
   -2.2559   -0.4073    0.4726 H   0  0  0  0  0  0  0  0  0  0  0  0
   -0.1233   -0.3195    0.4056 C   0  0  1  0  0  0  0  0  0  0  0  0
    0.5990   -0.8320    1.0495 H   0  0  0  0  0  0  0  0  0  0  0  0
    0.4775   -0.3907   -1.0546 C   0  0  1  0  0  0  0  0  0  0  0  0
    1.3173   -1.0928   -1.0121 H   0  0  0  0  0  0  0  0  0  0  0  0
   -0.5286   -1.0162   -2.0523 C   0  0  0  0  0  0  0  0  0  0  0  0
   -1.4076   -0.3739   -2.1671 H   0  0  0  0  0  0  0  0  0  0  0  0
   -0.0727   -1.1696   -3.0338 H   0  0  0  0  0  0  0  0  0  0  0  0
   -0.8530   -2.0036   -1.7119 H   0  0  0  0  0  0  0  0  0  0  0  0
    1.0611    0.9624   -1.5914 C   0  0  0  0  0  0  0  0  0  0  0  0
    0.5160    1.8141   -1.1821 H   0  0  0  0  0  0  0  0  0  0  0  0
    2.0993    1.0468   -1.2546 H   0  0  0  0  0  0  0  0  0  0  0  0
    1.0045    1.1844   -3.1083 C   0  0  0  0  0  0  0  0  0  0  0  0
   -0.0298    1.2300   -3.4623 H   0  0  0  0  0  0  0  0  0  0  0  0
    1.4881    2.1330   -3.3605 H   0  0  0  0  0  0  0  0  0  0  0  0
    1.5315    0.3832   -3.6352 H   0  0  0  0  0  0  0  0  0  0  0  0
   -0.2646    1.0937    1.0139 C   0  0  0  0  0  0  0  0  0  0  0  0
   -1.2916    1.7413    0.8365 O   0  0  0  0  0  0  0  0  0  0  0  0
    0.7171    1.6012    1.8455 N   0  0  0  0  0  0  0  0  0  0  0  0
    1.5373    1.0255    2.0127 H   0  0  0  0  0  0  0  0  0  0  0  0
    0.6190    2.8992    2.5016 C   0  0  0  0  0  0  0  0  0  0  0  0
   -0.2763    2.9453    3.1307 H   0  0  0  0  0  0  0  0  0  0  0  0
    1.4944    3.0697    3.1355 H   0  0  0  0  0  0  0  0  0  0  0  0
    0.5686    3.7009    1.7574 H   0  0  0  0  0  0  0  0  0  0  0  0
  1  2  1  0  0  0  0
  2  3  1  0  0  0  0
  2  4  1  0  0  0  0
  2  5  1  0  0  0  0
  5  6  2  0  0  0  0
  5  7  1  0  0  0  0
  7  8  1  0  0  0  0
  7  9  1  0  0  0  0
  9 10  1  0  0  0  0
  9 11  1  0  0  0  0
  9 24  1  0  0  0  0
 11 12  1  0  0  0  0
 11 13  1  0  0  0  0
 11 17  1  0  0  0  0
 13 14  1  0  0  0  0
 13 15  1  0  0  0  0
 13 16  1  0  0  0  0
 17 18  1  0  0  0  0
 17 19  1  0  0  0  0
 17 20  1  0  0  0  0
 20 21  1  0  0  0  0
 20 22  1  0  0  0  0
 20 23  1  0  0  0  0
 24 25  2  0  0  0  0
 24 26  1  0  0  0  0
 26 27  1  0  0  0  0
 26 28  1  0  0  0  0
 28 29  1  0  0  0  0
 28 30  1  0  0  0  0
 28 31  1  0  0  0  0
M  END
$$$$

  -OEChem-03222214053D

 31 30  0     1  0  0  0  0  0999 V2000
   -2.9609   -3.8371    1.6001 H   0  0  0  0  0  0  0  0  0  0  0  0
   -3.0010   -2.8155    1.2120 C   0  0  0  0  0  0  0  0  0  0  0  0
   -3.5340   -2.1868    1.9295 H   0  0  0  0  0  0  0  0  0  0  0  0
   -3.5460   -2.8189    0.2651 H   0  0  0  0  0  0  0  0  0  0  0  0
   -1.5975   -2.2813    0.9981 C   0  0  0  0  0  0  0  0  0  0  0  0
   -0.6312   -2.9944    1.2184 O   0  0  0  0  0  0  0  0  0  0  0  0
   -1.4179   -0.9853    0.5624 N   0  0  0  0  0  0  0  0  0  0  0  0
   -2.2449   -0.3951    0.4803 H   0  0  0  0  0  0  0  0  0  0  0  0
   -0.1117   -0.3185    0.4114 C   0  0  1  0  0  0  0  0  0  0  0  0
    0.6154   -0.8342    1.0470 H   0  0  0  0  0  0  0  0  0  0  0  0
    0.4665   -0.3807   -1.0595 C   0  0  1  0  0  0  0  0  0  0  0  0
    1.3093   -1.0788   -1.0121 H   0  0  0  0  0  0  0  0  0  0  0  0
   -0.5310   -1.0377   -2.0455 C   0  0  0  0  0  0  0  0  0  0  0  0
   -1.4336   -0.4273   -2.1504 H   0  0  0  0  0  0  0  0  0  0  0  0
   -0.0791   -1.1756   -3.0310 H   0  0  0  0  0  0  0  0  0  0  0  0
   -0.8187   -2.0346   -1.6997 H   0  0  0  0  0  0  0  0  0  0  0  0
    1.0642    0.9610   -1.6223 C   0  0  0  0  0  0  0  0  0  0  0  0
    0.7888    1.8216   -1.0146 H   0  0  0  0  0  0  0  0  0  0  0  0
    2.1552    0.8860   -1.5711 H   0  0  0  0  0  0  0  0  0  0  0  0
    0.6793    1.3527   -3.0555 C   0  0  0  0  0  0  0  0  0  0  0  0
   -0.4048    1.4646   -3.1538 H   0  0  0  0  0  0  0  0  0  0  0  0
    1.1416    2.3110   -3.3117 H   0  0  0  0  0  0  0  0  0  0  0  0
    1.0333    0.6072   -3.7735 H   0  0  0  0  0  0  0  0  0  0  0  0
   -0.2646    1.0899    1.0277 C   0  0  0  0  0  0  0  0  0  0  0  0
   -1.2888    1.7389    0.8394 O   0  0  0  0  0  0  0  0  0  0  0  0
    0.7110    1.5979    1.8661 N   0  0  0  0  0  0  0  0  0  0  0  0
    1.5295    1.0218    2.0406 H   0  0  0  0  0  0  0  0  0  0  0  0
    0.6019    2.8909    2.5304 C   0  0  0  0  0  0  0  0  0  0  0  0
   -0.2966    2.9269    3.1558 H   0  0  0  0  0  0  0  0  0  0  0  0
    1.4736    3.0625    3.1694 H   0  0  0  0  0  0  0  0  0  0  0  0
    0.5498    3.6972    1.7912 H   0  0  0  0  0  0  0  0  0  0  0  0
  1  2  1  0  0  0  0
  2  3  1  0  0  0  0
  2  4  1  0  0  0  0
  2  5  1  0  0  0  0
  5  6  2  0  0  0  0
  5  7  1  0  0  0  0
  7  8  1  0  0  0  0
  7  9  1  0  0  0  0
  9 10  1  0  0  0  0
  9 11  1  0  0  0  0
  9 24  1  0  0  0  0
 11 12  1  0  0  0  0
 11 13  1  0  0  0  0
 11 17  1  0  0  0  0
 13 14  1  0  0  0  0
 13 15  1  0  0  0  0
 13 16  1  0  0  0  0
 17 18  1  0  0  0  0
 17 19  1  0  0  0  0
 17 20  1  0  0  0  0
 20 21  1  0  0  0  0
 20 22  1  0  0  0  0
 20 23  1  0  0  0  0
 24 25  2  0  0  0  0
 24 26  1  0  0  0  0
 26 27  1  0  0  0  0
 26 28  1  0  0  0  0
 28 29  1  0  0  0  0
 28 30  1  0  0  0  0
 28 31  1  0  0  0  0
M  END
$$$$

  -OEChem-03222214053D

 31 30  0     1  0  0  0  0  0999 V2000
   -2.9679   -3.8310    1.6001 H   0  0  0  0  0  0  0  0  0  0  0  0
   -3.0001   -2.8090    1.2122 C   0  0  0  0  0  0  0  0  0  0  0  0
   -3.5363   -2.1783    1.9255 H   0  0  0  0  0  0  0  0  0  0  0  0
   -3.5373   -2.8098    0.2608 H   0  0  0  0  0  0  0  0  0  0  0  0
   -1.5924   -2.2817    1.0099 C   0  0  0  0  0  0  0  0  0  0  0  0
   -0.6312   -2.9961    1.2480 O   0  0  0  0  0  0  0  0  0  0  0  0
   -1.4031   -0.9908    0.5641 N   0  0  0  0  0  0  0  0  0  0  0  0
   -2.2262   -0.3972    0.4683 H   0  0  0  0  0  0  0  0  0  0  0  0
   -0.0925   -0.3328    0.4193 C   0  0  1  0  0  0  0  0  0  0  0  0
    0.6391   -0.8485    1.0500 H   0  0  0  0  0  0  0  0  0  0  0  0
    0.4550   -0.3838   -1.0607 C   0  0  1  0  0  0  0  0  0  0  0  0
    1.3016   -1.0776   -1.0118 H   0  0  0  0  0  0  0  0  0  0  0  0
   -0.5304   -1.0473   -2.0517 C   0  0  0  0  0  0  0  0  0  0  0  0
   -1.4480   -0.4585   -2.1465 H   0  0  0  0  0  0  0  0  0  0  0  0
   -0.0732   -1.1547   -3.0392 H   0  0  0  0  0  0  0  0  0  0  0  0
   -0.7944   -2.0551   -1.7180 H   0  0  0  0  0  0  0  0  0  0  0  0
    1.0591    0.9531   -1.6202 C   0  0  0  0  0  0  0  0  0  0  0  0
    1.1122    1.7395   -0.8683 H   0  0  0  0  0  0  0  0  0  0  0  0
    2.0982    0.7436   -1.8945 H   0  0  0  0  0  0  0  0  0  0  0  0
    0.3885    1.5475   -2.8658 C   0  0  0  0  0  0  0  0  0  0  0  0
   -0.6719    1.7406   -2.6757 H   0  0  0  0  0  0  0  0  0  0  0  0
    0.8665    2.4978   -3.1219 H   0  0  0  0  0  0  0  0  0  0  0  0
    0.4851    0.8827   -3.7284 H   0  0  0  0  0  0  0  0  0  0  0  0
   -0.2566    1.0800    1.0245 C   0  0  0  0  0  0  0  0  0  0  0  0
   -1.2747    1.7305    0.8097 O   0  0  0  0  0  0  0  0  0  0  0  0
    0.7065    1.5968    1.8721 N   0  0  0  0  0  0  0  0  0  0  0  0
    1.5172    1.0182    2.0724 H   0  0  0  0  0  0  0  0  0  0  0  0
    0.5872    2.8964    2.5219 C   0  0  0  0  0  0  0  0  0  0  0  0
   -0.3145    2.9343    3.1423 H   0  0  0  0  0  0  0  0  0  0  0  0
    1.4549    3.0798    3.1629 H   0  0  0  0  0  0  0  0  0  0  0  0
    0.5343    3.6948    1.7743 H   0  0  0  0  0  0  0  0  0  0  0  0
  1  2  1  0  0  0  0
  2  3  1  0  0  0  0
  2  4  1  0  0  0  0
  2  5  1  0  0  0  0
  5  6  2  0  0  0  0
  5  7  1  0  0  0  0
  7  8  1  0  0  0  0
  7  9  1  0  0  0  0
  9 10  1  0  0  0  0
  9 11  1  0  0  0  0
  9 24  1  0  0  0  0
 11 12  1  0  0  0  0
 11 13  1  0  0  0  0
 11 17  1  0  0  0  0
 13 14  1  0  0  0  0
 13 15  1  0  0  0  0
 13 16  1  0  0  0  0
 17 18  1  0  0  0  0
 17 19  1  0  0  0  0
 17 20  1  0  0  0  0
 20 21  1  0  0  0  0
 20 22  1  0  0  0  0
 20 23  1  0  0  0  0
 24 25  2  0  0  0  0
 24 26  1  0  0  0  0
 26 27  1  0  0  0  0
 26 28  1  0  0  0  0
 28 29  1  0  0  0  0
 28 30  1  0  0  0  0
 28 31  1  0  0  0  0
M  END
$$$$

  -OEChem-03222214053D

 31 30  0     1  0  0  0  0  0999 V2000
   -2.9705   -3.8338    1.6027 H   0  0  0  0  0  0  0  0  0  0  0  0
   -2.9996   -2.8126    1.2126 C   0  0  0  0  0  0  0  0  0  0  0  0
   -3.5393   -2.1798    1.9212 H   0  0  0  0  0  0  0  0  0  0  0  0
   -3.5311   -2.8144    0.2580 H   0  0  0  0  0  0  0  0  0  0  0  0
   -1.5901   -2.2870    1.0173 C   0  0  0  0  0  0  0  0  0  0  0  0
   -0.6310   -3.0008    1.2653 O   0  0  0  0  0  0  0  0  0  0  0  0
   -1.3968   -1.0006    0.5609 N   0  0  0  0  0  0  0  0  0  0  0  0
   -2.2186   -0.4067    0.4558 H   0  0  0  0  0  0  0  0  0  0  0  0
   -0.0850   -0.3445    0.4224 C   0  0  1  0  0  0  0  0  0  0  0  0
    0.6468   -0.8573    1.0552 H   0  0  0  0  0  0  0  0  0  0  0  0
    0.4530   -0.3934   -1.0565 C   0  0  1  0  0  0  0  0  0  0  0  0
    1.2997   -1.0872   -1.0111 H   0  0  0  0  0  0  0  0  0  0  0  0
   -0.5301   -1.0348   -2.0608 C   0  0  0  0  0  0  0  0  0  0  0  0
   -1.4595   -0.4602   -2.1241 H   0  0  0  0  0  0  0  0  0  0  0  0
   -0.0790   -1.0874   -3.0562 H   0  0  0  0  0  0  0  0  0  0  0  0
   -0.7726   -2.0590   -1.7616 H   0  0  0  0  0  0  0  0  0  0  0  0
    1.0535    0.9434   -1.5990 C   0  0  0  0  0  0  0  0  0  0  0  0
    1.3712    1.6088   -0.7944 H   0  0  0  0  0  0  0  0  0  0  0  0
    1.9694    0.6850   -2.1407 H   0  0  0  0  0  0  0  0  0  0  0  0
    0.1765    1.7224   -2.5882 C   0  0  0  0  0  0  0  0  0  0  0  0
   -0.7950    1.9495   -2.1382 H   0  0  0  0  0  0  0  0  0  0  0  0
    0.6630    2.6674   -2.8473 H   0  0  0  0  0  0  0  0  0  0  0  0
    0.0187    1.1622   -3.5139 H   0  0  0  0  0  0  0  0  0  0  0  0
   -0.2497    1.0759    1.0110 C   0  0  0  0  0  0  0  0  0  0  0  0
   -1.2673    1.7241    0.7868 O   0  0  0  0  0  0  0  0  0  0  0  0
    0.7074    1.5995    1.8615 N   0  0  0  0  0  0  0  0  0  0  0  0
    1.5157    1.0221    2.0740 H   0  0  0  0  0  0  0  0  0  0  0  0
    0.5831    2.9044    2.4994 C   0  0  0  0  0  0  0  0  0  0  0  0
   -0.3163    2.9422    3.1230 H   0  0  0  0  0  0  0  0  0  0  0  0
    1.4524    3.0991    3.1349 H   0  0  0  0  0  0  0  0  0  0  0  0
    0.5223    3.6954    1.7444 H   0  0  0  0  0  0  0  0  0  0  0  0
  1  2  1  0  0  0  0
  2  3  1  0  0  0  0
  2  4  1  0  0  0  0
  2  5  1  0  0  0  0
  5  6  2  0  0  0  0
  5  7  1  0  0  0  0
  7  8  1  0  0  0  0
  7  9  1  0  0  0  0
  9 10  1  0  0  0  0
  9 11  1  0  0  0  0
  9 24  1  0  0  0  0
 11 12  1  0  0  0  0
 11 13  1  0  0  0  0
 11 17  1  0  0  0  0
 13 14  1  0  0  0  0
 13 15  1  0  0  0  0
 13 16  1  0  0  0  0
 17 18  1  0  0  0  0
 17 19  1  0  0  0  0
 17 20  1  0  0  0  0
 20 21  1  0  0  0  0
 20 22  1  0  0  0  0
 20 23  1  0  0  0  0
 24 25  2  0  0  0  0
 24 26  1  0  0  0  0
 26 27  1  0  0  0  0
 26 28  1  0  0  0  0
 28 29  1  0  0  0  0
 28 30  1  0  0  0  0
 28 31  1  0  0  0  0
M  END
$$$$

  -OEChem-03222214053D

 31 30  0     1  0  0  0  0  0999 V2000
   -2.9601   -3.8442    1.5877 H   0  0  0  0  0  0  0  0  0  0  0  0
   -2.9998   -2.8162    1.2169 C   0  0  0  0  0  0  0  0  0  0  0  0
   -3.5288   -2.1985    1.9466 H   0  0  0  0  0  0  0  0  0  0  0  0
   -3.5487   -2.8031    0.2722 H   0  0  0  0  0  0  0  0  0  0  0  0
   -1.5959   -2.2816    1.0062 C   0  0  0  0  0  0  0  0  0  0  0  0
   -0.6301   -2.9928    1.2355 O   0  0  0  0  0  0  0  0  0  0  0  0
   -1.4163   -0.9908    0.5564 N   0  0  0  0  0  0  0  0  0  0  0  0
   -2.2426   -0.3991    0.4789 H   0  0  0  0  0  0  0  0  0  0  0  0
   -0.1111   -0.3216    0.4188 C   0  0  1  0  0  0  0  0  0  0  0  0
    0.6129   -0.8326    1.0618 H   0  0  0  0  0  0  0  0  0  0  0  0
    0.4567   -0.3911   -1.0454 C   0  0  1  0  0  0  0  0  0  0  0  0
    1.3052   -1.0814   -0.9837 H   0  0  0  0  0  0  0  0  0  0  0  0
   -0.5151   -1.0231   -2.0642 C   0  0  0  0  0  0  0  0  0  0  0  0
   -1.4560   -0.4656   -2.1105 H   0  0  0  0  0  0  0  0  0  0  0  0
   -0.0660   -1.0338   -3.0621 H   0  0  0  0  0  0  0  0  0  0  0  0
   -0.7369   -2.0592   -1.7905 H   0  0  0  0  0  0  0  0  0  0  0  0
    1.0447    0.9391   -1.5978 C   0  0  0  0  0  0  0  0  0  0  0  0
    1.5401    1.5014   -0.8019 H   0  0  0  0  0  0  0  0  0  0  0  0
    1.8281    0.6818   -2.3184 H   0  0  0  0  0  0  0  0  0  0  0  0
    0.0479    1.8498   -2.3291 C   0  0  0  0  0  0  0  0  0  0  0  0
   -0.8247    2.0589   -1.7049 H   0  0  0  0  0  0  0  0  0  0  0  0
    0.5293    2.8008   -2.5759 H   0  0  0  0  0  0  0  0  0  0  0  0
   -0.2920    1.3921   -3.2625 H   0  0  0  0  0  0  0  0  0  0  0  0
   -0.2541    1.1009    1.0080 C   0  0  0  0  0  0  0  0  0  0  0  0
   -1.2951    1.7325    0.8556 O   0  0  0  0  0  0  0  0  0  0  0  0
    0.7197    1.6117    1.8473 N   0  0  0  0  0  0  0  0  0  0  0  0
    1.5378    1.0361    2.0249 H   0  0  0  0  0  0  0  0  0  0  0  0
    0.5983    2.8956    2.5270 C   0  0  0  0  0  0  0  0  0  0  0  0
   -0.2628    2.8916    3.2036 H   0  0  0  0  0  0  0  0  0  0  0  0
    1.4986    3.0992    3.1146 H   0  0  0  0  0  0  0  0  0  0  0  0
    0.4711    3.7035    1.7988 H   0  0  0  0  0  0  0  0  0  0  0  0
  1  2  1  0  0  0  0
  2  3  1  0  0  0  0
  2  4  1  0  0  0  0
  2  5  1  0  0  0  0
  5  6  2  0  0  0  0
  5  7  1  0  0  0  0
  7  8  1  0  0  0  0
  7  9  1  0  0  0  0
  9 10  1  0  0  0  0
  9 11  1  0  0  0  0
  9 24  1  0  0  0  0
 11 12  1  0  0  0  0
 11 13  1  0  0  0  0
 11 17  1  0  0  0  0
 13 14  1  0  0  0  0
 13 15  1  0  0  0  0
 13 16  1  0  0  0  0
 17 18  1  0  0  0  0
 17 19  1  0  0  0  0
 17 20  1  0  0  0  0
 20 21  1  0  0  0  0
 20 22  1  0  0  0  0
 20 23  1  0  0  0  0
 24 25  2  0  0  0  0
 24 26  1  0  0  0  0
 26 27  1  0  0  0  0
 26 28  1  0  0  0  0
 28 29  1  0  0  0  0
 28 30  1  0  0  0  0
 28 31  1  0  0  0  0
M  END
$$$$

  -OEChem-03222214053D

 31 30  0     1  0  0  0  0  0999 V2000
   -2.9296   -3.8622    1.5849 H   0  0  0  0  0  0  0  0  0  0  0  0
   -2.9917   -2.8286    1.2331 C   0  0  0  0  0  0  0  0  0  0  0  0
   -3.5001   -2.2283    1.9916 H   0  0  0  0  0  0  0  0  0  0  0  0
   -3.5738   -2.8051    0.3087 H   0  0  0  0  0  0  0  0  0  0  0  0
   -1.6010   -2.2768    0.9831 C   0  0  0  0  0  0  0  0  0  0  0  0
   -0.6220   -2.9845    1.1624 O   0  0  0  0  0  0  0  0  0  0  0  0
   -1.4481   -0.9735    0.5588 N   0  0  0  0  0  0  0  0  0  0  0  0
   -2.2817   -0.3875    0.5342 H   0  0  0  0  0  0  0  0  0  0  0  0
   -0.1554   -0.2809    0.4159 C   0  0  1  0  0  0  0  0  0  0  0  0
    0.5602   -0.7920    1.0682 H   0  0  0  0  0  0  0  0  0  0  0  0
    0.4603   -0.3732   -1.0273 C   0  0  1  0  0  0  0  0  0  0  0  0
    1.3099   -1.0593   -0.9397 H   0  0  0  0  0  0  0  0  0  0  0  0
   -0.4974   -1.0102   -2.0547 C   0  0  0  0  0  0  0  0  0  0  0  0
   -1.4374   -0.4528   -2.1131 H   0  0  0  0  0  0  0  0  0  0  0  0
   -0.0391   -1.0231   -3.0485 H   0  0  0  0  0  0  0  0  0  0  0  0
   -0.7216   -2.0454   -1.7799 H   0  0  0  0  0  0  0  0  0  0  0  0
    1.0369    0.9385   -1.6267 C   0  0  0  0  0  0  0  0  0  0  0  0
    1.6838    1.4132   -0.8825 H   0  0  0  0  0  0  0  0  0  0  0  0
    1.6777    0.6739   -2.4744 H   0  0  0  0  0  0  0  0  0  0  0  0
    0.0163    1.9752   -2.1240 C   0  0  0  0  0  0  0  0  0  0  0  0
   -0.7013    2.2565   -1.3545 H   0  0  0  0  0  0  0  0  0  0  0  0
    0.5413    2.8807   -2.4428 H   0  0  0  0  0  0  0  0  0  0  0  0
   -0.5384    1.5875   -2.9833 H   0  0  0  0  0  0  0  0  0  0  0  0
   -0.2755    1.1324    1.0287 C   0  0  0  0  0  0  0  0  0  0  0  0
   -1.3471    1.7299    0.9938 O   0  0  0  0  0  0  0  0  0  0  0  0
    0.7247    1.6211    1.8500 N   0  0  0  0  0  0  0  0  0  0  0  0
    1.5608    1.0550    1.9610 H   0  0  0  0  0  0  0  0  0  0  0  0
    0.6064    2.8606    2.6084 C   0  0  0  0  0  0  0  0  0  0  0  0
   -0.2078    2.7875    3.3370 H   0  0  0  0  0  0  0  0  0  0  0  0
    1.5366    3.0643    3.1475 H   0  0  0  0  0  0  0  0  0  0  0  0
    0.4051    3.7025    1.9375 H   0  0  0  0  0  0  0  0  0  0  0  0
  1  2  1  0  0  0  0
  2  3  1  0  0  0  0
  2  4  1  0  0  0  0
  2  5  1  0  0  0  0
  5  6  2  0  0  0  0
  5  7  1  0  0  0  0
  7  8  1  0  0  0  0
  7  9  1  0  0  0  0
  9 10  1  0  0  0  0
  9 11  1  0  0  0  0
  9 24  1  0  0  0  0
 11 12  1  0  0  0  0
 11 13  1  0  0  0  0
 11 17  1  0  0  0  0
 13 14  1  0  0  0  0
 13 15  1  0  0  0  0
 13 16  1  0  0  0  0
 17 18  1  0  0  0  0
 17 19  1  0  0  0  0
 17 20  1  0  0  0  0
 20 21  1  0  0  0  0
 20 22  1  0  0  0  0
 20 23  1  0  0  0  0
 24 25  2  0  0  0  0
 24 26  1  0  0  0  0
 26 27  1  0  0  0  0
 26 28  1  0  0  0  0
 28 29  1  0  0  0  0
 28 30  1  0  0  0  0
 28 31  1  0  0  0  0
M  END
$$$$

  -OEChem-03222214053D

 31 30  0     1  0  0  0  0  0999 V2000
   -2.9640   -3.8642    1.5672 H   0  0  0  0  0  0  0  0  0  0  0  0
   -3.0148   -2.8346    1.2025 C   0  0  0  0  0  0  0  0  0  0  0  0
   -3.5434   -2.2254    1.9396 H   0  0  0  0  0  0  0  0  0  0  0  0
   -3.5705   -2.8203    0.2619 H   0  0  0  0  0  0  0  0  0  0  0  0
   -1.6171   -2.2867    0.9851 C   0  0  0  0  0  0  0  0  0  0  0  0
   -0.6435   -2.9938    1.1933 O   0  0  0  0  0  0  0  0  0  0  0  0
   -1.4530   -0.9856    0.5590 N   0  0  0  0  0  0  0  0  0  0  0  0
   -2.2854   -0.3993    0.5090 H   0  0  0  0  0  0  0  0  0  0  0  0
   -0.1565   -0.2948    0.4409 C   0  0  1  0  0  0  0  0  0  0  0  0
    0.5490   -0.8025    1.1067 H   0  0  0  0  0  0  0  0  0  0  0  0
    0.4832   -0.3824   -0.9935 C   0  0  1  0  0  0  0  0  0  0  0  0
    1.3181   -1.0856   -0.9024 H   0  0  0  0  0  0  0  0  0  0  0  0
   -0.4778   -0.9986   -2.0341 C   0  0  0  0  0  0  0  0  0  0  0  0
   -1.4074   -0.4257   -2.1006 H   0  0  0  0  0  0  0  0  0  0  0  0
   -0.0147   -1.0197   -3.0254 H   0  0  0  0  0  0  0  0  0  0  0  0
   -0.7225   -2.0308   -1.7655 H   0  0  0  0  0  0  0  0  0  0  0  0
    1.0856    0.9117   -1.6146 C   0  0  0  0  0  0  0  0  0  0  0  0
    1.9203    1.2429   -0.9884 H   0  0  0  0  0  0  0  0  0  0  0  0
    1.5131    0.6462   -2.5872 H   0  0  0  0  0  0  0  0  0  0  0  0
    0.1519    2.1136   -1.8315 C   0  0  0  0  0  0  0  0  0  0  0  0
    0.5516    2.7437   -2.6316 H   0  0  0  0  0  0  0  0  0  0  0  0
    0.0831    2.7366   -0.9377 H   0  0  0  0  0  0  0  0  0  0  0  0
   -0.8527    1.7941   -2.1204 H   0  0  0  0  0  0  0  0  0  0  0  0
   -0.3056    1.1150    1.0484 C   0  0  0  0  0  0  0  0  0  0  0  0
   -1.3731    1.7141    0.9533 O   0  0  0  0  0  0  0  0  0  0  0  0
    0.6659    1.6171    1.8953 N   0  0  0  0  0  0  0  0  0  0  0  0
    1.5039    1.0599    2.0339 H   0  0  0  0  0  0  0  0  0  0  0  0
    0.5220    2.8706    2.6253 C   0  0  0  0  0  0  0  0  0  0  0  0
   -0.3420    2.8263    3.2968 H   0  0  0  0  0  0  0  0  0  0  0  0
    1.4163    3.0638    3.2255 H   0  0  0  0  0  0  0  0  0  0  0  0
    0.3854    3.7053    1.9298 H   0  0  0  0  0  0  0  0  0  0  0  0
  1  2  1  0  0  0  0
  2  3  1  0  0  0  0
  2  4  1  0  0  0  0
  2  5  1  0  0  0  0
  5  6  2  0  0  0  0
  5  7  1  0  0  0  0
  7  8  1  0  0  0  0
  7  9  1  0  0  0  0
  9 10  1  0  0  0  0
  9 11  1  0  0  0  0
  9 24  1  0  0  0  0
 11 12  1  0  0  0  0
 11 13  1  0  0  0  0
 11 17  1  0  0  0  0
 13 14  1  0  0  0  0
 13 15  1  0  0  0  0
 13 16  1  0  0  0  0
 17 18  1  0  0  0  0
 17 19  1  0  0  0  0
 17 20  1  0  0  0  0
 20 21  1  0  0  0  0
 20 22  1  0  0  0  0
 20 23  1  0  0  0  0
 24 25  2  0  0  0  0
 24 26  1  0  0  0  0
 26 27  1  0  0  0  0
 26 28  1  0  0  0  0
 28 29  1  0  0  0  0
 28 30  1  0  0  0  0
 28 31  1  0  0  0  0
M  END
$$$$

  -OEChem-03222214053D

 31 30  0     1  0  0  0  0  0999 V2000
   -2.9097   -3.9046    1.5600 H   0  0  0  0  0  0  0  0  0  0  0  0
   -2.9787   -2.8685    1.2170 C   0  0  0  0  0  0  0  0  0  0  0  0
   -3.4905   -2.2781    1.9809 H   0  0  0  0  0  0  0  0  0  0  0  0
   -3.5615   -2.8407    0.2932 H   0  0  0  0  0  0  0  0  0  0  0  0
   -1.5919   -2.3059    0.9704 C   0  0  0  0  0  0  0  0  0  0  0  0
   -0.6084   -3.0118    1.1307 O   0  0  0  0  0  0  0  0  0  0  0  0
   -1.4471   -0.9924    0.5761 N   0  0  0  0  0  0  0  0  0  0  0  0
   -2.2843   -0.4109    0.5639 H   0  0  0  0  0  0  0  0  0  0  0  0
   -0.1583   -0.2885    0.4448 C   0  0  1  0  0  0  0  0  0  0  0  0
    0.5595   -0.8034    1.0916 H   0  0  0  0  0  0  0  0  0  0  0  0
    0.4734   -0.3601   -1.0004 C   0  0  1  0  0  0  0  0  0  0  0  0
    1.2963   -1.0801   -0.9339 H   0  0  0  0  0  0  0  0  0  0  0  0
   -0.5259   -0.9431   -2.0265 C   0  0  0  0  0  0  0  0  0  0  0  0
   -1.4202   -0.3159   -2.0947 H   0  0  0  0  0  0  0  0  0  0  0  0
   -0.0751   -1.0091   -3.0213 H   0  0  0  0  0  0  0  0  0  0  0  0
   -0.8246   -1.9573   -1.7458 H   0  0  0  0  0  0  0  0  0  0  0  0
    1.0715    0.9216   -1.6637 C   0  0  0  0  0  0  0  0  0  0  0  0
    2.0444    1.1115   -1.1988 H   0  0  0  0  0  0  0  0  0  0  0  0
    1.2752    0.7085   -2.7182 H   0  0  0  0  0  0  0  0  0  0  0  0
    0.2815    2.2350   -1.5984 C   0  0  0  0  0  0  0  0  0  0  0  0
    0.4756    2.7771   -0.6701 H   0  0  0  0  0  0  0  0  0  0  0  0
    0.5906    2.8873   -2.4209 H   0  0  0  0  0  0  0  0  0  0  0  0
   -0.7926    2.0500   -1.6951 H   0  0  0  0  0  0  0  0  0  0  0  0
   -0.3121    1.1000    1.0966 C   0  0  0  0  0  0  0  0  0  0  0  0
   -1.3835    1.6963    1.0305 O   0  0  0  0  0  0  0  0  0  0  0  0
    0.6724    1.5890    1.9364 N   0  0  0  0  0  0  0  0  0  0  0  0
    1.5157    1.0335    2.0471 H   0  0  0  0  0  0  0  0  0  0  0  0
    0.5301    2.8189    2.7058 C   0  0  0  0  0  0  0  0  0  0  0  0
   -0.3122    2.7397    3.4012 H   0  0  0  0  0  0  0  0  0  0  0  0
    1.4394    3.0106    3.2838 H   0  0  0  0  0  0  0  0  0  0  0  0
    0.3585    3.6705    2.0390 H   0  0  0  0  0  0  0  0  0  0  0  0
  1  2  1  0  0  0  0
  2  3  1  0  0  0  0
  2  4  1  0  0  0  0
  2  5  1  0  0  0  0
  5  6  2  0  0  0  0
  5  7  1  0  0  0  0
  7  8  1  0  0  0  0
  7  9  1  0  0  0  0
  9 10  1  0  0  0  0
  9 11  1  0  0  0  0
  9 24  1  0  0  0  0
 11 12  1  0  0  0  0
 11 13  1  0  0  0  0
 11 17  1  0  0  0  0
 13 14  1  0  0  0  0
 13 15  1  0  0  0  0
 13 16  1  0  0  0  0
 17 18  1  0  0  0  0
 17 19  1  0  0  0  0
 17 20  1  0  0  0  0
 20 21  1  0  0  0  0
 20 22  1  0  0  0  0
 20 23  1  0  0  0  0
 24 25  2  0  0  0  0
 24 26  1  0  0  0  0
 26 27  1  0  0  0  0
 26 28  1  0  0  0  0
 28 29  1  0  0  0  0
 28 30  1  0  0  0  0
 28 31  1  0  0  0  0
M  END
$$$$

  -OEChem-03222214053D

 31 30  0     1  0  0  0  0  0999 V2000
   -2.8914   -3.9322    1.5155 H   0  0  0  0  0  0  0  0  0  0  0  0
   -2.9654   -2.8864    1.2047 C   0  0  0  0  0  0  0  0  0  0  0  0
   -3.4774   -2.3211    1.9873 H   0  0  0  0  0  0  0  0  0  0  0  0
   -3.5510   -2.8328    0.2837 H   0  0  0  0  0  0  0  0  0  0  0  0
   -1.5814   -2.3111    0.9718 C   0  0  0  0  0  0  0  0  0  0  0  0
   -0.5937   -3.0128    1.1247 O   0  0  0  0  0  0  0  0  0  0  0  0
   -1.4436   -0.9915    0.5952 N   0  0  0  0  0  0  0  0  0  0  0  0
   -2.2836   -0.4138    0.5878 H   0  0  0  0  0  0  0  0  0  0  0  0
   -0.1573   -0.2822    0.4637 C   0  0  1  0  0  0  0  0  0  0  0  0
    0.5668   -0.7993    1.1018 H   0  0  0  0  0  0  0  0  0  0  0  0
    0.4664   -0.3480   -0.9919 C   0  0  1  0  0  0  0  0  0  0  0  0
    1.2844   -1.0739   -0.9283 H   0  0  0  0  0  0  0  0  0  0  0  0
   -0.5443   -0.9408   -2.0044 C   0  0  0  0  0  0  0  0  0  0  0  0
   -1.4241   -0.2949   -2.0905 H   0  0  0  0  0  0  0  0  0  0  0  0
   -0.0943   -1.0475   -2.9962 H   0  0  0  0  0  0  0  0  0  0  0  0
   -0.8648   -1.9417   -1.7018 H   0  0  0  0  0  0  0  0  0  0  0  0
    1.0703    0.9171   -1.6968 C   0  0  0  0  0  0  0  0  0  0  0  0
    2.1331    0.9458   -1.4357 H   0  0  0  0  0  0  0  0  0  0  0  0
    1.0338    0.7823   -2.7823 H   0  0  0  0  0  0  0  0  0  0  0  0
    0.5239    2.3158   -1.4000 C   0  0  0  0  0  0  0  0  0  0  0  0
    0.8911    2.6977   -0.4454 H   0  0  0  0  0  0  0  0  0  0  0  0
    0.8633    3.0102   -2.1746 H   0  0  0  0  0  0  0  0  0  0  0  0
   -0.5704    2.3135   -1.4055 H   0  0  0  0  0  0  0  0  0  0  0  0
   -0.3284    1.0922    1.1418 C   0  0  0  0  0  0  0  0  0  0  0  0
   -1.4018    1.6851    1.0780 O   0  0  0  0  0  0  0  0  0  0  0  0
    0.6529    1.5770    1.9884 N   0  0  0  0  0  0  0  0  0  0  0  0
    1.4987    1.0241    2.0934 H   0  0  0  0  0  0  0  0  0  0  0  0
    0.5048    2.7980    2.7708 C   0  0  0  0  0  0  0  0  0  0  0  0
   -0.3150    2.6950    3.4894 H   0  0  0  0  0  0  0  0  0  0  0  0
    1.4258    3.0071    3.3234 H   0  0  0  0  0  0  0  0  0  0  0  0
    0.2947    3.6502    2.1158 H   0  0  0  0  0  0  0  0  0  0  0  0
  1  2  1  0  0  0  0
  2  3  1  0  0  0  0
  2  4  1  0  0  0  0
  2  5  1  0  0  0  0
  5  6  2  0  0  0  0
  5  7  1  0  0  0  0
  7  8  1  0  0  0  0
  7  9  1  0  0  0  0
  9 10  1  0  0  0  0
  9 11  1  0  0  0  0
  9 24  1  0  0  0  0
 11 12  1  0  0  0  0
 11 13  1  0  0  0  0
 11 17  1  0  0  0  0
 13 14  1  0  0  0  0
 13 15  1  0  0  0  0
 13 16  1  0  0  0  0
 17 18  1  0  0  0  0
 17 19  1  0  0  0  0
 17 20  1  0  0  0  0
 20 21  1  0  0  0  0
 20 22  1  0  0  0  0
 20 23  1  0  0  0  0
 24 25  2  0  0  0  0
 24 26  1  0  0  0  0
 26 27  1  0  0  0  0
 26 28  1  0  0  0  0
 28 29  1  0  0  0  0
 28 30  1  0  0  0  0
 28 31  1  0  0  0  0
M  END
$$$$

  -OEChem-03222214053D

 31 30  0     1  0  0  0  0  0999 V2000
   -2.9204   -3.8882    1.5829 H   0  0  0  0  0  0  0  0  0  0  0  0
   -2.9820   -2.8481    1.2507 C   0  0  0  0  0  0  0  0  0  0  0  0
   -3.4902   -2.2617    2.0201 H   0  0  0  0  0  0  0  0  0  0  0  0
   -3.5641   -2.8070    0.3269 H   0  0  0  0  0  0  0  0  0  0  0  0
   -1.5912   -2.2918    1.0115 C   0  0  0  0  0  0  0  0  0  0  0  0
   -0.6120   -3.0046    1.1675 O   0  0  0  0  0  0  0  0  0  0  0  0
   -1.4372   -0.9765    0.6263 N   0  0  0  0  0  0  0  0  0  0  0  0
   -2.2693   -0.3874    0.6175 H   0  0  0  0  0  0  0  0  0  0  0  0
   -0.1418   -0.2853    0.4850 C   0  0  1  0  0  0  0  0  0  0  0  0
    0.5894   -0.8054    1.1125 H   0  0  0  0  0  0  0  0  0  0  0  0
    0.4403   -0.3593   -0.9905 C   0  0  1  0  0  0  0  0  0  0  0  0
    1.2570   -1.0867   -0.9245 H   0  0  0  0  0  0  0  0  0  0  0  0
   -0.5776   -0.9835   -1.9776 C   0  0  0  0  0  0  0  0  0  0  0  0
   -1.4657   -0.3492   -2.0651 H   0  0  0  0  0  0  0  0  0  0  0  0
   -0.1370   -1.1043   -2.9721 H   0  0  0  0  0  0  0  0  0  0  0  0
   -0.8820   -1.9822   -1.6524 H   0  0  0  0  0  0  0  0  0  0  0  0
    1.0573    0.8813   -1.7369 C   0  0  0  0  0  0  0  0  0  0  0  0
    2.1411    0.7271   -1.7538 H   0  0  0  0  0  0  0  0  0  0  0  0
    0.7369    0.8751   -2.7835 H   0  0  0  0  0  0  0  0  0  0  0  0
    0.8425    2.3122   -1.2449 C   0  0  0  0  0  0  0  0  0  0  0  0
    1.3686    2.4929   -0.3059 H   0  0  0  0  0  0  0  0  0  0  0  0
   -0.2232    2.5294   -1.1311 H   0  0  0  0  0  0  0  0  0  0  0  0
    1.2471    3.0133   -1.9812 H   0  0  0  0  0  0  0  0  0  0  0  0
   -0.3176    1.0901    1.1623 C   0  0  0  0  0  0  0  0  0  0  0  0
   -1.3861    1.6899    1.0812 O   0  0  0  0  0  0  0  0  0  0  0  0
    0.6590    1.5785    2.0126 N   0  0  0  0  0  0  0  0  0  0  0  0
    1.5084    1.0311    2.1178 H   0  0  0  0  0  0  0  0  0  0  0  0
    0.5130    2.8109    2.7773 C   0  0  0  0  0  0  0  0  0  0  0  0
   -0.3317    2.7341    3.4700 H   0  0  0  0  0  0  0  0  0  0  0  0
    1.4199    3.0054    3.3579 H   0  0  0  0  0  0  0  0  0  0  0  0
    0.3435    3.6598    2.1065 H   0  0  0  0  0  0  0  0  0  0  0  0
  1  2  1  0  0  0  0
  2  3  1  0  0  0  0
  2  4  1  0  0  0  0
  2  5  1  0  0  0  0
  5  6  2  0  0  0  0
  5  7  1  0  0  0  0
  7  8  1  0  0  0  0
  7  9  1  0  0  0  0
  9 10  1  0  0  0  0
  9 11  1  0  0  0  0
  9 24  1  0  0  0  0
 11 12  1  0  0  0  0
 11 13  1  0  0  0  0
 11 17  1  0  0  0  0
 13 14  1  0  0  0  0
 13 15  1  0  0  0  0
 13 16  1  0  0  0  0
 17 18  1  0  0  0  0
 17 19  1  0  0  0  0
 17 20  1  0  0  0  0
 20 21  1  0  0  0  0
 20 22  1  0  0  0  0
 20 23  1  0  0  0  0
 24 25  2  0  0  0  0
 24 26  1  0  0  0  0
 26 27  1  0  0  0  0
 26 28  1  0  0  0  0
 28 29  1  0  0  0  0
 28 30  1  0  0  0  0
 28 31  1  0  0  0  0
M  END
$$$$

  -OEChem-03222214053D

 31 30  0     1  0  0  0  0  0999 V2000
   -2.9826   -3.8603    1.5242 H   0  0  0  0  0  0  0  0  0  0  0  0
   -3.0195   -2.8224    1.1818 C   0  0  0  0  0  0  0  0  0  0  0  0
   -3.5447   -2.2235    1.9298 H   0  0  0  0  0  0  0  0  0  0  0  0
   -3.5711   -2.7812    0.2395 H   0  0  0  0  0  0  0  0  0  0  0  0
   -1.6141   -2.2870    0.9828 C   0  0  0  0  0  0  0  0  0  0  0  0
   -0.6497   -3.0123    1.1710 O   0  0  0  0  0  0  0  0  0  0  0  0
   -1.4299   -0.9745    0.6016 N   0  0  0  0  0  0  0  0  0  0  0  0
   -2.2531   -0.3737    0.5620 H   0  0  0  0  0  0  0  0  0  0  0  0
   -0.1208   -0.3026    0.4982 C   0  0  1  0  0  0  0  0  0  0  0  0
    0.6004   -0.8324    1.1293 H   0  0  0  0  0  0  0  0  0  0  0  0
    0.4540   -0.3544   -0.9807 C   0  0  1  0  0  0  0  0  0  0  0  0
    1.2708   -1.0809   -0.9052 H   0  0  0  0  0  0  0  0  0  0  0  0
   -0.5406   -0.9765   -1.9899 C   0  0  0  0  0  0  0  0  0  0  0  0
   -1.4397   -0.3575   -2.0754 H   0  0  0  0  0  0  0  0  0  0  0  0
   -0.0829   -1.0629   -2.9807 H   0  0  0  0  0  0  0  0  0  0  0  0
   -0.8294   -1.9871   -1.6870 H   0  0  0  0  0  0  0  0  0  0  0  0
    1.0990    0.8803   -1.7111 C   0  0  0  0  0  0  0  0  0  0  0  0
    2.1086    0.5799   -2.0104 H   0  0  0  0  0  0  0  0  0  0  0  0
    0.5483    1.0719   -2.6381 H   0  0  0  0  0  0  0  0  0  0  0  0
    1.2262    2.2467   -1.0399 C   0  0  0  0  0  0  0  0  0  0  0  0
    1.8323    2.1806   -0.1337 H   0  0  0  0  0  0  0  0  0  0  0  0
    0.2445    2.6699   -0.8125 H   0  0  0  0  0  0  0  0  0  0  0  0
    1.7291    2.9395   -1.7214 H   0  0  0  0  0  0  0  0  0  0  0  0
   -0.3233    1.0703    1.1753 C   0  0  0  0  0  0  0  0  0  0  0  0
   -1.3775    1.6838    1.0309 O   0  0  0  0  0  0  0  0  0  0  0  0
    0.6170    1.5604    2.0647 N   0  0  0  0  0  0  0  0  0  0  0  0
    1.4548    1.0064    2.2165 H   0  0  0  0  0  0  0  0  0  0  0  0
    0.4437    2.7996    2.8127 C   0  0  0  0  0  0  0  0  0  0  0  0
   -0.4444    2.7408    3.4507 H   0  0  0  0  0  0  0  0  0  0  0  0
    1.3147    2.9826    3.4493 H   0  0  0  0  0  0  0  0  0  0  0  0
    0.3309    3.6474    2.1288 H   0  0  0  0  0  0  0  0  0  0  0  0
  1  2  1  0  0  0  0
  2  3  1  0  0  0  0
  2  4  1  0  0  0  0
  2  5  1  0  0  0  0
  5  6  2  0  0  0  0
  5  7  1  0  0  0  0
  7  8  1  0  0  0  0
  7  9  1  0  0  0  0
  9 10  1  0  0  0  0
  9 11  1  0  0  0  0
  9 24  1  0  0  0  0
 11 12  1  0  0  0  0
 11 13  1  0  0  0  0
 11 17  1  0  0  0  0
 13 14  1  0  0  0  0
 13 15  1  0  0  0  0
 13 16  1  0  0  0  0
 17 18  1  0  0  0  0
 17 19  1  0  0  0  0
 17 20  1  0  0  0  0
 20 21  1  0  0  0  0
 20 22  1  0  0  0  0
 20 23  1  0  0  0  0
 24 25  2  0  0  0  0
 24 26  1  0  0  0  0
 26 27  1  0  0  0  0
 26 28  1  0  0  0  0
 28 29  1  0  0  0  0
 28 30  1  0  0  0  0
 28 31  1  0  0  0  0
M  END
$$$$

  -OEChem-03222214053D

 31 30  0     1  0  0  0  0  0999 V2000
   -2.9338   -3.8942    1.5111 H   0  0  0  0  0  0  0  0  0  0  0  0
   -2.9762   -2.8610    1.1556 C   0  0  0  0  0  0  0  0  0  0  0  0
   -3.5205   -2.2590    1.8872 H   0  0  0  0  0  0  0  0  0  0  0  0
   -3.5112   -2.8370    0.2033 H   0  0  0  0  0  0  0  0  0  0  0  0
   -1.5737   -2.3126    0.9740 C   0  0  0  0  0  0  0  0  0  0  0  0
   -0.6052   -3.0274    1.1797 O   0  0  0  0  0  0  0  0  0  0  0  0
   -1.3964   -1.0005    0.5892 N   0  0  0  0  0  0  0  0  0  0  0  0
   -2.2246   -0.4082    0.5303 H   0  0  0  0  0  0  0  0  0  0  0  0
   -0.0917   -0.3194    0.5002 C   0  0  1  0  0  0  0  0  0  0  0  0
    0.6384   -0.8419    1.1268 H   0  0  0  0  0  0  0  0  0  0  0  0
    0.4645   -0.3420   -0.9835 C   0  0  1  0  0  0  0  0  0  0  0  0
    1.2897   -1.0603   -0.9246 H   0  0  0  0  0  0  0  0  0  0  0  0
   -0.5277   -0.9433   -2.0059 C   0  0  0  0  0  0  0  0  0  0  0  0
   -1.4404   -0.3409   -2.0587 H   0  0  0  0  0  0  0  0  0  0  0  0
   -0.0783   -0.9766   -3.0037 H   0  0  0  0  0  0  0  0  0  0  0  0
   -0.7931   -1.9704   -1.7381 H   0  0  0  0  0  0  0  0  0  0  0  0
    1.0942    0.9099   -1.6857 C   0  0  0  0  0  0  0  0  0  0  0  0
    1.9694    0.5578   -2.2421 H   0  0  0  0  0  0  0  0  0  0  0  0
    0.3825    1.2894   -2.4271 H   0  0  0  0  0  0  0  0  0  0  0  0
    1.5275    2.1355   -0.8821 C   0  0  0  0  0  0  0  0  0  0  0  0
    2.1609    1.8412   -0.0411 H   0  0  0  0  0  0  0  0  0  0  0  0
    2.1115    2.8020   -1.5240 H   0  0  0  0  0  0  0  0  0  0  0  0
    0.6656    2.7055   -0.5267 H   0  0  0  0  0  0  0  0  0  0  0  0
   -0.3259    1.0520    1.1705 C   0  0  0  0  0  0  0  0  0  0  0  0
   -1.3705    1.6677    0.9755 O   0  0  0  0  0  0  0  0  0  0  0  0
    0.5904    1.5597    2.0750 N   0  0  0  0  0  0  0  0  0  0  0  0
    1.4266    1.0119    2.2553 H   0  0  0  0  0  0  0  0  0  0  0  0
    0.3993    2.8144    2.7920 C   0  0  0  0  0  0  0  0  0  0  0  0
   -0.5125    2.7758    3.3972 H   0  0  0  0  0  0  0  0  0  0  0  0
    1.2474    3.0026    3.4572 H   0  0  0  0  0  0  0  0  0  0  0  0
    0.3203    3.6492    2.0878 H   0  0  0  0  0  0  0  0  0  0  0  0
  1  2  1  0  0  0  0
  2  3  1  0  0  0  0
  2  4  1  0  0  0  0
  2  5  1  0  0  0  0
  5  6  2  0  0  0  0
  5  7  1  0  0  0  0
  7  8  1  0  0  0  0
  7  9  1  0  0  0  0
  9 10  1  0  0  0  0
  9 11  1  0  0  0  0
  9 24  1  0  0  0  0
 11 12  1  0  0  0  0
 11 13  1  0  0  0  0
 11 17  1  0  0  0  0
 13 14  1  0  0  0  0
 13 15  1  0  0  0  0
 13 16  1  0  0  0  0
 17 18  1  0  0  0  0
 17 19  1  0  0  0  0
 17 20  1  0  0  0  0
 20 21  1  0  0  0  0
 20 22  1  0  0  0  0
 20 23  1  0  0  0  0
 24 25  2  0  0  0  0
 24 26  1  0  0  0  0
 26 27  1  0  0  0  0
 26 28  1  0  0  0  0
 28 29  1  0  0  0  0
 28 30  1  0  0  0  0
 28 31  1  0  0  0  0
M  END
$$$$

  -OEChem-03222214053D

 31 30  0     1  0  0  0  0  0999 V2000
   -2.9471   -3.8676    1.5542 H   0  0  0  0  0  0  0  0  0  0  0  0
   -2.9795   -2.8398    1.1822 C   0  0  0  0  0  0  0  0  0  0  0  0
   -3.5269   -2.2229    1.8990 H   0  0  0  0  0  0  0  0  0  0  0  0
   -3.5055   -2.8275    0.2246 H   0  0  0  0  0  0  0  0  0  0  0  0
   -1.5719   -2.3028    1.0056 C   0  0  0  0  0  0  0  0  0  0  0  0
   -0.6099   -3.0194    1.2339 O   0  0  0  0  0  0  0  0  0  0  0  0
   -1.3828   -0.9999    0.5963 N   0  0  0  0  0  0  0  0  0  0  0  0
   -2.2067   -0.4052    0.5109 H   0  0  0  0  0  0  0  0  0  0  0  0
   -0.0724   -0.3318    0.4967 C   0  0  1  0  0  0  0  0  0  0  0  0
    0.6606   -0.8519    1.1218 H   0  0  0  0  0  0  0  0  0  0  0  0
    0.4598   -0.3634   -0.9924 C   0  0  1  0  0  0  0  0  0  0  0  0
    1.2729   -1.0968   -0.9585 H   0  0  0  0  0  0  0  0  0  0  0  0
   -0.5638   -0.9157   -2.0098 C   0  0  0  0  0  0  0  0  0  0  0  0
   -1.4629   -0.2913   -2.0315 H   0  0  0  0  0  0  0  0  0  0  0  0
   -0.1339   -0.9343   -3.0164 H   0  0  0  0  0  0  0  0  0  0  0  0
   -0.8487   -1.9423   -1.7601 H   0  0  0  0  0  0  0  0  0  0  0  0
    1.0850    0.8945   -1.6724 C   0  0  0  0  0  0  0  0  0  0  0  0
    1.7825    0.5362   -2.4370 H   0  0  0  0  0  0  0  0  0  0  0  0
    0.2927    1.4432   -2.1936 H   0  0  0  0  0  0  0  0  0  0  0  0
    1.8263    1.9230   -0.8171 C   0  0  0  0  0  0  0  0  0  0  0  0
    2.4301    1.4281   -0.0509 H   0  0  0  0  0  0  0  0  0  0  0  0
    1.1317    2.6260   -0.3516 H   0  0  0  0  0  0  0  0  0  0  0  0
    2.4973    2.5093   -1.4523 H   0  0  0  0  0  0  0  0  0  0  0  0
   -0.2926    1.0553    1.1396 C   0  0  0  0  0  0  0  0  0  0  0  0
   -1.3180    1.6898    0.9088 O   0  0  0  0  0  0  0  0  0  0  0  0
    0.6274    1.5717    2.0358 N   0  0  0  0  0  0  0  0  0  0  0  0
    1.4483    1.0103    2.2433 H   0  0  0  0  0  0  0  0  0  0  0  0
    0.4519    2.8472    2.7196 C   0  0  0  0  0  0  0  0  0  0  0  0
   -0.4569    2.8327    3.3303 H   0  0  0  0  0  0  0  0  0  0  0  0
    1.3056    3.0456    3.3747 H   0  0  0  0  0  0  0  0  0  0  0  0
    0.3762    3.6639    1.9939 H   0  0  0  0  0  0  0  0  0  0  0  0
  1  2  1  0  0  0  0
  2  3  1  0  0  0  0
  2  4  1  0  0  0  0
  2  5  1  0  0  0  0
  5  6  2  0  0  0  0
  5  7  1  0  0  0  0
  7  8  1  0  0  0  0
  7  9  1  0  0  0  0
  9 10  1  0  0  0  0
  9 11  1  0  0  0  0
  9 24  1  0  0  0  0
 11 12  1  0  0  0  0
 11 13  1  0  0  0  0
 11 17  1  0  0  0  0
 13 14  1  0  0  0  0
 13 15  1  0  0  0  0
 13 16  1  0  0  0  0
 17 18  1  0  0  0  0
 17 19  1  0  0  0  0
 17 20  1  0  0  0  0
 20 21  1  0  0  0  0
 20 22  1  0  0  0  0
 20 23  1  0  0  0  0
 24 25  2  0  0  0  0
 24 26  1  0  0  0  0
 26 27  1  0  0  0  0
 26 28  1  0  0  0  0
 28 29  1  0  0  0  0
 28 30  1  0  0  0  0
 28 31  1  0  0  0  0
M  END
$$$$

  -OEChem-03222214053D

 31 30  0     1  0  0  0  0  0999 V2000
   -2.9470   -3.8636    1.5532 H   0  0  0  0  0  0  0  0  0  0  0  0
   -2.9748   -2.8461    1.1533 C   0  0  0  0  0  0  0  0  0  0  0  0
   -3.5502   -2.2151    1.8350 H   0  0  0  0  0  0  0  0  0  0  0  0
   -3.4686   -2.8633    0.1787 H   0  0  0  0  0  0  0  0  0  0  0  0
   -1.5660   -2.3031    1.0087 C   0  0  0  0  0  0  0  0  0  0  0  0
   -0.6072   -3.0094    1.2785 O   0  0  0  0  0  0  0  0  0  0  0  0
   -1.3718   -1.0084    0.5767 N   0  0  0  0  0  0  0  0  0  0  0  0
   -2.1951   -0.4197    0.4541 H   0  0  0  0  0  0  0  0  0  0  0  0
   -0.0606   -0.3413    0.4880 C   0  0  1  0  0  0  0  0  0  0  0  0
    0.6672   -0.8512    1.1276 H   0  0  0  0  0  0  0  0  0  0  0  0
    0.4835   -0.3821   -0.9937 C   0  0  1  0  0  0  0  0  0  0  0  0
    1.2860   -1.1274   -0.9757 H   0  0  0  0  0  0  0  0  0  0  0  0
   -0.5525   -0.8859   -2.0242 C   0  0  0  0  0  0  0  0  0  0  0  0
   -1.4343   -0.2371   -2.0341 H   0  0  0  0  0  0  0  0  0  0  0  0
   -0.1233   -0.8963   -3.0311 H   0  0  0  0  0  0  0  0  0  0  0  0
   -0.8656   -1.9092   -1.7953 H   0  0  0  0  0  0  0  0  0  0  0  0
    1.1035    0.8970   -1.6235 C   0  0  0  0  0  0  0  0  0  0  0  0
    1.6280    0.5956   -2.5366 H   0  0  0  0  0  0  0  0  0  0  0  0
    0.2999    1.5795   -1.9216 H   0  0  0  0  0  0  0  0  0  0  0  0
    2.0932    1.6902   -0.7663 C   0  0  0  0  0  0  0  0  0  0  0  0
    2.6283    1.0315   -0.0755 H   0  0  0  0  0  0  0  0  0  0  0  0
    2.8289    2.1781   -1.4130 H   0  0  0  0  0  0  0  0  0  0  0  0
    1.5849    2.4787   -0.2077 H   0  0  0  0  0  0  0  0  0  0  0  0
   -0.2831    1.0616    1.0970 C   0  0  0  0  0  0  0  0  0  0  0  0
   -1.2958    1.7000    0.8258 O   0  0  0  0  0  0  0  0  0  0  0  0
    0.6243    1.5935    1.9967 N   0  0  0  0  0  0  0  0  0  0  0  0
    1.4366    1.0312    2.2332 H   0  0  0  0  0  0  0  0  0  0  0  0
    0.4512    2.8907    2.6389 C   0  0  0  0  0  0  0  0  0  0  0  0
   -0.4770    2.9104    3.2196 H   0  0  0  0  0  0  0  0  0  0  0  0
    1.2869    3.0916    3.3161 H   0  0  0  0  0  0  0  0  0  0  0  0
    0.4147    3.6876    1.8888 H   0  0  0  0  0  0  0  0  0  0  0  0
  1  2  1  0  0  0  0
  2  3  1  0  0  0  0
  2  4  1  0  0  0  0
  2  5  1  0  0  0  0
  5  6  2  0  0  0  0
  5  7  1  0  0  0  0
  7  8  1  0  0  0  0
  7  9  1  0  0  0  0
  9 10  1  0  0  0  0
  9 11  1  0  0  0  0
  9 24  1  0  0  0  0
 11 12  1  0  0  0  0
 11 13  1  0  0  0  0
 11 17  1  0  0  0  0
 13 14  1  0  0  0  0
 13 15  1  0  0  0  0
 13 16  1  0  0  0  0
 17 18  1  0  0  0  0
 17 19  1  0  0  0  0
 17 20  1  0  0  0  0
 20 21  1  0  0  0  0
 20 22  1  0  0  0  0
 20 23  1  0  0  0  0
 24 25  2  0  0  0  0
 24 26  1  0  0  0  0
 26 27  1  0  0  0  0
 26 28  1  0  0  0  0
 28 29  1  0  0  0  0
 28 30  1  0  0  0  0
 28 31  1  0  0  0  0
M  END
$$$$

  -OEChem-03222214053D

 31 30  0     1  0  0  0  0  0999 V2000
   -2.9454   -3.8700    1.5221 H   0  0  0  0  0  0  0  0  0  0  0  0
   -2.9710   -2.8391    1.1583 C   0  0  0  0  0  0  0  0  0  0  0  0
   -3.5268   -2.2268    1.8725 H   0  0  0  0  0  0  0  0  0  0  0  0
   -3.4842   -2.8183    0.1940 H   0  0  0  0  0  0  0  0  0  0  0  0
   -1.5604   -2.3029    1.0054 C   0  0  0  0  0  0  0  0  0  0  0  0
   -0.6037   -3.0080    1.2855 O   0  0  0  0  0  0  0  0  0  0  0  0
   -1.3632   -1.0141    0.5580 N   0  0  0  0  0  0  0  0  0  0  0  0
   -2.1853   -0.4253    0.4292 H   0  0  0  0  0  0  0  0  0  0  0  0
   -0.0516   -0.3487    0.4661 C   0  0  1  0  0  0  0  0  0  0  0  0
    0.6748   -0.8534    1.1111 H   0  0  0  0  0  0  0  0  0  0  0  0
    0.5000   -0.3920   -1.0105 C   0  0  1  0  0  0  0  0  0  0  0  0
    1.2926   -1.1478   -1.0135 H   0  0  0  0  0  0  0  0  0  0  0  0
   -0.5515   -0.8558   -2.0443 C   0  0  0  0  0  0  0  0  0  0  0  0
   -1.4136   -0.1807   -2.0469 H   0  0  0  0  0  0  0  0  0  0  0  0
   -0.1253   -0.8725   -3.0521 H   0  0  0  0  0  0  0  0  0  0  0  0
   -0.8945   -1.8711   -1.8234 H   0  0  0  0  0  0  0  0  0  0  0  0
    1.1124    0.9098   -1.5926 C   0  0  0  0  0  0  0  0  0  0  0  0
    1.4488    0.7009   -2.6137 H   0  0  0  0  0  0  0  0  0  0  0  0
    0.3462    1.6901   -1.6587 H   0  0  0  0  0  0  0  0  0  0  0  0
    2.3227    1.4556   -0.8269 C   0  0  0  0  0  0  0  0  0  0  0  0
    2.8956    0.6426   -0.3705 H   0  0  0  0  0  0  0  0  0  0  0  0
    2.9796    1.9929   -1.5175 H   0  0  0  0  0  0  0  0  0  0  0  0
    2.0219    2.1637   -0.0551 H   0  0  0  0  0  0  0  0  0  0  0  0
   -0.2692    1.0642    1.0556 C   0  0  0  0  0  0  0  0  0  0  0  0
   -1.2831    1.6984    0.7792 O   0  0  0  0  0  0  0  0  0  0  0  0
    0.6360    1.6072    1.9498 N   0  0  0  0  0  0  0  0  0  0  0  0
    1.4470    1.0473    2.1959 H   0  0  0  0  0  0  0  0  0  0  0  0
    0.4576    2.9089    2.5811 C   0  0  0  0  0  0  0  0  0  0  0  0
   -0.4426    2.9116    3.2045 H   0  0  0  0  0  0  0  0  0  0  0  0
    1.3185    3.1431    3.2146 H   0  0  0  0  0  0  0  0  0  0  0  0
    0.3639    3.6935    1.8229 H   0  0  0  0  0  0  0  0  0  0  0  0
  1  2  1  0  0  0  0
  2  3  1  0  0  0  0
  2  4  1  0  0  0  0
  2  5  1  0  0  0  0
  5  6  2  0  0  0  0
  5  7  1  0  0  0  0
  7  8  1  0  0  0  0
  7  9  1  0  0  0  0
  9 10  1  0  0  0  0
  9 11  1  0  0  0  0
  9 24  1  0  0  0  0
 11 12  1  0  0  0  0
 11 13  1  0  0  0  0
 11 17  1  0  0  0  0
 13 14  1  0  0  0  0
 13 15  1  0  0  0  0
 13 16  1  0  0  0  0
 17 18  1  0  0  0  0
 17 19  1  0  0  0  0
 17 20  1  0  0  0  0
 20 21  1  0  0  0  0
 20 22  1  0  0  0  0
 20 23  1  0  0  0  0
 24 25  2  0  0  0  0
 24 26  1  0  0  0  0
 26 27  1  0  0  0  0
 26 28  1  0  0  0  0
 28 29  1  0  0  0  0
 28 30  1  0  0  0  0
 28 31  1  0  0  0  0
M  END
$$$$

  -OEChem-03222214053D

 31 30  0     1  0  0  0  0  0999 V2000
   -2.9373   -3.8545    1.5905 H   0  0  0  0  0  0  0  0  0  0  0  0
   -2.9662   -2.8385    1.1872 C   0  0  0  0  0  0  0  0  0  0  0  0
   -3.5269   -2.2021    1.8762 H   0  0  0  0  0  0  0  0  0  0  0  0
   -3.4773   -2.8569    0.2216 H   0  0  0  0  0  0  0  0  0  0  0  0
   -1.5573   -2.3027    1.0160 C   0  0  0  0  0  0  0  0  0  0  0  0
   -0.5976   -3.0047    1.2932 O   0  0  0  0  0  0  0  0  0  0  0  0
   -1.3657   -1.0184    0.5536 N   0  0  0  0  0  0  0  0  0  0  0  0
   -2.1900   -0.4313    0.4308 H   0  0  0  0  0  0  0  0  0  0  0  0
   -0.0563   -0.3511    0.4450 C   0  0  1  0  0  0  0  0  0  0  0  0
    0.6700   -0.8484    1.0959 H   0  0  0  0  0  0  0  0  0  0  0  0
    0.5097   -0.4017   -1.0260 C   0  0  1  0  0  0  0  0  0  0  0  0
    1.2988   -1.1612   -1.0382 H   0  0  0  0  0  0  0  0  0  0  0  0
   -0.5473   -0.8507   -2.0596 C   0  0  0  0  0  0  0  0  0  0  0  0
   -1.3975   -0.1610   -2.0652 H   0  0  0  0  0  0  0  0  0  0  0  0
   -0.1193   -0.8788   -3.0665 H   0  0  0  0  0  0  0  0  0  0  0  0
   -0.9081   -1.8593   -1.8360 H   0  0  0  0  0  0  0  0  0  0  0  0
    1.1099    0.9223   -1.5686 C   0  0  0  0  0  0  0  0  0  0  0  0
    1.2442    0.8489   -2.6527 H   0  0  0  0  0  0  0  0  0  0  0  0
    0.4274    1.7600   -1.3956 H   0  0  0  0  0  0  0  0  0  0  0  0
    2.4874    1.2260   -0.9700 C   0  0  0  0  0  0  0  0  0  0  0  0
    3.1998    0.4437   -1.2494 H   0  0  0  0  0  0  0  0  0  0  0  0
    2.8565    2.1819   -1.3544 H   0  0  0  0  0  0  0  0  0  0  0  0
    2.4554    1.2839    0.1181 H   0  0  0  0  0  0  0  0  0  0  0  0
   -0.2648    1.0710    1.0199 C   0  0  0  0  0  0  0  0  0  0  0  0
   -1.2875    1.6964    0.7556 O   0  0  0  0  0  0  0  0  0  0  0  0
    0.6475    1.6276    1.8975 N   0  0  0  0  0  0  0  0  0  0  0  0
    1.4672    1.0768    2.1352 H   0  0  0  0  0  0  0  0  0  0  0  0
    0.4862    2.9479    2.4937 C   0  0  0  0  0  0  0  0  0  0  0  0
   -0.4494    3.0018    3.0601 H   0  0  0  0  0  0  0  0  0  0  0  0
    1.3149    3.1578    3.1767 H   0  0  0  0  0  0  0  0  0  0  0  0
    0.4735    3.7195    1.7167 H   0  0  0  0  0  0  0  0  0  0  0  0
  1  2  1  0  0  0  0
  2  3  1  0  0  0  0
  2  4  1  0  0  0  0
  2  5  1  0  0  0  0
  5  6  2  0  0  0  0
  5  7  1  0  0  0  0
  7  8  1  0  0  0  0
  7  9  1  0  0  0  0
  9 10  1  0  0  0  0
  9 11  1  0  0  0  0
  9 24  1  0  0  0  0
 11 12  1  0  0  0  0
 11 13  1  0  0  0  0
 11 17  1  0  0  0  0
 13 14  1  0  0  0  0
 13 15  1  0  0  0  0
 13 16  1  0  0  0  0
 17 18  1  0  0  0  0
 17 19  1  0  0  0  0
 17 20  1  0  0  0  0
 20 21  1  0  0  0  0
 20 22  1  0  0  0  0
 20 23  1  0  0  0  0
 24 25  2  0  0  0  0
 24 26  1  0  0  0  0
 26 27  1  0  0  0  0
 26 28  1  0  0  0  0
 28 29  1  0  0  0  0
 28 30  1  0  0  0  0
 28 31  1  0  0  0  0
M  END
$$$$

  -OEChem-03222214053D

 31 30  0     1  0  0  0  0  0999 V2000
   -2.9208   -3.8761    1.5711 H   0  0  0  0  0  0  0  0  0  0  0  0
   -2.9690   -2.8536    1.1861 C   0  0  0  0  0  0  0  0  0  0  0  0
   -3.5211   -2.2350    1.8978 H   0  0  0  0  0  0  0  0  0  0  0  0
   -3.5001   -2.8611    0.2312 H   0  0  0  0  0  0  0  0  0  0  0  0
   -1.5695   -2.3000    0.9950 C   0  0  0  0  0  0  0  0  0  0  0  0
   -0.5976   -2.9954    1.2459 O   0  0  0  0  0  0  0  0  0  0  0  0
   -1.4007   -1.0076    0.5446 N   0  0  0  0  0  0  0  0  0  0  0  0
   -2.2344   -0.4305    0.4415 H   0  0  0  0  0  0  0  0  0  0  0  0
   -0.1020   -0.3218    0.4216 C   0  0  1  0  0  0  0  0  0  0  0  0
    0.6175   -0.8203    1.0791 H   0  0  0  0  0  0  0  0  0  0  0  0
    0.5066   -0.3910   -1.0291 C   0  0  1  0  0  0  0  0  0  0  0  0
    1.3079   -1.1375   -1.0094 H   0  0  0  0  0  0  0  0  0  0  0  0
   -0.5208   -0.8883   -2.0694 C   0  0  0  0  0  0  0  0  0  0  0  0
   -1.3805   -0.2118   -2.1151 H   0  0  0  0  0  0  0  0  0  0  0  0
   -0.0694   -0.9435   -3.0648 H   0  0  0  0  0  0  0  0  0  0  0  0
   -0.8721   -1.8943   -1.8211 H   0  0  0  0  0  0  0  0  0  0  0  0
    1.0870    0.9465   -1.5732 C   0  0  0  0  0  0  0  0  0  0  0  0
    1.0355    0.9535   -2.6668 H   0  0  0  0  0  0  0  0  0  0  0  0
    0.5168    1.8191   -1.2459 H   0  0  0  0  0  0  0  0  0  0  0  0
    2.5658    1.0922   -1.2091 C   0  0  0  0  0  0  0  0  0  0  0  0
    3.1500    0.2691   -1.6326 H   0  0  0  0  0  0  0  0  0  0  0  0
    2.9575    2.0338   -1.6058 H   0  0  0  0  0  0  0  0  0  0  0  0
    2.6973    1.0923   -0.1233 H   0  0  0  0  0  0  0  0  0  0  0  0
   -0.2695    1.0989    1.0051 C   0  0  0  0  0  0  0  0  0  0  0  0
   -1.2969    1.7345    0.7909 O   0  0  0  0  0  0  0  0  0  0  0  0
    0.6843    1.6276    1.8556 N   0  0  0  0  0  0  0  0  0  0  0  0
    1.5052    1.0623    2.0517 H   0  0  0  0  0  0  0  0  0  0  0  0
    0.5581    2.9348    2.4876 C   0  0  0  0  0  0  0  0  0  0  0  0
   -0.3448    2.9759    3.1058 H   0  0  0  0  0  0  0  0  0  0  0  0
    1.4237    3.1310    3.1275 H   0  0  0  0  0  0  0  0  0  0  0  0
    0.5027    3.7225    1.7290 H   0  0  0  0  0  0  0  0  0  0  0  0
  1  2  1  0  0  0  0
  2  3  1  0  0  0  0
  2  4  1  0  0  0  0
  2  5  1  0  0  0  0
  5  6  2  0  0  0  0
  5  7  1  0  0  0  0
  7  8  1  0  0  0  0
  7  9  1  0  0  0  0
  9 10  1  0  0  0  0
  9 11  1  0  0  0  0
  9 24  1  0  0  0  0
 11 12  1  0  0  0  0
 11 13  1  0  0  0  0
 11 17  1  0  0  0  0
 13 14  1  0  0  0  0
 13 15  1  0  0  0  0
 13 16  1  0  0  0  0
 17 18  1  0  0  0  0
 17 19  1  0  0  0  0
 17 20  1  0  0  0  0
 20 21  1  0  0  0  0
 20 22  1  0  0  0  0
 20 23  1  0  0  0  0
 24 25  2  0  0  0  0
 24 26  1  0  0  0  0
 26 27  1  0  0  0  0
 26 28  1  0  0  0  0
 28 29  1  0  0  0  0
 28 30  1  0  0  0  0
 28 31  1  0  0  0  0
M  END
$$$$

  -OEChem-03222214053D

 31 30  0     1  0  0  0  0  0999 V2000
   -2.9172   -3.8760    1.5462 H   0  0  0  0  0  0  0  0  0  0  0  0
   -2.9671   -2.8482    1.1760 C   0  0  0  0  0  0  0  0  0  0  0  0
   -3.5170   -2.2398    1.8982 H   0  0  0  0  0  0  0  0  0  0  0  0
   -3.5015   -2.8423    0.2229 H   0  0  0  0  0  0  0  0  0  0  0  0
   -1.5686   -2.2914    0.9882 C   0  0  0  0  0  0  0  0  0  0  0  0
   -0.5953   -2.9874    1.2315 O   0  0  0  0  0  0  0  0  0  0  0  0
   -1.4024   -0.9955    0.5475 N   0  0  0  0  0  0  0  0  0  0  0  0
   -2.2375   -0.4199    0.4468 H   0  0  0  0  0  0  0  0  0  0  0  0
   -0.1055   -0.3067    0.4250 C   0  0  1  0  0  0  0  0  0  0  0  0
    0.6152   -0.8077    1.0794 H   0  0  0  0  0  0  0  0  0  0  0  0
    0.5015   -0.3732   -1.0275 C   0  0  1  0  0  0  0  0  0  0  0  0
    1.3061   -1.1160   -0.9921 H   0  0  0  0  0  0  0  0  0  0  0  0
   -0.5117   -0.9031   -2.0658 C   0  0  0  0  0  0  0  0  0  0  0  0
   -1.3840   -0.2441   -2.1262 H   0  0  0  0  0  0  0  0  0  0  0  0
   -0.0515   -0.9625   -3.0572 H   0  0  0  0  0  0  0  0  0  0  0  0
   -0.8454   -1.9122   -1.8057 H   0  0  0  0  0  0  0  0  0  0  0  0
    1.0864    0.9598   -1.5936 C   0  0  0  0  0  0  0  0  0  0  0  0
    0.7835    1.0896   -2.6378 H   0  0  0  0  0  0  0  0  0  0  0  0
    0.7265    1.8500   -1.0764 H   0  0  0  0  0  0  0  0  0  0  0  0
    2.6150    0.9351   -1.5695 C   0  0  0  0  0  0  0  0  0  0  0  0
    2.9961    0.1093   -2.1784 H   0  0  0  0  0  0  0  0  0  0  0  0
    3.0119    1.8726   -1.9707 H   0  0  0  0  0  0  0  0  0  0  0  0
    2.9787    0.8148   -0.5444 H   0  0  0  0  0  0  0  0  0  0  0  0
   -0.2757    1.1076    1.0206 C   0  0  0  0  0  0  0  0  0  0  0  0
   -1.3023    1.7455    0.8095 O   0  0  0  0  0  0  0  0  0  0  0  0
    0.6810    1.6295    1.8720 N   0  0  0  0  0  0  0  0  0  0  0  0
    1.5017    1.0619    2.0626 H   0  0  0  0  0  0  0  0  0  0  0  0
    0.5552    2.9303    2.5176 C   0  0  0  0  0  0  0  0  0  0  0  0
   -0.3361    2.9579    3.1531 H   0  0  0  0  0  0  0  0  0  0  0  0
    1.4314    3.1284    3.1425 H   0  0  0  0  0  0  0  0  0  0  0  0
    0.4788    3.7248    1.7679 H   0  0  0  0  0  0  0  0  0  0  0  0
  1  2  1  0  0  0  0
  2  3  1  0  0  0  0
  2  4  1  0  0  0  0
  2  5  1  0  0  0  0
  5  6  2  0  0  0  0
  5  7  1  0  0  0  0
  7  8  1  0  0  0  0
  7  9  1  0  0  0  0
  9 10  1  0  0  0  0
  9 11  1  0  0  0  0
  9 24  1  0  0  0  0
 11 12  1  0  0  0  0
 11 13  1  0  0  0  0
 11 17  1  0  0  0  0
 13 14  1  0  0  0  0
 13 15  1  0  0  0  0
 13 16  1  0  0  0  0
 17 18  1  0  0  0  0
 17 19  1  0  0  0  0
 17 20  1  0  0  0  0
 20 21  1  0  0  0  0
 20 22  1  0  0  0  0
 20 23  1  0  0  0  0
 24 25  2  0  0  0  0
 24 26  1  0  0  0  0
 26 27  1  0  0  0  0
 26 28  1  0  0  0  0
 28 29  1  0  0  0  0
 28 30  1  0  0  0  0
 28 31  1  0  0  0  0
M  END
$$$$

  -OEChem-03222214053D

 31 30  0     1  0  0  0  0  0999 V2000
   -2.9169   -3.8647    1.5447 H   0  0  0  0  0  0  0  0  0  0  0  0
   -2.9613   -2.8393    1.1673 C   0  0  0  0  0  0  0  0  0  0  0  0
   -3.5162   -2.2252    1.8807 H   0  0  0  0  0  0  0  0  0  0  0  0
   -3.4870   -2.8384    0.2095 H   0  0  0  0  0  0  0  0  0  0  0  0
   -1.5600   -2.2867    0.9883 C   0  0  0  0  0  0  0  0  0  0  0  0
   -0.5903   -2.9854    1.2380 O   0  0  0  0  0  0  0  0  0  0  0  0
   -1.3868   -0.9912    0.5497 N   0  0  0  0  0  0  0  0  0  0  0  0
   -2.2190   -0.4125    0.4427 H   0  0  0  0  0  0  0  0  0  0  0  0
   -0.0864   -0.3080    0.4356 C   0  0  1  0  0  0  0  0  0  0  0  0
    0.6386   -0.8121    1.0829 H   0  0  0  0  0  0  0  0  0  0  0  0
    0.4969   -0.3597   -1.0267 C   0  0  1  0  0  0  0  0  0  0  0  0
    1.3022   -1.1013   -0.9872 H   0  0  0  0  0  0  0  0  0  0  0  0
   -0.5106   -0.8924   -2.0677 C   0  0  0  0  0  0  0  0  0  0  0  0
   -1.3955   -0.2494   -2.1136 H   0  0  0  0  0  0  0  0  0  0  0  0
   -0.0525   -0.9234   -3.0614 H   0  0  0  0  0  0  0  0  0  0  0  0
   -0.8238   -1.9115   -1.8213 H   0  0  0  0  0  0  0  0  0  0  0  0
    1.0905    0.9675   -1.5984 C   0  0  0  0  0  0  0  0  0  0  0  0
    0.5438    1.2776   -2.4952 H   0  0  0  0  0  0  0  0  0  0  0  0
    1.0244    1.8042   -0.9030 H   0  0  0  0  0  0  0  0  0  0  0  0
    2.5674    0.7912   -1.9556 C   0  0  0  0  0  0  0  0  0  0  0  0
    2.6895   -0.0009   -2.7012 H   0  0  0  0  0  0  0  0  0  0  0  0
    2.9670    1.7217   -2.3703 H   0  0  0  0  0  0  0  0  0  0  0  0
    3.1487    0.5303   -1.0657 H   0  0  0  0  0  0  0  0  0  0  0  0
   -0.2722    1.1032    1.0355 C   0  0  0  0  0  0  0  0  0  0  0  0
   -1.2930    1.7428    0.8026 O   0  0  0  0  0  0  0  0  0  0  0  0
    0.6717    1.6287    1.8994 N   0  0  0  0  0  0  0  0  0  0  0  0
    1.4885    1.0612    2.1070 H   0  0  0  0  0  0  0  0  0  0  0  0
    0.5346    2.9316    2.5384 C   0  0  0  0  0  0  0  0  0  0  0  0
   -0.3734    2.9656    3.1498 H   0  0  0  0  0  0  0  0  0  0  0  0
    1.3945    3.1277    3.1861 H   0  0  0  0  0  0  0  0  0  0  0  0
    0.4821    3.7240    1.7843 H   0  0  0  0  0  0  0  0  0  0  0  0
  1  2  1  0  0  0  0
  2  3  1  0  0  0  0
  2  4  1  0  0  0  0
  2  5  1  0  0  0  0
  5  6  2  0  0  0  0
  5  7  1  0  0  0  0
  7  8  1  0  0  0  0
  7  9  1  0  0  0  0
  9 10  1  0  0  0  0
  9 11  1  0  0  0  0
  9 24  1  0  0  0  0
 11 12  1  0  0  0  0
 11 13  1  0  0  0  0
 11 17  1  0  0  0  0
 13 14  1  0  0  0  0
 13 15  1  0  0  0  0
 13 16  1  0  0  0  0
 17 18  1  0  0  0  0
 17 19  1  0  0  0  0
 17 20  1  0  0  0  0
 20 21  1  0  0  0  0
 20 22  1  0  0  0  0
 20 23  1  0  0  0  0
 24 25  2  0  0  0  0
 24 26  1  0  0  0  0
 26 27  1  0  0  0  0
 26 28  1  0  0  0  0
 28 29  1  0  0  0  0
 28 30  1  0  0  0  0
 28 31  1  0  0  0  0
M  END
$$$$

  -OEChem-03222214053D

 31 30  0     1  0  0  0  0  0999 V2000
   -2.9277   -3.8546    1.5524 H   0  0  0  0  0  0  0  0  0  0  0  0
   -2.9637   -2.8307    1.1696 C   0  0  0  0  0  0  0  0  0  0  0  0
   -3.5178   -2.2092    1.8774 H   0  0  0  0  0  0  0  0  0  0  0  0
   -3.4851   -2.8312    0.2093 H   0  0  0  0  0  0  0  0  0  0  0  0
   -1.5581   -2.2877    0.9944 C   0  0  0  0  0  0  0  0  0  0  0  0
   -0.5938   -2.9888    1.2576 O   0  0  0  0  0  0  0  0  0  0  0  0
   -1.3750   -0.9969    0.5463 N   0  0  0  0  0  0  0  0  0  0  0  0
   -2.2034   -0.4151    0.4278 H   0  0  0  0  0  0  0  0  0  0  0  0
   -0.0702   -0.3215    0.4365 C   0  0  1  0  0  0  0  0  0  0  0  0
    0.6561   -0.8256    1.0824 H   0  0  0  0  0  0  0  0  0  0  0  0
    0.4985   -0.3651   -1.0300 C   0  0  1  0  0  0  0  0  0  0  0  0
    1.3060   -1.1046   -0.9958 H   0  0  0  0  0  0  0  0  0  0  0  0
   -0.5132   -0.8780   -2.0758 C   0  0  0  0  0  0  0  0  0  0  0  0
   -1.4010   -0.2378   -2.1009 H   0  0  0  0  0  0  0  0  0  0  0  0
   -0.0632   -0.8832   -3.0734 H   0  0  0  0  0  0  0  0  0  0  0  0
   -0.8211   -1.9031   -1.8482 H   0  0  0  0  0  0  0  0  0  0  0  0
    1.0940    0.9649   -1.5801 C   0  0  0  0  0  0  0  0  0  0  0  0
    0.3856    1.4537   -2.2578 H   0  0  0  0  0  0  0  0  0  0  0  0
    1.3146    1.6768   -0.7834 H   0  0  0  0  0  0  0  0  0  0  0  0
    2.4254    0.7169   -2.2930 C   0  0  0  0  0  0  0  0  0  0  0  0
    2.2914    0.0222   -3.1279 H   0  0  0  0  0  0  0  0  0  0  0  0
    2.8203    1.6583   -2.6867 H   0  0  0  0  0  0  0  0  0  0  0  0
    3.1606    0.2959   -1.6000 H   0  0  0  0  0  0  0  0  0  0  0  0
   -0.2608    1.0949    1.0250 C   0  0  0  0  0  0  0  0  0  0  0  0
   -1.2758    1.7368    0.7731 O   0  0  0  0  0  0  0  0  0  0  0  0
    0.6751    1.6255    1.8943 N   0  0  0  0  0  0  0  0  0  0  0  0
    1.4841    1.0542    2.1213 H   0  0  0  0  0  0  0  0  0  0  0  0
    0.5297    2.9293    2.5295 C   0  0  0  0  0  0  0  0  0  0  0  0
   -0.3803    2.9605    3.1377 H   0  0  0  0  0  0  0  0  0  0  0  0
    1.3864    3.1309    3.1795 H   0  0  0  0  0  0  0  0  0  0  0  0
    0.4760    3.7198    1.7736 H   0  0  0  0  0  0  0  0  0  0  0  0
  1  2  1  0  0  0  0
  2  3  1  0  0  0  0
  2  4  1  0  0  0  0
  2  5  1  0  0  0  0
  5  6  2  0  0  0  0
  5  7  1  0  0  0  0
  7  8  1  0  0  0  0
  7  9  1  0  0  0  0
  9 10  1  0  0  0  0
  9 11  1  0  0  0  0
  9 24  1  0  0  0  0
 11 12  1  0  0  0  0
 11 13  1  0  0  0  0
 11 17  1  0  0  0  0
 13 14  1  0  0  0  0
 13 15  1  0  0  0  0
 13 16  1  0  0  0  0
 17 18  1  0  0  0  0
 17 19  1  0  0  0  0
 17 20  1  0  0  0  0
 20 21  1  0  0  0  0
 20 22  1  0  0  0  0
 20 23  1  0  0  0  0
 24 25  2  0  0  0  0
 24 26  1  0  0  0  0
 26 27  1  0  0  0  0
 26 28  1  0  0  0  0
 28 29  1  0  0  0  0
 28 30  1  0  0  0  0
 28 31  1  0  0  0  0
M  END
$$$$

  -OEChem-03222214053D

 31 30  0     1  0  0  0  0  0999 V2000
   -2.9406   -3.8483    1.5869 H   0  0  0  0  0  0  0  0  0  0  0  0
   -2.9718   -2.8328    1.1823 C   0  0  0  0  0  0  0  0  0  0  0  0
   -3.5292   -2.1955    1.8731 H   0  0  0  0  0  0  0  0  0  0  0  0
   -3.4868   -2.8526    0.2188 H   0  0  0  0  0  0  0  0  0  0  0  0
   -1.5639   -2.2967    1.0047 C   0  0  0  0  0  0  0  0  0  0  0  0
   -0.6029   -2.9985    1.2783 O   0  0  0  0  0  0  0  0  0  0  0  0
   -1.3749   -1.0114    0.5437 N   0  0  0  0  0  0  0  0  0  0  0  0
   -2.2004   -0.4270    0.4173 H   0  0  0  0  0  0  0  0  0  0  0  0
   -0.0666   -0.3442    0.4285 C   0  0  1  0  0  0  0  0  0  0  0  0
    0.6588   -0.8472    1.0761 H   0  0  0  0  0  0  0  0  0  0  0  0
    0.5012   -0.3884   -1.0375 C   0  0  1  0  0  0  0  0  0  0  0  0
    1.3099   -1.1268   -1.0182 H   0  0  0  0  0  0  0  0  0  0  0  0
   -0.5297   -0.8766   -2.0785 C   0  0  0  0  0  0  0  0  0  0  0  0
   -1.4072   -0.2221   -2.0878 H   0  0  0  0  0  0  0  0  0  0  0  0
   -0.0985   -0.8852   -3.0830 H   0  0  0  0  0  0  0  0  0  0  0  0
   -0.8518   -1.8979   -1.8537 H   0  0  0  0  0  0  0  0  0  0  0  0
    1.0931    0.9541   -1.5475 C   0  0  0  0  0  0  0  0  0  0  0  0
    0.3046    1.5811   -1.9778 H   0  0  0  0  0  0  0  0  0  0  0  0
    1.5462    1.5114   -0.7241 H   0  0  0  0  0  0  0  0  0  0  0  0
    2.2192    0.7368   -2.5637 C   0  0  0  0  0  0  0  0  0  0  0  0
    1.8482    0.2329   -3.4605 H   0  0  0  0  0  0  0  0  0  0  0  0
    2.6413    1.7010   -2.8633 H   0  0  0  0  0  0  0  0  0  0  0  0
    3.0193    0.1312   -2.1269 H   0  0  0  0  0  0  0  0  0  0  0  0
   -0.2501    1.0798    1.0029 C   0  0  0  0  0  0  0  0  0  0  0  0
   -1.2610    1.7246    0.7426 O   0  0  0  0  0  0  0  0  0  0  0  0
    0.6870    1.6153    1.8682 N   0  0  0  0  0  0  0  0  0  0  0  0
    1.4922    1.0423    2.1042 H   0  0  0  0  0  0  0  0  0  0  0  0
    0.5488    2.9288    2.4847 C   0  0  0  0  0  0  0  0  0  0  0  0
   -0.3773    2.9842    3.0664 H   0  0  0  0  0  0  0  0  0  0  0  0
    1.3903    3.1215    3.1569 H   0  0  0  0  0  0  0  0  0  0  0  0
    0.5313    3.7110    1.7185 H   0  0  0  0  0  0  0  0  0  0  0  0
  1  2  1  0  0  0  0
  2  3  1  0  0  0  0
  2  4  1  0  0  0  0
  2  5  1  0  0  0  0
  5  6  2  0  0  0  0
  5  7  1  0  0  0  0
  7  8  1  0  0  0  0
  7  9  1  0  0  0  0
  9 10  1  0  0  0  0
  9 11  1  0  0  0  0
  9 24  1  0  0  0  0
 11 12  1  0  0  0  0
 11 13  1  0  0  0  0
 11 17  1  0  0  0  0
 13 14  1  0  0  0  0
 13 15  1  0  0  0  0
 13 16  1  0  0  0  0
 17 18  1  0  0  0  0
 17 19  1  0  0  0  0
 17 20  1  0  0  0  0
 20 21  1  0  0  0  0
 20 22  1  0  0  0  0
 20 23  1  0  0  0  0
 24 25  2  0  0  0  0
 24 26  1  0  0  0  0
 26 27  1  0  0  0  0
 26 28  1  0  0  0  0
 28 29  1  0  0  0  0
 28 30  1  0  0  0  0
 28 31  1  0  0  0  0
M  END
$$$$

  -OEChem-03222214053D

 31 30  0     1  0  0  0  0  0999 V2000
   -2.9515   -3.8521    1.6067 H   0  0  0  0  0  0  0  0  0  0  0  0
   -2.9844   -2.8390    1.1962 C   0  0  0  0  0  0  0  0  0  0  0  0
   -3.5391   -2.1976    1.8854 H   0  0  0  0  0  0  0  0  0  0  0  0
   -3.5034   -2.8645    0.2349 H   0  0  0  0  0  0  0  0  0  0  0  0
   -1.5770   -2.3043    1.0099 C   0  0  0  0  0  0  0  0  0  0  0  0
   -0.6153   -3.0056    1.2822 O   0  0  0  0  0  0  0  0  0  0  0  0
   -1.3889   -1.0207    0.5431 N   0  0  0  0  0  0  0  0  0  0  0  0
   -2.2146   -0.4367    0.4175 H   0  0  0  0  0  0  0  0  0  0  0  0
   -0.0809   -0.3544    0.4179 C   0  0  1  0  0  0  0  0  0  0  0  0
    0.6422   -0.8563    1.0691 H   0  0  0  0  0  0  0  0  0  0  0  0
    0.4981   -0.4088   -1.0440 C   0  0  1  0  0  0  0  0  0  0  0  0
    1.3160   -1.1372   -1.0256 H   0  0  0  0  0  0  0  0  0  0  0  0
   -0.5323   -0.9111   -2.0806 C   0  0  0  0  0  0  0  0  0  0  0  0
   -1.3903   -0.2329   -2.1283 H   0  0  0  0  0  0  0  0  0  0  0  0
   -0.0912   -0.9807   -3.0775 H   0  0  0  0  0  0  0  0  0  0  0  0
   -0.8862   -1.9133   -1.8212 H   0  0  0  0  0  0  0  0  0  0  0  0
    1.0795    0.9474   -1.5255 C   0  0  0  0  0  0  0  0  0  0  0  0
    0.2683    1.6575   -1.7199 H   0  0  0  0  0  0  0  0  0  0  0  0
    1.7142    1.3675   -0.7394 H   0  0  0  0  0  0  0  0  0  0  0  0
    1.9582    0.8252   -2.7754 C   0  0  0  0  0  0  0  0  0  0  0  0
    1.3639    0.5662   -3.6556 H   0  0  0  0  0  0  0  0  0  0  0  0
    2.4533    1.7807   -2.9739 H   0  0  0  0  0  0  0  0  0  0  0  0
    2.7283    0.0612   -2.6308 H   0  0  0  0  0  0  0  0  0  0  0  0
   -0.2486    1.0747    0.9854 C   0  0  0  0  0  0  0  0  0  0  0  0
   -1.2609    1.7220    0.7371 O   0  0  0  0  0  0  0  0  0  0  0  0
    0.7003    1.6076    1.8392 N   0  0  0  0  0  0  0  0  0  0  0  0
    1.5082    1.0337    2.0628 H   0  0  0  0  0  0  0  0  0  0  0  0
    0.5816    2.9280    2.4450 C   0  0  0  0  0  0  0  0  0  0  0  0
   -0.3351    2.9966    3.0402 H   0  0  0  0  0  0  0  0  0  0  0  0
    1.4350    3.1202    3.1024 H   0  0  0  0  0  0  0  0  0  0  0  0
    0.5589    3.7028    1.6715 H   0  0  0  0  0  0  0  0  0  0  0  0
  1  2  1  0  0  0  0
  2  3  1  0  0  0  0
  2  4  1  0  0  0  0
  2  5  1  0  0  0  0
  5  6  2  0  0  0  0
  5  7  1  0  0  0  0
  7  8  1  0  0  0  0
  7  9  1  0  0  0  0
  9 10  1  0  0  0  0
  9 11  1  0  0  0  0
  9 24  1  0  0  0  0
 11 12  1  0  0  0  0
 11 13  1  0  0  0  0
 11 17  1  0  0  0  0
 13 14  1  0  0  0  0
 13 15  1  0  0  0  0
 13 16  1  0  0  0  0
 17 18  1  0  0  0  0
 17 19  1  0  0  0  0
 17 20  1  0  0  0  0
 20 21  1  0  0  0  0
 20 22  1  0  0  0  0
 20 23  1  0  0  0  0
 24 25  2  0  0  0  0
 24 26  1  0  0  0  0
 26 27  1  0  0  0  0
 26 28  1  0  0  0  0
 28 29  1  0  0  0  0
 28 30  1  0  0  0  0
 28 31  1  0  0  0  0
M  END
$$$$

  -OEChem-03222214053D

 31 30  0     1  0  0  0  0  0999 V2000
   -2.9515   -3.8603    1.6023 H   0  0  0  0  0  0  0  0  0  0  0  0
   -2.9836   -2.8477    1.1903 C   0  0  0  0  0  0  0  0  0  0  0  0
   -3.5434   -2.2061    1.8753 H   0  0  0  0  0  0  0  0  0  0  0  0
   -3.4969   -2.8756    0.2261 H   0  0  0  0  0  0  0  0  0  0  0  0
   -1.5759   -2.3109    1.0120 C   0  0  0  0  0  0  0  0  0  0  0  0
   -0.6150   -3.0081    1.2973 O   0  0  0  0  0  0  0  0  0  0  0  0
   -1.3867   -1.0307    0.5370 N   0  0  0  0  0  0  0  0  0  0  0  0
   -2.2124   -0.4492    0.4002 H   0  0  0  0  0  0  0  0  0  0  0  0
   -0.0786   -0.3656    0.4130 C   0  0  1  0  0  0  0  0  0  0  0  0
    0.6451   -0.8631    1.0664 H   0  0  0  0  0  0  0  0  0  0  0  0
    0.4991   -0.4302   -1.0451 C   0  0  1  0  0  0  0  0  0  0  0  0
    1.1104   -1.3363   -1.1164 H   0  0  0  0  0  0  0  0  0  0  0  0
   -0.6229   -0.5501   -2.1035 C   0  0  0  0  0  0  0  0  0  0  0  0
   -1.2730    0.3302   -2.0728 H   0  0  0  0  0  0  0  0  0  0  0  0
   -0.2109   -0.6467   -3.1108 H   0  0  0  0  0  0  0  0  0  0  0  0
   -1.2302   -1.4438   -1.9342 H   0  0  0  0  0  0  0  0  0  0  0  0
    1.3983    0.7948   -1.3741 C   0  0  0  0  0  0  0  0  0  0  0  0
    0.8283    1.7244   -1.2761 H   0  0  0  0  0  0  0  0  0  0  0  0
    2.2207    0.8251   -0.6521 H   0  0  0  0  0  0  0  0  0  0  0  0
    1.9951    0.7845   -2.7857 C   0  0  0  0  0  0  0  0  0  0  0  0
    1.2292    0.9813   -3.5412 H   0  0  0  0  0  0  0  0  0  0  0  0
    2.7564    1.5660   -2.8703 H   0  0  0  0  0  0  0  0  0  0  0  0
    2.4652   -0.1809   -2.9968 H   0  0  0  0  0  0  0  0  0  0  0  0
   -0.2421    1.0678    0.9679 C   0  0  0  0  0  0  0  0  0  0  0  0
   -1.2485    1.7189    0.7063 O   0  0  0  0  0  0  0  0  0  0  0  0
    0.7062    1.6040    1.8200 N   0  0  0  0  0  0  0  0  0  0  0  0
    1.5082    1.0264    2.0553 H   0  0  0  0  0  0  0  0  0  0  0  0
    0.5928    2.9311    2.4122 C   0  0  0  0  0  0  0  0  0  0  0  0
   -0.3230    3.0087    3.0075 H   0  0  0  0  0  0  0  0  0  0  0  0
    1.4474    3.1274    3.0668 H   0  0  0  0  0  0  0  0  0  0  0  0
    0.5718    3.6983    1.6311 H   0  0  0  0  0  0  0  0  0  0  0  0
  1  2  1  0  0  0  0
  2  3  1  0  0  0  0
  2  4  1  0  0  0  0
  2  5  1  0  0  0  0
  5  6  2  0  0  0  0
  5  7  1  0  0  0  0
  7  8  1  0  0  0  0
  7  9  1  0  0  0  0
  9 10  1  0  0  0  0
  9 11  1  0  0  0  0
  9 24  1  0  0  0  0
 11 12  1  0  0  0  0
 11 13  1  0  0  0  0
 11 17  1  0  0  0  0
 13 14  1  0  0  0  0
 13 15  1  0  0  0  0
 13 16  1  0  0  0  0
 17 18  1  0  0  0  0
 17 19  1  0  0  0  0
 17 20  1  0  0  0  0
 20 21  1  0  0  0  0
 20 22  1  0  0  0  0
 20 23  1  0  0  0  0
 24 25  2  0  0  0  0
 24 26  1  0  0  0  0
 26 27  1  0  0  0  0
 26 28  1  0  0  0  0
 28 29  1  0  0  0  0
 28 30  1  0  0  0  0
 28 31  1  0  0  0  0
M  END
$$$$

  -OEChem-03222214053D

 31 30  0     1  0  0  0  0  0999 V2000
   -2.9517   -3.8534    1.6021 H   0  0  0  0  0  0  0  0  0  0  0  0
   -2.9854   -2.8385    1.1963 C   0  0  0  0  0  0  0  0  0  0  0  0
   -3.5360   -2.1997    1.8911 H   0  0  0  0  0  0  0  0  0  0  0  0
   -3.5091   -2.8590    0.2376 H   0  0  0  0  0  0  0  0  0  0  0  0
   -1.5786   -2.3046    1.0045 C   0  0  0  0  0  0  0  0  0  0  0  0
   -0.6159   -3.0079    1.2678 O   0  0  0  0  0  0  0  0  0  0  0  0
   -1.3929   -1.0199    0.5405 N   0  0  0  0  0  0  0  0  0  0  0  0
   -2.2191   -0.4351    0.4217 H   0  0  0  0  0  0  0  0  0  0  0  0
   -0.0857   -0.3547    0.4095 C   0  0  1  0  0  0  0  0  0  0  0  0
    0.6384   -0.8549    1.0604 H   0  0  0  0  0  0  0  0  0  0  0  0
    0.4973   -0.4244   -1.0507 C   0  0  1  0  0  0  0  0  0  0  0  0
    1.1121   -1.3284   -1.1172 H   0  0  0  0  0  0  0  0  0  0  0  0
   -0.6326   -0.5798   -2.0996 C   0  0  0  0  0  0  0  0  0  0  0  0
   -1.2861    0.2985   -2.0906 H   0  0  0  0  0  0  0  0  0  0  0  0
   -0.2271   -0.7076   -3.1064 H   0  0  0  0  0  0  0  0  0  0  0  0
   -1.2355   -1.4710   -1.9045 H   0  0  0  0  0  0  0  0  0  0  0  0
    1.4027    0.7982   -1.4043 C   0  0  0  0  0  0  0  0  0  0  0  0
    0.9294    1.7338   -1.0965 H   0  0  0  0  0  0  0  0  0  0  0  0
    2.3422    0.7023   -0.8505 H   0  0  0  0  0  0  0  0  0  0  0  0
    1.7172    0.9844   -2.8934 C   0  0  0  0  0  0  0  0  0  0  0  0
    0.8245    1.2808   -3.4525 H   0  0  0  0  0  0  0  0  0  0  0  0
    2.4663    1.7723   -3.0173 H   0  0  0  0  0  0  0  0  0  0  0  0
    2.1169    0.0589   -3.3194 H   0  0  0  0  0  0  0  0  0  0  0  0
   -0.2510    1.0710    0.9823 C   0  0  0  0  0  0  0  0  0  0  0  0
   -1.2620    1.7212    0.7366 O   0  0  0  0  0  0  0  0  0  0  0  0
    0.7027    1.6007    1.8325 N   0  0  0  0  0  0  0  0  0  0  0  0
    1.5097    1.0241    2.0526 H   0  0  0  0  0  0  0  0  0  0  0  0
    0.5896    2.9199    2.4418 C   0  0  0  0  0  0  0  0  0  0  0  0
   -0.3214    2.9878    3.0458 H   0  0  0  0  0  0  0  0  0  0  0  0
    1.4489    3.1110    3.0916 H   0  0  0  0  0  0  0  0  0  0  0  0
    0.5598    3.6959    1.6699 H   0  0  0  0  0  0  0  0  0  0  0  0
  1  2  1  0  0  0  0
  2  3  1  0  0  0  0
  2  4  1  0  0  0  0
  2  5  1  0  0  0  0
  5  6  2  0  0  0  0
  5  7  1  0  0  0  0
  7  8  1  0  0  0  0
  7  9  1  0  0  0  0
  9 10  1  0  0  0  0
  9 11  1  0  0  0  0
  9 24  1  0  0  0  0
 11 12  1  0  0  0  0
 11 13  1  0  0  0  0
 11 17  1  0  0  0  0
 13 14  1  0  0  0  0
 13 15  1  0  0  0  0
 13 16  1  0  0  0  0
 17 18  1  0  0  0  0
 17 19  1  0  0  0  0
 17 20  1  0  0  0  0
 20 21  1  0  0  0  0
 20 22  1  0  0  0  0
 20 23  1  0  0  0  0
 24 25  2  0  0  0  0
 24 26  1  0  0  0  0
 26 27  1  0  0  0  0
 26 28  1  0  0  0  0
 28 29  1  0  0  0  0
 28 30  1  0  0  0  0
 28 31  1  0  0  0  0
M  END
$$$$

  -OEChem-03222214053D

 31 30  0     1  0  0  0  0  0999 V2000
   -2.9534   -3.8442    1.6053 H   0  0  0  0  0  0  0  0  0  0  0  0
   -2.9864   -2.8289    1.2004 C   0  0  0  0  0  0  0  0  0  0  0  0
   -3.5326   -2.1890    1.8976 H   0  0  0  0  0  0  0  0  0  0  0  0
   -3.5138   -2.8476    0.2437 H   0  0  0  0  0  0  0  0  0  0  0  0
   -1.5788   -2.2985    1.0048 C   0  0  0  0  0  0  0  0  0  0  0  0
   -0.6172   -3.0056    1.2623 O   0  0  0  0  0  0  0  0  0  0  0  0
   -1.3901   -1.0124    0.5464 N   0  0  0  0  0  0  0  0  0  0  0  0
   -2.2141   -0.4231    0.4334 H   0  0  0  0  0  0  0  0  0  0  0  0
   -0.0800   -0.3526    0.4123 C   0  0  1  0  0  0  0  0  0  0  0  0
    0.6470   -0.8558    1.0579 H   0  0  0  0  0  0  0  0  0  0  0  0
    0.4930   -0.4169   -1.0559 C   0  0  1  0  0  0  0  0  0  0  0  0
    1.1063   -1.3217   -1.1234 H   0  0  0  0  0  0  0  0  0  0  0  0
   -0.6499   -0.6000   -2.0882 C   0  0  0  0  0  0  0  0  0  0  0  0
   -1.3273    0.2597   -2.0663 H   0  0  0  0  0  0  0  0  0  0  0  0
   -0.2584   -0.7168   -3.1017 H   0  0  0  0  0  0  0  0  0  0  0  0
   -1.2254   -1.5076   -1.8853 H   0  0  0  0  0  0  0  0  0  0  0  0
    1.4118    0.7963   -1.4387 C   0  0  0  0  0  0  0  0  0  0  0  0
    1.1165    1.7039   -0.9114 H   0  0  0  0  0  0  0  0  0  0  0  0
    2.4320    0.5593   -1.1204 H   0  0  0  0  0  0  0  0  0  0  0  0
    1.4384    1.2090   -2.9160 C   0  0  0  0  0  0  0  0  0  0  0  0
    0.4596    1.5750   -3.2408 H   0  0  0  0  0  0  0  0  0  0  0  0
    2.1636    2.0156   -3.0602 H   0  0  0  0  0  0  0  0  0  0  0  0
    1.7368    0.3664   -3.5473 H   0  0  0  0  0  0  0  0  0  0  0  0
   -0.2561    1.0669    0.9977 C   0  0  0  0  0  0  0  0  0  0  0  0
   -1.2673    1.7166    0.7509 O   0  0  0  0  0  0  0  0  0  0  0  0
    0.6941    1.5958    1.8524 N   0  0  0  0  0  0  0  0  0  0  0  0
    1.5040    1.0221    2.0694 H   0  0  0  0  0  0  0  0  0  0  0  0
    0.5759    2.9129    2.4653 C   0  0  0  0  0  0  0  0  0  0  0  0
   -0.3407    2.9786    3.0610 H   0  0  0  0  0  0  0  0  0  0  0  0
    1.4295    3.1011    3.1237 H   0  0  0  0  0  0  0  0  0  0  0  0
    0.5534    3.6920    1.6960 H   0  0  0  0  0  0  0  0  0  0  0  0
  1  2  1  0  0  0  0
  2  3  1  0  0  0  0
  2  4  1  0  0  0  0
  2  5  1  0  0  0  0
  5  6  2  0  0  0  0
  5  7  1  0  0  0  0
  7  8  1  0  0  0  0
  7  9  1  0  0  0  0
  9 10  1  0  0  0  0
  9 11  1  0  0  0  0
  9 24  1  0  0  0  0
 11 12  1  0  0  0  0
 11 13  1  0  0  0  0
 11 17  1  0  0  0  0
 13 14  1  0  0  0  0
 13 15  1  0  0  0  0
 13 16  1  0  0  0  0
 17 18  1  0  0  0  0
 17 19  1  0  0  0  0
 17 20  1  0  0  0  0
 20 21  1  0  0  0  0
 20 22  1  0  0  0  0
 20 23  1  0  0  0  0
 24 25  2  0  0  0  0
 24 26  1  0  0  0  0
 26 27  1  0  0  0  0
 26 28  1  0  0  0  0
 28 29  1  0  0  0  0
 28 30  1  0  0  0  0
 28 31  1  0  0  0  0
M  END
$$$$

  -OEChem-03222214053D

 31 30  0     1  0  0  0  0  0999 V2000
   -2.9599   -3.8337    1.6132 H   0  0  0  0  0  0  0  0  0  0  0  0
   -2.9878   -2.8188    1.2066 C   0  0  0  0  0  0  0  0  0  0  0  0
   -3.5302   -2.1751    1.9033 H   0  0  0  0  0  0  0  0  0  0  0  0
   -3.5162   -2.8364    0.2502 H   0  0  0  0  0  0  0  0  0  0  0  0
   -1.5777   -2.2956    1.0094 C   0  0  0  0  0  0  0  0  0  0  0  0
   -0.6194   -3.0063    1.2689 O   0  0  0  0  0  0  0  0  0  0  0  0
   -1.3823   -1.0110    0.5491 N   0  0  0  0  0  0  0  0  0  0  0  0
   -2.2029   -0.4164    0.4381 H   0  0  0  0  0  0  0  0  0  0  0  0
   -0.0682   -0.3582    0.4163 C   0  0  1  0  0  0  0  0  0  0  0  0
    0.6636   -0.8636    1.0544 H   0  0  0  0  0  0  0  0  0  0  0  0
    0.4827   -0.4111   -1.0610 C   0  0  1  0  0  0  0  0  0  0  0  0
    1.0981   -1.3152   -1.1255 H   0  0  0  0  0  0  0  0  0  0  0  0
   -0.6610   -0.6200   -2.0866 C   0  0  0  0  0  0  0  0  0  0  0  0
   -1.3683    0.2148   -2.0516 H   0  0  0  0  0  0  0  0  0  0  0  0
   -0.2702   -0.7133   -3.1028 H   0  0  0  0  0  0  0  0  0  0  0  0
   -1.2038   -1.5483   -1.8870 H   0  0  0  0  0  0  0  0  0  0  0  0
    1.4112    0.7932   -1.4598 C   0  0  0  0  0  0  0  0  0  0  0  0
    1.3700    1.6013   -0.7314 H   0  0  0  0  0  0  0  0  0  0  0  0
    2.4427    0.4267   -1.4439 H   0  0  0  0  0  0  0  0  0  0  0  0
    1.1711    1.4535   -2.8243 C   0  0  0  0  0  0  0  0  0  0  0  0
    0.1575    1.8608   -2.8888 H   0  0  0  0  0  0  0  0  0  0  0  0
    1.8758    2.2792   -2.9622 H   0  0  0  0  0  0  0  0  0  0  0  0
    1.3279    0.7396   -3.6382 H   0  0  0  0  0  0  0  0  0  0  0  0
   -0.2542    1.0606    1.0030 C   0  0  0  0  0  0  0  0  0  0  0  0
   -1.2633    1.7096    0.7456 O   0  0  0  0  0  0  0  0  0  0  0  0
    0.6880    1.5940    1.8645 N   0  0  0  0  0  0  0  0  0  0  0  0
    1.4954    1.0213    2.0929 H   0  0  0  0  0  0  0  0  0  0  0  0
    0.5609    2.9116    2.4747 C   0  0  0  0  0  0  0  0  0  0  0  0
   -0.3587    2.9742    3.0661 H   0  0  0  0  0  0  0  0  0  0  0  0
    1.4102    3.1053    3.1370 H   0  0  0  0  0  0  0  0  0  0  0  0
    0.5387    3.6891    1.7039 H   0  0  0  0  0  0  0  0  0  0  0  0
  1  2  1  0  0  0  0
  2  3  1  0  0  0  0
  2  4  1  0  0  0  0
  2  5  1  0  0  0  0
  5  6  2  0  0  0  0
  5  7  1  0  0  0  0
  7  8  1  0  0  0  0
  7  9  1  0  0  0  0
  9 10  1  0  0  0  0
  9 11  1  0  0  0  0
  9 24  1  0  0  0  0
 11 12  1  0  0  0  0
 11 13  1  0  0  0  0
 11 17  1  0  0  0  0
 13 14  1  0  0  0  0
 13 15  1  0  0  0  0
 13 16  1  0  0  0  0
 17 18  1  0  0  0  0
 17 19  1  0  0  0  0
 17 20  1  0  0  0  0
 20 21  1  0  0  0  0
 20 22  1  0  0  0  0
 20 23  1  0  0  0  0
 24 25  2  0  0  0  0
 24 26  1  0  0  0  0
 26 27  1  0  0  0  0
 26 28  1  0  0  0  0
 28 29  1  0  0  0  0
 28 30  1  0  0  0  0
 28 31  1  0  0  0  0
M  END
$$$$

  -OEChem-03222214053D

 31 30  0     1  0  0  0  0  0999 V2000
   -2.9690   -3.8335    1.6089 H   0  0  0  0  0  0  0  0  0  0  0  0
   -2.9904   -2.8171    1.2062 C   0  0  0  0  0  0  0  0  0  0  0  0
   -3.5354   -2.1741    1.9015 H   0  0  0  0  0  0  0  0  0  0  0  0
   -3.5120   -2.8295    0.2464 H   0  0  0  0  0  0  0  0  0  0  0  0
   -1.5774   -2.2978    1.0201 C   0  0  0  0  0  0  0  0  0  0  0  0
   -0.6229   -3.0080    1.2942 O   0  0  0  0  0  0  0  0  0  0  0  0
   -1.3751   -1.0180    0.5501 N   0  0  0  0  0  0  0  0  0  0  0  0
   -2.1937   -0.4241    0.4228 H   0  0  0  0  0  0  0  0  0  0  0  0
   -0.0588   -0.3693    0.4206 C   0  0  1  0  0  0  0  0  0  0  0  0
    0.6767   -0.8745    1.0549 H   0  0  0  0  0  0  0  0  0  0  0  0
    0.4698   -0.4097   -1.0608 C   0  0  1  0  0  0  0  0  0  0  0  0
    1.0940   -1.3080   -1.1186 H   0  0  0  0  0  0  0  0  0  0  0  0
   -0.6603   -0.6350   -2.0939 C   0  0  0  0  0  0  0  0  0  0  0  0
   -1.3935    0.1767   -2.0530 H   0  0  0  0  0  0  0  0  0  0  0  0
   -0.2545   -0.6991   -3.1070 H   0  0  0  0  0  0  0  0  0  0  0  0
   -1.1763   -1.5814   -1.9074 H   0  0  0  0  0  0  0  0  0  0  0  0
    1.3977    0.7928   -1.4509 C   0  0  0  0  0  0  0  0  0  0  0  0
    1.6255    1.4299   -0.5963 H   0  0  0  0  0  0  0  0  0  0  0  0
    2.3580    0.3648   -1.7564 H   0  0  0  0  0  0  0  0  0  0  0  0
    0.9349    1.6927   -2.6050 C   0  0  0  0  0  0  0  0  0  0  0  0
   -0.0491    2.1206   -2.3891 H   0  0  0  0  0  0  0  0  0  0  0  0
    1.6428    2.5169   -2.7349 H   0  0  0  0  0  0  0  0  0  0  0  0
    0.8896    1.1411   -3.5481 H   0  0  0  0  0  0  0  0  0  0  0  0
   -0.2455    1.0559    0.9937 C   0  0  0  0  0  0  0  0  0  0  0  0
   -1.2512    1.7049    0.7224 O   0  0  0  0  0  0  0  0  0  0  0  0
    0.6907    1.5965    1.8573 N   0  0  0  0  0  0  0  0  0  0  0  0
    1.4922    1.0224    2.1027 H   0  0  0  0  0  0  0  0  0  0  0  0
    0.5579    2.9185    2.4569 C   0  0  0  0  0  0  0  0  0  0  0  0
   -0.3582    2.9786    3.0539 H   0  0  0  0  0  0  0  0  0  0  0  0
    1.4108    3.1247    3.1107 H   0  0  0  0  0  0  0  0  0  0  0  0
    0.5235    3.6895    1.6799 H   0  0  0  0  0  0  0  0  0  0  0  0
  1  2  1  0  0  0  0
  2  3  1  0  0  0  0
  2  4  1  0  0  0  0
  2  5  1  0  0  0  0
  5  6  2  0  0  0  0
  5  7  1  0  0  0  0
  7  8  1  0  0  0  0
  7  9  1  0  0  0  0
  9 10  1  0  0  0  0
  9 11  1  0  0  0  0
  9 24  1  0  0  0  0
 11 12  1  0  0  0  0
 11 13  1  0  0  0  0
 11 17  1  0  0  0  0
 13 14  1  0  0  0  0
 13 15  1  0  0  0  0
 13 16  1  0  0  0  0
 17 18  1  0  0  0  0
 17 19  1  0  0  0  0
 17 20  1  0  0  0  0
 20 21  1  0  0  0  0
 20 22  1  0  0  0  0
 20 23  1  0  0  0  0
 24 25  2  0  0  0  0
 24 26  1  0  0  0  0
 26 27  1  0  0  0  0
 26 28  1  0  0  0  0
 28 29  1  0  0  0  0
 28 30  1  0  0  0  0
 28 31  1  0  0  0  0
M  END
$$$$

  -OEChem-03222214053D

 31 30  0     1  0  0  0  0  0999 V2000
   -2.9663   -3.8369    1.6136 H   0  0  0  0  0  0  0  0  0  0  0  0
   -2.9907   -2.8226    1.2057 C   0  0  0  0  0  0  0  0  0  0  0  0
   -3.5384   -2.1777    1.8971 H   0  0  0  0  0  0  0  0  0  0  0  0
   -3.5110   -2.8410    0.2452 H   0  0  0  0  0  0  0  0  0  0  0  0
   -1.5787   -2.3006    1.0186 C   0  0  0  0  0  0  0  0  0  0  0  0
   -0.6229   -3.0096    1.2917 O   0  0  0  0  0  0  0  0  0  0  0  0
   -1.3789   -1.0219    0.5447 N   0  0  0  0  0  0  0  0  0  0  0  0
   -2.1980   -0.4277    0.4220 H   0  0  0  0  0  0  0  0  0  0  0  0
   -0.0645   -0.3699    0.4204 C   0  0  1  0  0  0  0  0  0  0  0  0
    0.6698   -0.8735    1.0573 H   0  0  0  0  0  0  0  0  0  0  0  0
    0.4633   -0.4120   -1.0565 C   0  0  1  0  0  0  0  0  0  0  0  0
    1.0947   -1.3058   -1.1076 H   0  0  0  0  0  0  0  0  0  0  0  0
   -0.6502   -0.6322   -2.1050 C   0  0  0  0  0  0  0  0  0  0  0  0
   -1.4040    0.1593   -2.0478 H   0  0  0  0  0  0  0  0  0  0  0  0
   -0.2276   -0.6486   -3.1140 H   0  0  0  0  0  0  0  0  0  0  0  0
   -1.1444   -1.5959   -1.9496 H   0  0  0  0  0  0  0  0  0  0  0  0
    1.3826    0.7922   -1.4317 C   0  0  0  0  0  0  0  0  0  0  0  0
    1.8145    1.2525   -0.5405 H   0  0  0  0  0  0  0  0  0  0  0  0
    2.2300    0.3854   -1.9935 H   0  0  0  0  0  0  0  0  0  0  0  0
    0.7601    1.8799   -2.3184 C   0  0  0  0  0  0  0  0  0  0  0  0
   -0.1492    2.2778   -1.8572 H   0  0  0  0  0  0  0  0  0  0  0  0
    1.4688    2.7041   -2.4433 H   0  0  0  0  0  0  0  0  0  0  0  0
    0.5160    1.4951   -3.3125 H   0  0  0  0  0  0  0  0  0  0  0  0
   -0.2425    1.0605    0.9835 C   0  0  0  0  0  0  0  0  0  0  0  0
   -1.2551    1.7042    0.7257 O   0  0  0  0  0  0  0  0  0  0  0  0
    0.6954    1.6011    1.8450 N   0  0  0  0  0  0  0  0  0  0  0  0
    1.5006    1.0295    2.0833 H   0  0  0  0  0  0  0  0  0  0  0  0
    0.5667    2.9244    2.4421 C   0  0  0  0  0  0  0  0  0  0  0  0
   -0.3476    2.9877    3.0415 H   0  0  0  0  0  0  0  0  0  0  0  0
    1.4215    3.1299    3.0934 H   0  0  0  0  0  0  0  0  0  0  0  0
    0.5323    3.6938    1.6635 H   0  0  0  0  0  0  0  0  0  0  0  0
  1  2  1  0  0  0  0
  2  3  1  0  0  0  0
  2  4  1  0  0  0  0
  2  5  1  0  0  0  0
  5  6  2  0  0  0  0
  5  7  1  0  0  0  0
  7  8  1  0  0  0  0
  7  9  1  0  0  0  0
  9 10  1  0  0  0  0
  9 11  1  0  0  0  0
  9 24  1  0  0  0  0
 11 12  1  0  0  0  0
 11 13  1  0  0  0  0
 11 17  1  0  0  0  0
 13 14  1  0  0  0  0
 13 15  1  0  0  0  0
 13 16  1  0  0  0  0
 17 18  1  0  0  0  0
 17 19  1  0  0  0  0
 17 20  1  0  0  0  0
 20 21  1  0  0  0  0
 20 22  1  0  0  0  0
 20 23  1  0  0  0  0
 24 25  2  0  0  0  0
 24 26  1  0  0  0  0
 26 27  1  0  0  0  0
 26 28  1  0  0  0  0
 28 29  1  0  0  0  0
 28 30  1  0  0  0  0
 28 31  1  0  0  0  0
M  END
$$$$

  -OEChem-03222214053D

 31 30  0     1  0  0  0  0  0999 V2000
   -2.9534   -3.8468    1.5948 H   0  0  0  0  0  0  0  0  0  0  0  0
   -2.9884   -2.8237    1.2103 C   0  0  0  0  0  0  0  0  0  0  0  0
   -3.5237   -2.1960    1.9269 H   0  0  0  0  0  0  0  0  0  0  0  0
   -3.5282   -2.8224    0.2603 H   0  0  0  0  0  0  0  0  0  0  0  0
   -1.5820   -2.2929    1.0060 C   0  0  0  0  0  0  0  0  0  0  0  0
   -0.6186   -3.0000    1.2565 O   0  0  0  0  0  0  0  0  0  0  0  0
   -1.3968   -1.0078    0.5430 N   0  0  0  0  0  0  0  0  0  0  0  0
   -2.2216   -0.4162    0.4488 H   0  0  0  0  0  0  0  0  0  0  0  0
   -0.0894   -0.3412    0.4176 C   0  0  1  0  0  0  0  0  0  0  0  0
    0.6381   -0.8437    1.0636 H   0  0  0  0  0  0  0  0  0  0  0  0
    0.4687   -0.4065   -1.0457 C   0  0  1  0  0  0  0  0  0  0  0  0
    1.1040   -1.2983   -1.0766 H   0  0  0  0  0  0  0  0  0  0  0  0
   -0.6298   -0.6266   -2.1070 C   0  0  0  0  0  0  0  0  0  0  0  0
   -1.4000    0.1485   -2.0395 H   0  0  0  0  0  0  0  0  0  0  0  0
   -0.1983   -0.6077   -3.1125 H   0  0  0  0  0  0  0  0  0  0  0  0
   -1.1056   -1.6030   -1.9731 H   0  0  0  0  0  0  0  0  0  0  0  0
    1.3756    0.7927   -1.4460 C   0  0  0  0  0  0  0  0  0  0  0  0
    1.9575    1.1201   -0.5796 H   0  0  0  0  0  0  0  0  0  0  0  0
    2.0990    0.4285   -2.1828 H   0  0  0  0  0  0  0  0  0  0  0  0
    0.6738    2.0084   -2.0731 C   0  0  0  0  0  0  0  0  0  0  0  0
   -0.1195    2.3909   -1.4273 H   0  0  0  0  0  0  0  0  0  0  0  0
    1.4006    2.8109   -2.2309 H   0  0  0  0  0  0  0  0  0  0  0  0
    0.2394    1.7538   -3.0441 H   0  0  0  0  0  0  0  0  0  0  0  0
   -0.2501    1.0863    0.9883 C   0  0  0  0  0  0  0  0  0  0  0  0
   -1.2920    1.7093    0.8068 O   0  0  0  0  0  0  0  0  0  0  0  0
    0.7040    1.6139    1.8396 N   0  0  0  0  0  0  0  0  0  0  0  0
    1.5202    1.0446    2.0430 H   0  0  0  0  0  0  0  0  0  0  0  0
    0.5637    2.9077    2.4958 C   0  0  0  0  0  0  0  0  0  0  0  0
   -0.3153    2.9124    3.1491 H   0  0  0  0  0  0  0  0  0  0  0  0
    1.4478    3.1219    3.1039 H   0  0  0  0  0  0  0  0  0  0  0  0
    0.4549    3.7044    1.7523 H   0  0  0  0  0  0  0  0  0  0  0  0
  1  2  1  0  0  0  0
  2  3  1  0  0  0  0
  2  4  1  0  0  0  0
  2  5  1  0  0  0  0
  5  6  2  0  0  0  0
  5  7  1  0  0  0  0
  7  8  1  0  0  0  0
  7  9  1  0  0  0  0
  9 10  1  0  0  0  0
  9 11  1  0  0  0  0
  9 24  1  0  0  0  0
 11 12  1  0  0  0  0
 11 13  1  0  0  0  0
 11 17  1  0  0  0  0
 13 14  1  0  0  0  0
 13 15  1  0  0  0  0
 13 16  1  0  0  0  0
 17 18  1  0  0  0  0
 17 19  1  0  0  0  0
 17 20  1  0  0  0  0
 20 21  1  0  0  0  0
 20 22  1  0  0  0  0
 20 23  1  0  0  0  0
 24 25  2  0  0  0  0
 24 26  1  0  0  0  0
 26 27  1  0  0  0  0
 26 28  1  0  0  0  0
 28 29  1  0  0  0  0
 28 30  1  0  0  0  0
 28 31  1  0  0  0  0
M  END
$$$$

  -OEChem-03222214053D

 31 30  0     1  0  0  0  0  0999 V2000
   -2.9296   -3.8725    1.5852 H   0  0  0  0  0  0  0  0  0  0  0  0
   -2.9786   -2.8489    1.2037 C   0  0  0  0  0  0  0  0  0  0  0  0
   -3.5154   -2.2292    1.9260 H   0  0  0  0  0  0  0  0  0  0  0  0
   -3.5258   -2.8509    0.2579 H   0  0  0  0  0  0  0  0  0  0  0  0
   -1.5797   -2.3021    0.9905 C   0  0  0  0  0  0  0  0  0  0  0  0
   -0.6070   -3.0058    1.2135 O   0  0  0  0  0  0  0  0  0  0  0  0
   -1.4119   -1.0067    0.5501 N   0  0  0  0  0  0  0  0  0  0  0  0
   -2.2431   -0.4204    0.4822 H   0  0  0  0  0  0  0  0  0  0  0  0
   -0.1129   -0.3222    0.4314 C   0  0  1  0  0  0  0  0  0  0  0  0
    0.6114   -0.8245    1.0812 H   0  0  0  0  0  0  0  0  0  0  0  0
    0.4709   -0.3938   -1.0220 C   0  0  1  0  0  0  0  0  0  0  0  0
    1.1018   -1.2890   -1.0461 H   0  0  0  0  0  0  0  0  0  0  0  0
   -0.6254   -0.6035   -2.0872 C   0  0  0  0  0  0  0  0  0  0  0  0
   -1.4055    0.1593   -1.9994 H   0  0  0  0  0  0  0  0  0  0  0  0
   -0.1984   -0.5523   -3.0936 H   0  0  0  0  0  0  0  0  0  0  0  0
   -1.0880   -1.5890   -1.9757 H   0  0  0  0  0  0  0  0  0  0  0  0
    1.3727    0.7919   -1.4719 C   0  0  0  0  0  0  0  0  0  0  0  0
    2.1163    0.9788   -0.6908 H   0  0  0  0  0  0  0  0  0  0  0  0
    1.9238    0.4639   -2.3595 H   0  0  0  0  0  0  0  0  0  0  0  0
    0.6991    2.1299   -1.8287 C   0  0  0  0  0  0  0  0  0  0  0  0
    0.2472    2.6155   -0.9643 H   0  0  0  0  0  0  0  0  0  0  0  0
    1.4518    2.8150   -2.2299 H   0  0  0  0  0  0  0  0  0  0  0  0
   -0.0697    1.9937   -2.5939 H   0  0  0  0  0  0  0  0  0  0  0  0
   -0.2774    1.0919    1.0248 C   0  0  0  0  0  0  0  0  0  0  0  0
   -1.3318    1.7026    0.8747 O   0  0  0  0  0  0  0  0  0  0  0  0
    0.6804    1.6102    1.8775 N   0  0  0  0  0  0  0  0  0  0  0  0
    1.5126    1.0526    2.0464 H   0  0  0  0  0  0  0  0  0  0  0  0
    0.5376    2.8914    2.5580 C   0  0  0  0  0  0  0  0  0  0  0  0
   -0.3485    2.8868    3.2017 H   0  0  0  0  0  0  0  0  0  0  0  0
    1.4155    3.0895    3.1805 H   0  0  0  0  0  0  0  0  0  0  0  0
    0.4401    3.7032    1.8293 H   0  0  0  0  0  0  0  0  0  0  0  0
  1  2  1  0  0  0  0
  2  3  1  0  0  0  0
  2  4  1  0  0  0  0
  2  5  1  0  0  0  0
  5  6  2  0  0  0  0
  5  7  1  0  0  0  0
  7  8  1  0  0  0  0
  7  9  1  0  0  0  0
  9 10  1  0  0  0  0
  9 11  1  0  0  0  0
  9 24  1  0  0  0  0
 11 12  1  0  0  0  0
 11 13  1  0  0  0  0
 11 17  1  0  0  0  0
 13 14  1  0  0  0  0
 13 15  1  0  0  0  0
 13 16  1  0  0  0  0
 17 18  1  0  0  0  0
 17 19  1  0  0  0  0
 17 20  1  0  0  0  0
 20 21  1  0  0  0  0
 20 22  1  0  0  0  0
 20 23  1  0  0  0  0
 24 25  2  0  0  0  0
 24 26  1  0  0  0  0
 26 27  1  0  0  0  0
 26 28  1  0  0  0  0
 28 29  1  0  0  0  0
 28 30  1  0  0  0  0
 28 31  1  0  0  0  0
M  END
$$$$

  -OEChem-03222214053D

 31 30  0     1  0  0  0  0  0999 V2000
   -2.9242   -3.8908    1.5329 H   0  0  0  0  0  0  0  0  0  0  0  0
   -2.9723   -2.8596    1.1723 C   0  0  0  0  0  0  0  0  0  0  0  0
   -3.5199   -2.2566    1.9007 H   0  0  0  0  0  0  0  0  0  0  0  0
   -3.5073   -2.8434    0.2198 H   0  0  0  0  0  0  0  0  0  0  0  0
   -1.5730   -2.3043    0.9879 C   0  0  0  0  0  0  0  0  0  0  0  0
   -0.6006   -3.0036    1.2257 O   0  0  0  0  0  0  0  0  0  0  0  0
   -1.4056   -1.0057    0.5578 N   0  0  0  0  0  0  0  0  0  0  0  0
   -2.2392   -0.4256    0.4699 H   0  0  0  0  0  0  0  0  0  0  0  0
   -0.1081   -0.3166    0.4517 C   0  0  1  0  0  0  0  0  0  0  0  0
    0.6152   -0.8178    1.1030 H   0  0  0  0  0  0  0  0  0  0  0  0
    0.4803   -0.3907   -1.0033 C   0  0  1  0  0  0  0  0  0  0  0  0
    1.0949   -1.2969   -1.0368 H   0  0  0  0  0  0  0  0  0  0  0  0
   -0.6312   -0.5743   -2.0623 C   0  0  0  0  0  0  0  0  0  0  0  0
   -1.3956    0.2028   -1.9654 H   0  0  0  0  0  0  0  0  0  0  0  0
   -0.2180   -0.5284   -3.0745 H   0  0  0  0  0  0  0  0  0  0  0  0
   -1.1117   -1.5513   -1.9523 H   0  0  0  0  0  0  0  0  0  0  0  0
    1.3876    0.7769   -1.4949 C   0  0  0  0  0  0  0  0  0  0  0  0
    2.2786    0.8073   -0.8598 H   0  0  0  0  0  0  0  0  0  0  0  0
    1.7336    0.5256   -2.5032 H   0  0  0  0  0  0  0  0  0  0  0  0
    0.8040    2.1985   -1.5489 C   0  0  0  0  0  0  0  0  0  0  0  0
    0.8650    2.6983   -0.5807 H   0  0  0  0  0  0  0  0  0  0  0  0
    1.3809    2.8003   -2.2575 H   0  0  0  0  0  0  0  0  0  0  0  0
   -0.2376    2.1904   -1.8808 H   0  0  0  0  0  0  0  0  0  0  0  0
   -0.2931    1.0892    1.0565 C   0  0  0  0  0  0  0  0  0  0  0  0
   -1.3370    1.7084    0.8727 O   0  0  0  0  0  0  0  0  0  0  0  0
    0.6525    1.6070    1.9236 N   0  0  0  0  0  0  0  0  0  0  0  0
    1.4767    1.0438    2.1121 H   0  0  0  0  0  0  0  0  0  0  0  0
    0.4929    2.8803    2.6151 C   0  0  0  0  0  0  0  0  0  0  0  0
   -0.3872    2.8552    3.2662 H   0  0  0  0  0  0  0  0  0  0  0  0
    1.3729    3.0889    3.2308 H   0  0  0  0  0  0  0  0  0  0  0  0
    0.3747    3.6960    1.8941 H   0  0  0  0  0  0  0  0  0  0  0  0
  1  2  1  0  0  0  0
  2  3  1  0  0  0  0
  2  4  1  0  0  0  0
  2  5  1  0  0  0  0
  5  6  2  0  0  0  0
  5  7  1  0  0  0  0
  7  8  1  0  0  0  0
  7  9  1  0  0  0  0
  9 10  1  0  0  0  0
  9 11  1  0  0  0  0
  9 24  1  0  0  0  0
 11 12  1  0  0  0  0
 11 13  1  0  0  0  0
 11 17  1  0  0  0  0
 13 14  1  0  0  0  0
 13 15  1  0  0  0  0
 13 16  1  0  0  0  0
 17 18  1  0  0  0  0
 17 19  1  0  0  0  0
 17 20  1  0  0  0  0
 20 21  1  0  0  0  0
 20 22  1  0  0  0  0
 20 23  1  0  0  0  0
 24 25  2  0  0  0  0
 24 26  1  0  0  0  0
 26 27  1  0  0  0  0
 26 28  1  0  0  0  0
 28 29  1  0  0  0  0
 28 30  1  0  0  0  0
 28 31  1  0  0  0  0
M  END
$$$$

  -OEChem-03222214053D

 31 30  0     1  0  0  0  0  0999 V2000
   -2.9071   -3.8960    1.5472 H   0  0  0  0  0  0  0  0  0  0  0  0
   -2.9612   -2.8692    1.1750 C   0  0  0  0  0  0  0  0  0  0  0  0
   -3.5094   -2.2611    1.8985 H   0  0  0  0  0  0  0  0  0  0  0  0
   -3.4997   -2.8665    0.2244 H   0  0  0  0  0  0  0  0  0  0  0  0
   -1.5649   -2.3091    0.9802 C   0  0  0  0  0  0  0  0  0  0  0  0
   -0.5887   -3.0084    1.2020 O   0  0  0  0  0  0  0  0  0  0  0  0
   -1.4024   -1.0039    0.5671 N   0  0  0  0  0  0  0  0  0  0  0  0
   -2.2372   -0.4233    0.4947 H   0  0  0  0  0  0  0  0  0  0  0  0
   -0.1058   -0.3100    0.4677 C   0  0  1  0  0  0  0  0  0  0  0  0
    0.6182   -0.8119    1.1176 H   0  0  0  0  0  0  0  0  0  0  0  0
    0.4876   -0.3884   -0.9930 C   0  0  1  0  0  0  0  0  0  0  0  0
    1.0765   -1.3110   -1.0371 H   0  0  0  0  0  0  0  0  0  0  0  0
   -0.6458   -0.5343   -2.0391 C   0  0  0  0  0  0  0  0  0  0  0  0
   -1.3544    0.2961   -1.9571 H   0  0  0  0  0  0  0  0  0  0  0  0
   -0.2469   -0.5477   -3.0579 H   0  0  0  0  0  0  0  0  0  0  0  0
   -1.1871   -1.4753   -1.9034 H   0  0  0  0  0  0  0  0  0  0  0  0
    1.4018    0.7565   -1.5381 C   0  0  0  0  0  0  0  0  0  0  0  0
    2.3867    0.6326   -1.0765 H   0  0  0  0  0  0  0  0  0  0  0  0
    1.5514    0.6058   -2.6121 H   0  0  0  0  0  0  0  0  0  0  0  0
    0.9993    2.2209   -1.3272 C   0  0  0  0  0  0  0  0  0  0  0  0
    1.2814    2.5775   -0.3356 H   0  0  0  0  0  0  0  0  0  0  0  0
    1.5219    2.8499   -2.0542 H   0  0  0  0  0  0  0  0  0  0  0  0
   -0.0763    2.3566   -1.4745 H   0  0  0  0  0  0  0  0  0  0  0  0
   -0.3139    1.0829    1.0967 C   0  0  0  0  0  0  0  0  0  0  0  0
   -1.3624    1.6950    0.9144 O   0  0  0  0  0  0  0  0  0  0  0  0
    0.6212    1.5984    1.9770 N   0  0  0  0  0  0  0  0  0  0  0  0
    1.4533    1.0445    2.1578 H   0  0  0  0  0  0  0  0  0  0  0  0
    0.4412    2.8575    2.6892 C   0  0  0  0  0  0  0  0  0  0  0  0
   -0.4523    2.8163    3.3211 H   0  0  0  0  0  0  0  0  0  0  0  0
    1.3070    3.0581    3.3276 H   0  0  0  0  0  0  0  0  0  0  0  0
    0.3344    3.6860    1.9810 H   0  0  0  0  0  0  0  0  0  0  0  0
  1  2  1  0  0  0  0
  2  3  1  0  0  0  0
  2  4  1  0  0  0  0
  2  5  1  0  0  0  0
  5  6  2  0  0  0  0
  5  7  1  0  0  0  0
  7  8  1  0  0  0  0
  7  9  1  0  0  0  0
  9 10  1  0  0  0  0
  9 11  1  0  0  0  0
  9 24  1  0  0  0  0
 11 12  1  0  0  0  0
 11 13  1  0  0  0  0
 11 17  1  0  0  0  0
 13 14  1  0  0  0  0
 13 15  1  0  0  0  0
 13 16  1  0  0  0  0
 17 18  1  0  0  0  0
 17 19  1  0  0  0  0
 17 20  1  0  0  0  0
 20 21  1  0  0  0  0
 20 22  1  0  0  0  0
 20 23  1  0  0  0  0
 24 25  2  0  0  0  0
 24 26  1  0  0  0  0
 26 27  1  0  0  0  0
 26 28  1  0  0  0  0
 28 29  1  0  0  0  0
 28 30  1  0  0  0  0
 28 31  1  0  0  0  0
M  END
$$$$

  -OEChem-03222214053D

 31 30  0     1  0  0  0  0  0999 V2000
   -2.9091   -3.8945    1.5566 H   0  0  0  0  0  0  0  0  0  0  0  0
   -2.9588   -2.8686    1.1811 C   0  0  0  0  0  0  0  0  0  0  0  0
   -3.5201   -2.2596    1.8938 H   0  0  0  0  0  0  0  0  0  0  0  0
   -3.4819   -2.8692    0.2218 H   0  0  0  0  0  0  0  0  0  0  0  0
   -1.5602   -2.3067    1.0077 C   0  0  0  0  0  0  0  0  0  0  0  0
   -0.5864   -3.0046    1.2438 O   0  0  0  0  0  0  0  0  0  0  0  0
   -1.3926   -1.0035    0.5907 N   0  0  0  0  0  0  0  0  0  0  0  0
   -2.2259   -0.4220    0.5069 H   0  0  0  0  0  0  0  0  0  0  0  0
   -0.0934   -0.3128    0.4957 C   0  0  1  0  0  0  0  0  0  0  0  0
    0.6329   -0.8085    1.1476 H   0  0  0  0  0  0  0  0  0  0  0  0
    0.4914   -0.3973   -0.9746 C   0  0  1  0  0  0  0  0  0  0  0  0
    1.0664   -1.3287   -1.0181 H   0  0  0  0  0  0  0  0  0  0  0  0
   -0.6573   -0.5449   -2.0078 C   0  0  0  0  0  0  0  0  0  0  0  0
   -1.3399    0.3087   -1.9428 H   0  0  0  0  0  0  0  0  0  0  0  0
   -0.2719   -0.6035   -3.0301 H   0  0  0  0  0  0  0  0  0  0  0  0
   -1.2236   -1.4664   -1.8451 H   0  0  0  0  0  0  0  0  0  0  0  0
    1.4158    0.7269   -1.5624 C   0  0  0  0  0  0  0  0  0  0  0  0
    2.4438    0.4399   -1.3187 H   0  0  0  0  0  0  0  0  0  0  0  0
    1.3585    0.7184   -2.6552 H   0  0  0  0  0  0  0  0  0  0  0  0
    1.2722    2.1826   -1.1180 C   0  0  0  0  0  0  0  0  0  0  0  0
    1.8279    2.8281   -1.8050 H   0  0  0  0  0  0  0  0  0  0  0  0
    1.6928    2.3371   -0.1237 H   0  0  0  0  0  0  0  0  0  0  0  0
    0.2244    2.4961   -1.1378 H   0  0  0  0  0  0  0  0  0  0  0  0
   -0.3340    1.0770    1.1253 C   0  0  0  0  0  0  0  0  0  0  0  0
   -1.3819    1.6815    0.9142 O   0  0  0  0  0  0  0  0  0  0  0  0
    0.5770    1.6097    2.0205 N   0  0  0  0  0  0  0  0  0  0  0  0
    1.4146    1.0695    2.2165 H   0  0  0  0  0  0  0  0  0  0  0  0
    0.3796    2.8817    2.7046 C   0  0  0  0  0  0  0  0  0  0  0  0
   -0.5332    2.8549    3.3091 H   0  0  0  0  0  0  0  0  0  0  0  0
    1.2258    3.0904    3.3664 H   0  0  0  0  0  0  0  0  0  0  0  0
    0.2984    3.6981    1.9792 H   0  0  0  0  0  0  0  0  0  0  0  0
  1  2  1  0  0  0  0
  2  3  1  0  0  0  0
  2  4  1  0  0  0  0
  2  5  1  0  0  0  0
  5  6  2  0  0  0  0
  5  7  1  0  0  0  0
  7  8  1  0  0  0  0
  7  9  1  0  0  0  0
  9 10  1  0  0  0  0
  9 11  1  0  0  0  0
  9 24  1  0  0  0  0
 11 12  1  0  0  0  0
 11 13  1  0  0  0  0
 11 17  1  0  0  0  0
 13 14  1  0  0  0  0
 13 15  1  0  0  0  0
 13 16  1  0  0  0  0
 17 18  1  0  0  0  0
 17 19  1  0  0  0  0
 17 20  1  0  0  0  0
 20 21  1  0  0  0  0
 20 22  1  0  0  0  0
 20 23  1  0  0  0  0
 24 25  2  0  0  0  0
 24 26  1  0  0  0  0
 26 27  1  0  0  0  0
 26 28  1  0  0  0  0
 28 29  1  0  0  0  0
 28 30  1  0  0  0  0
 28 31  1  0  0  0  0
M  END
$$$$

  -OEChem-03222214053D

 31 30  0     1  0  0  0  0  0999 V2000
   -2.9404   -3.8893    1.5047 H   0  0  0  0  0  0  0  0  0  0  0  0
   -2.9732   -2.8559    1.1490 C   0  0  0  0  0  0  0  0  0  0  0  0
   -3.5310   -2.2529    1.8696 H   0  0  0  0  0  0  0  0  0  0  0  0
   -3.4893   -2.8307    0.1863 H   0  0  0  0  0  0  0  0  0  0  0  0
   -1.5660   -2.3101    0.9957 C   0  0  0  0  0  0  0  0  0  0  0  0
   -0.6030   -3.0194    1.2418 O   0  0  0  0  0  0  0  0  0  0  0  0
   -1.3792   -1.0068    0.5882 N   0  0  0  0  0  0  0  0  0  0  0  0
   -2.2047   -0.4158    0.4925 H   0  0  0  0  0  0  0  0  0  0  0  0
   -0.0715   -0.3317    0.5062 C   0  0  1  0  0  0  0  0  0  0  0  0
    0.6585   -0.8374    1.1464 H   0  0  0  0  0  0  0  0  0  0  0  0
    0.4861   -0.3835   -0.9778 C   0  0  1  0  0  0  0  0  0  0  0  0
    1.0568   -1.3168   -1.0356 H   0  0  0  0  0  0  0  0  0  0  0  0
   -0.6653   -0.5289   -2.0085 C   0  0  0  0  0  0  0  0  0  0  0  0
   -1.3438    0.3281   -1.9452 H   0  0  0  0  0  0  0  0  0  0  0  0
   -0.2766   -0.5914   -3.0298 H   0  0  0  0  0  0  0  0  0  0  0  0
   -1.2359   -1.4477   -1.8461 H   0  0  0  0  0  0  0  0  0  0  0  0
    1.4236    0.7367   -1.5627 C   0  0  0  0  0  0  0  0  0  0  0  0
    2.4279    0.3029   -1.6087 H   0  0  0  0  0  0  0  0  0  0  0  0
    1.1448    0.9551   -2.5982 H   0  0  0  0  0  0  0  0  0  0  0  0
    1.5830    2.0914   -0.8773 C   0  0  0  0  0  0  0  0  0  0  0  0
    2.0749    1.9804    0.0906 H   0  0  0  0  0  0  0  0  0  0  0  0
    2.2178    2.7366   -1.4923 H   0  0  0  0  0  0  0  0  0  0  0  0
    0.6176    2.5922   -0.7618 H   0  0  0  0  0  0  0  0  0  0  0  0
   -0.3339    1.0496    1.1499 C   0  0  0  0  0  0  0  0  0  0  0  0
   -1.3713    1.6608    0.9064 O   0  0  0  0  0  0  0  0  0  0  0  0
    0.5539    1.5849    2.0668 N   0  0  0  0  0  0  0  0  0  0  0  0
    1.3892    1.0481    2.2817 H   0  0  0  0  0  0  0  0  0  0  0  0
    0.3406    2.8608    2.7386 C   0  0  0  0  0  0  0  0  0  0  0  0
   -0.5824    2.8341    3.3271 H   0  0  0  0  0  0  0  0  0  0  0  0
    1.1744    3.0776    3.4131 H   0  0  0  0  0  0  0  0  0  0  0  0
    0.2688    3.6715    2.0059 H   0  0  0  0  0  0  0  0  0  0  0  0
  1  2  1  0  0  0  0
  2  3  1  0  0  0  0
  2  4  1  0  0  0  0
  2  5  1  0  0  0  0
  5  6  2  0  0  0  0
  5  7  1  0  0  0  0
  7  8  1  0  0  0  0
  7  9  1  0  0  0  0
  9 10  1  0  0  0  0
  9 11  1  0  0  0  0
  9 24  1  0  0  0  0
 11 12  1  0  0  0  0
 11 13  1  0  0  0  0
 11 17  1  0  0  0  0
 13 14  1  0  0  0  0
 13 15  1  0  0  0  0
 13 16  1  0  0  0  0
 17 18  1  0  0  0  0
 17 19  1  0  0  0  0
 17 20  1  0  0  0  0
 20 21  1  0  0  0  0
 20 22  1  0  0  0  0
 20 23  1  0  0  0  0
 24 25  2  0  0  0  0
 24 26  1  0  0  0  0
 26 27  1  0  0  0  0
 26 28  1  0  0  0  0
 28 29  1  0  0  0  0
 28 30  1  0  0  0  0
 28 31  1  0  0  0  0
M  END
$$$$

  -OEChem-03222214053D

 31 30  0     1  0  0  0  0  0999 V2000
   -2.9497   -3.8716    1.5162 H   0  0  0  0  0  0  0  0  0  0  0  0
   -2.9750   -2.8459    1.1378 C   0  0  0  0  0  0  0  0  0  0  0  0
   -3.5439   -2.2266    1.8355 H   0  0  0  0  0  0  0  0  0  0  0  0
   -3.4740   -2.8405    0.1658 H   0  0  0  0  0  0  0  0  0  0  0  0
   -1.5646   -2.3055    0.9978 C   0  0  0  0  0  0  0  0  0  0  0  0
   -0.6071   -3.0158    1.2618 O   0  0  0  0  0  0  0  0  0  0  0  0
   -1.3679   -1.0055    0.5842 N   0  0  0  0  0  0  0  0  0  0  0  0
   -2.1895   -0.4115    0.4738 H   0  0  0  0  0  0  0  0  0  0  0  0
   -0.0555   -0.3384    0.5137 C   0  0  1  0  0  0  0  0  0  0  0  0
    0.6743   -0.8450    1.1533 H   0  0  0  0  0  0  0  0  0  0  0  0
    0.4874   -0.3778   -0.9738 C   0  0  1  0  0  0  0  0  0  0  0  0
    1.0680   -1.3055   -1.0225 H   0  0  0  0  0  0  0  0  0  0  0  0
   -0.6503   -0.5412   -2.0138 C   0  0  0  0  0  0  0  0  0  0  0  0
   -1.3541    0.2947   -1.9447 H   0  0  0  0  0  0  0  0  0  0  0  0
   -0.2463   -0.5737   -3.0308 H   0  0  0  0  0  0  0  0  0  0  0  0
   -1.1950   -1.4784   -1.8664 H   0  0  0  0  0  0  0  0  0  0  0  0
    1.4290    0.7389   -1.5523 C   0  0  0  0  0  0  0  0  0  0  0  0
    2.3408    0.2356   -1.8908 H   0  0  0  0  0  0  0  0  0  0  0  0
    0.9729    1.1810   -2.4444 H   0  0  0  0  0  0  0  0  0  0  0  0
    1.8705    1.9225   -0.6959 C   0  0  0  0  0  0  0  0  0  0  0  0
    2.3555    1.5764    0.2203 H   0  0  0  0  0  0  0  0  0  0  0  0
    2.5988    2.5209   -1.2517 H   0  0  0  0  0  0  0  0  0  0  0  0
    1.0268    2.5758   -0.4584 H   0  0  0  0  0  0  0  0  0  0  0  0
   -0.3281    1.0465    1.1476 C   0  0  0  0  0  0  0  0  0  0  0  0
   -1.3519    1.6652    0.8690 O   0  0  0  0  0  0  0  0  0  0  0  0
    0.5439    1.5890    2.0756 N   0  0  0  0  0  0  0  0  0  0  0  0
    1.3669    1.0461    2.3200 H   0  0  0  0  0  0  0  0  0  0  0  0
    0.3204    2.8699    2.7350 C   0  0  0  0  0  0  0  0  0  0  0  0
   -0.6293    2.8606    3.2803 H   0  0  0  0  0  0  0  0  0  0  0  0
    1.1253    3.0734    3.4477 H   0  0  0  0  0  0  0  0  0  0  0  0
    0.2963    3.6805    1.9992 H   0  0  0  0  0  0  0  0  0  0  0  0
  1  2  1  0  0  0  0
  2  3  1  0  0  0  0
  2  4  1  0  0  0  0
  2  5  1  0  0  0  0
  5  6  2  0  0  0  0
  5  7  1  0  0  0  0
  7  8  1  0  0  0  0
  7  9  1  0  0  0  0
  9 10  1  0  0  0  0
  9 11  1  0  0  0  0
  9 24  1  0  0  0  0
 11 12  1  0  0  0  0
 11 13  1  0  0  0  0
 11 17  1  0  0  0  0
 13 14  1  0  0  0  0
 13 15  1  0  0  0  0
 13 16  1  0  0  0  0
 17 18  1  0  0  0  0
 17 19  1  0  0  0  0
 17 20  1  0  0  0  0
 20 21  1  0  0  0  0
 20 22  1  0  0  0  0
 20 23  1  0  0  0  0
 24 25  2  0  0  0  0
 24 26  1  0  0  0  0
 26 27  1  0  0  0  0
 26 28  1  0  0  0  0
 28 29  1  0  0  0  0
 28 30  1  0  0  0  0
 28 31  1  0  0  0  0
M  END
$$$$

  -OEChem-03222214053D

 31 30  0     1  0  0  0  0  0999 V2000
   -2.9639   -3.8576    1.5209 H   0  0  0  0  0  0  0  0  0  0  0  0
   -2.9814   -2.8353    1.1330 C   0  0  0  0  0  0  0  0  0  0  0  0
   -3.5616   -2.2093    1.8154 H   0  0  0  0  0  0  0  0  0  0  0  0
   -3.4640   -2.8383    0.1527 H   0  0  0  0  0  0  0  0  0  0  0  0
   -1.5681   -2.2978    1.0116 C   0  0  0  0  0  0  0  0  0  0  0  0
   -0.6164   -3.0055    1.3018 O   0  0  0  0  0  0  0  0  0  0  0  0
   -1.3625   -1.0044    0.5825 N   0  0  0  0  0  0  0  0  0  0  0  0
   -2.1812   -0.4118    0.4471 H   0  0  0  0  0  0  0  0  0  0  0  0
   -0.0479   -0.3418    0.5203 C   0  0  1  0  0  0  0  0  0  0  0  0
    0.6782   -0.8456    1.1664 H   0  0  0  0  0  0  0  0  0  0  0  0
    0.4911   -0.3867   -0.9643 C   0  0  1  0  0  0  0  0  0  0  0  0
    1.0788   -1.3105   -1.0023 H   0  0  0  0  0  0  0  0  0  0  0  0
   -0.6319   -0.5515   -2.0165 C   0  0  0  0  0  0  0  0  0  0  0  0
   -1.3535    0.2682   -1.9384 H   0  0  0  0  0  0  0  0  0  0  0  0
   -0.2151   -0.5515   -3.0290 H   0  0  0  0  0  0  0  0  0  0  0  0
   -1.1582   -1.5023   -1.8892 H   0  0  0  0  0  0  0  0  0  0  0  0
    1.4323    0.7278   -1.5294 C   0  0  0  0  0  0  0  0  0  0  0  0
    2.2080    0.2245   -2.1165 H   0  0  0  0  0  0  0  0  0  0  0  0
    0.8698    1.3595   -2.2261 H   0  0  0  0  0  0  0  0  0  0  0  0
    2.1301    1.6906   -0.5717 C   0  0  0  0  0  0  0  0  0  0  0  0
    2.5501    1.1524    0.2828 H   0  0  0  0  0  0  0  0  0  0  0  0
    2.9516    2.1916   -1.0928 H   0  0  0  0  0  0  0  0  0  0  0  0
    1.4436    2.4685   -0.2295 H   0  0  0  0  0  0  0  0  0  0  0  0
   -0.3139    1.0557    1.1293 C   0  0  0  0  0  0  0  0  0  0  0  0
   -1.3239    1.6829    0.8223 O   0  0  0  0  0  0  0  0  0  0  0  0
    0.5533    1.6045    2.0584 N   0  0  0  0  0  0  0  0  0  0  0  0
    1.3670    1.0567    2.3225 H   0  0  0  0  0  0  0  0  0  0  0  0
    0.3394    2.9014    2.6888 C   0  0  0  0  0  0  0  0  0  0  0  0
   -0.6082    2.9094    3.2376 H   0  0  0  0  0  0  0  0  0  0  0  0
    1.1484    3.1173    3.3933 H   0  0  0  0  0  0  0  0  0  0  0  0
    0.3168    3.6948    1.9342 H   0  0  0  0  0  0  0  0  0  0  0  0
  1  2  1  0  0  0  0
  2  3  1  0  0  0  0
  2  4  1  0  0  0  0
  2  5  1  0  0  0  0
  5  6  2  0  0  0  0
  5  7  1  0  0  0  0
  7  8  1  0  0  0  0
  7  9  1  0  0  0  0
  9 10  1  0  0  0  0
  9 11  1  0  0  0  0
  9 24  1  0  0  0  0
 11 12  1  0  0  0  0
 11 13  1  0  0  0  0
 11 17  1  0  0  0  0
 13 14  1  0  0  0  0
 13 15  1  0  0  0  0
 13 16  1  0  0  0  0
 17 18  1  0  0  0  0
 17 19  1  0  0  0  0
 17 20  1  0  0  0  0
 20 21  1  0  0  0  0
 20 22  1  0  0  0  0
 20 23  1  0  0  0  0
 24 25  2  0  0  0  0
 24 26  1  0  0  0  0
 26 27  1  0  0  0  0
 26 28  1  0  0  0  0
 28 29  1  0  0  0  0
 28 30  1  0  0  0  0
 28 31  1  0  0  0  0
M  END
$$$$

  -OEChem-03222214053D

 31 30  0     1  0  0  0  0  0999 V2000
   -2.9750   -3.8323    1.5702 H   0  0  0  0  0  0  0  0  0  0  0  0
   -2.9862   -2.8163    1.1660 C   0  0  0  0  0  0  0  0  0  0  0  0
   -3.5612   -2.1758    1.8391 H   0  0  0  0  0  0  0  0  0  0  0  0
   -3.4698   -2.8314    0.1864 H   0  0  0  0  0  0  0  0  0  0  0  0
   -1.5695   -2.2902    1.0344 C   0  0  0  0  0  0  0  0  0  0  0  0
   -0.6222   -2.9998    1.3341 O   0  0  0  0  0  0  0  0  0  0  0  0
   -1.3558   -1.0047    0.5858 N   0  0  0  0  0  0  0  0  0  0  0  0
   -2.1707   -0.4097    0.4395 H   0  0  0  0  0  0  0  0  0  0  0  0
   -0.0370   -0.3527    0.5107 C   0  0  1  0  0  0  0  0  0  0  0  0
    0.6920   -0.8582    1.1524 H   0  0  0  0  0  0  0  0  0  0  0  0
    0.4804   -0.4015   -0.9768 C   0  0  1  0  0  0  0  0  0  0  0  0
    1.0562   -1.3315   -1.0370 H   0  0  0  0  0  0  0  0  0  0  0  0
   -0.6556   -0.5192   -2.0198 C   0  0  0  0  0  0  0  0  0  0  0  0
   -1.3651    0.3075   -1.9108 H   0  0  0  0  0  0  0  0  0  0  0  0
   -0.2497   -0.4940   -3.0361 H   0  0  0  0  0  0  0  0  0  0  0  0
   -1.1942   -1.4656   -1.9115 H   0  0  0  0  0  0  0  0  0  0  0  0
    1.4181    0.7189   -1.5153 C   0  0  0  0  0  0  0  0  0  0  0  0
    2.0283    0.2787   -2.3111 H   0  0  0  0  0  0  0  0  0  0  0  0
    0.8136    1.5091   -1.9743 H   0  0  0  0  0  0  0  0  0  0  0  0
    2.3601    1.4060   -0.5263 C   0  0  0  0  0  0  0  0  0  0  0  0
    2.6996    0.7070    0.2439 H   0  0  0  0  0  0  0  0  0  0  0  0
    1.8768    2.2686   -0.0632 H   0  0  0  0  0  0  0  0  0  0  0  0
    3.2397    1.7793   -1.0594 H   0  0  0  0  0  0  0  0  0  0  0  0
   -0.2773    1.0590    1.0979 C   0  0  0  0  0  0  0  0  0  0  0  0
   -1.2799    1.6951    0.7854 O   0  0  0  0  0  0  0  0  0  0  0  0
    0.6021    1.6112    2.0128 N   0  0  0  0  0  0  0  0  0  0  0  0
    1.4119    1.0584    2.2784 H   0  0  0  0  0  0  0  0  0  0  0  0
    0.4096    2.9211    2.6235 C   0  0  0  0  0  0  0  0  0  0  0  0
   -0.5369    2.9532    3.1734 H   0  0  0  0  0  0  0  0  0  0  0  0
    1.2230    3.1350    3.3235 H   0  0  0  0  0  0  0  0  0  0  0  0
    0.3990    3.7027    1.8567 H   0  0  0  0  0  0  0  0  0  0  0  0
  1  2  1  0  0  0  0
  2  3  1  0  0  0  0
  2  4  1  0  0  0  0
  2  5  1  0  0  0  0
  5  6  2  0  0  0  0
  5  7  1  0  0  0  0
  7  8  1  0  0  0  0
  7  9  1  0  0  0  0
  9 10  1  0  0  0  0
  9 11  1  0  0  0  0
  9 24  1  0  0  0  0
 11 12  1  0  0  0  0
 11 13  1  0  0  0  0
 11 17  1  0  0  0  0
 13 14  1  0  0  0  0
 13 15  1  0  0  0  0
 13 16  1  0  0  0  0
 17 18  1  0  0  0  0
 17 19  1  0  0  0  0
 17 20  1  0  0  0  0
 20 21  1  0  0  0  0
 20 22  1  0  0  0  0
 20 23  1  0  0  0  0
 24 25  2  0  0  0  0
 24 26  1  0  0  0  0
 26 27  1  0  0  0  0
 26 28  1  0  0  0  0
 28 29  1  0  0  0  0
 28 30  1  0  0  0  0
 28 31  1  0  0  0  0
M  END
$$$$

  -OEChem-03222214053D

 31 30  0     1  0  0  0  0  0999 V2000
   -2.9624   -3.8574    1.5281 H   0  0  0  0  0  0  0  0  0  0  0  0
   -2.9739   -2.8386    1.1306 C   0  0  0  0  0  0  0  0  0  0  0  0
   -3.5521   -2.2034    1.8060 H   0  0  0  0  0  0  0  0  0  0  0  0
   -3.4548   -2.8483    0.1494 H   0  0  0  0  0  0  0  0  0  0  0  0
   -1.5578   -2.3085    1.0069 C   0  0  0  0  0  0  0  0  0  0  0  0
   -0.6105   -3.0120    1.3208 O   0  0  0  0  0  0  0  0  0  0  0  0
   -1.3450   -1.0257    0.5507 N   0  0  0  0  0  0  0  0  0  0  0  0
   -2.1612   -0.4348    0.3956 H   0  0  0  0  0  0  0  0  0  0  0  0
   -0.0295   -0.3661    0.4893 C   0  0  1  0  0  0  0  0  0  0  0  0
    0.6946   -0.8666    1.1405 H   0  0  0  0  0  0  0  0  0  0  0  0
    0.5078   -0.4011   -0.9878 C   0  0  1  0  0  0  0  0  0  0  0  0
    1.0825   -1.3298   -1.0709 H   0  0  0  0  0  0  0  0  0  0  0  0
   -0.6181   -0.4703   -2.0448 C   0  0  0  0  0  0  0  0  0  0  0  0
   -1.3122    0.3678   -1.9233 H   0  0  0  0  0  0  0  0  0  0  0  0
   -0.2023   -0.4288   -3.0565 H   0  0  0  0  0  0  0  0  0  0  0  0
   -1.1766   -1.4077   -1.9634 H   0  0  0  0  0  0  0  0  0  0  0  0
    1.4386    0.7493   -1.4549 C   0  0  0  0  0  0  0  0  0  0  0  0
    1.9061    0.4396   -2.3957 H   0  0  0  0  0  0  0  0  0  0  0  0
    0.8429    1.6438   -1.6680 H   0  0  0  0  0  0  0  0  0  0  0  0
    2.5561    1.1428   -0.4845 C   0  0  0  0  0  0  0  0  0  0  0  0
    2.8503    0.2948    0.1415 H   0  0  0  0  0  0  0  0  0  0  0  0
    3.4334    1.4704   -1.0508 H   0  0  0  0  0  0  0  0  0  0  0  0
    2.2526    1.9785    0.1472 H   0  0  0  0  0  0  0  0  0  0  0  0
   -0.2731    1.0522    1.0587 C   0  0  0  0  0  0  0  0  0  0  0  0
   -1.2725    1.6847    0.7295 O   0  0  0  0  0  0  0  0  0  0  0  0
    0.5954    1.6141    1.9768 N   0  0  0  0  0  0  0  0  0  0  0  0
    1.3978    1.0611    2.2639 H   0  0  0  0  0  0  0  0  0  0  0  0
    0.3989    2.9329    2.5657 C   0  0  0  0  0  0  0  0  0  0  0  0
   -0.5487    2.9713    3.1134 H   0  0  0  0  0  0  0  0  0  0  0  0
    1.2109    3.1598    3.2632 H   0  0  0  0  0  0  0  0  0  0  0  0
    0.3875    3.7020    1.7862 H   0  0  0  0  0  0  0  0  0  0  0  0
  1  2  1  0  0  0  0
  2  3  1  0  0  0  0
  2  4  1  0  0  0  0
  2  5  1  0  0  0  0
  5  6  2  0  0  0  0
  5  7  1  0  0  0  0
  7  8  1  0  0  0  0
  7  9  1  0  0  0  0
  9 10  1  0  0  0  0
  9 11  1  0  0  0  0
  9 24  1  0  0  0  0
 11 12  1  0  0  0  0
 11 13  1  0  0  0  0
 11 17  1  0  0  0  0
 13 14  1  0  0  0  0
 13 15  1  0  0  0  0
 13 16  1  0  0  0  0
 17 18  1  0  0  0  0
 17 19  1  0  0  0  0
 17 20  1  0  0  0  0
 20 21  1  0  0  0  0
 20 22  1  0  0  0  0
 20 23  1  0  0  0  0
 24 25  2  0  0  0  0
 24 26  1  0  0  0  0
 26 27  1  0  0  0  0
 26 28  1  0  0  0  0
 28 29  1  0  0  0  0
 28 30  1  0  0  0  0
 28 31  1  0  0  0  0
M  END
$$$$

  -OEChem-03222214053D

 31 30  0     1  0  0  0  0  0999 V2000
   -2.9612   -3.8387    1.5820 H   0  0  0  0  0  0  0  0  0  0  0  0
   -2.9689   -2.8269    1.1672 C   0  0  0  0  0  0  0  0  0  0  0  0
   -3.5444   -2.1782    1.8319 H   0  0  0  0  0  0  0  0  0  0  0  0
   -3.4506   -2.8517    0.1868 H   0  0  0  0  0  0  0  0  0  0  0  0
   -1.5505   -2.3054    1.0333 C   0  0  0  0  0  0  0  0  0  0  0  0
   -0.6063   -3.0066    1.3617 O   0  0  0  0  0  0  0  0  0  0  0  0
   -1.3325   -1.0332    0.5507 N   0  0  0  0  0  0  0  0  0  0  0  0
   -2.1463   -0.4420    0.3836 H   0  0  0  0  0  0  0  0  0  0  0  0
   -0.0136   -0.3821    0.4710 C   0  0  1  0  0  0  0  0  0  0  0  0
    0.7139   -0.8749    1.1239 H   0  0  0  0  0  0  0  0  0  0  0  0
    0.5182   -0.4154   -1.0072 C   0  0  1  0  0  0  0  0  0  0  0  0
    1.0801   -1.3488   -1.1202 H   0  0  0  0  0  0  0  0  0  0  0  0
   -0.6184   -0.4377   -2.0540 C   0  0  0  0  0  0  0  0  0  0  0  0
   -1.2843    0.4208   -1.9191 H   0  0  0  0  0  0  0  0  0  0  0  0
   -0.2111   -0.4009   -3.0691 H   0  0  0  0  0  0  0  0  0  0  0  0
   -1.2065   -1.3571   -1.9760 H   0  0  0  0  0  0  0  0  0  0  0  0
    1.4486    0.7519   -1.4221 C   0  0  0  0  0  0  0  0  0  0  0  0
    1.7439    0.6262   -2.4691 H   0  0  0  0  0  0  0  0  0  0  0  0
    0.9070    1.7013   -1.3512 H   0  0  0  0  0  0  0  0  0  0  0  0
    2.7292    0.8402   -0.5830 C   0  0  0  0  0  0  0  0  0  0  0  0
    3.3263   -0.0666   -0.7208 H   0  0  0  0  0  0  0  0  0  0  0  0
    3.3256    1.6978   -0.9091 H   0  0  0  0  0  0  0  0  0  0  0  0
    2.5282    0.9525    0.4802 H   0  0  0  0  0  0  0  0  0  0  0  0
   -0.2550    1.0500    1.0149 C   0  0  0  0  0  0  0  0  0  0  0  0
   -1.2576    1.6728    0.6760 O   0  0  0  0  0  0  0  0  0  0  0  0
    0.6097    1.6394    1.9190 N   0  0  0  0  0  0  0  0  0  0  0  0
    1.4132    1.0970    2.2224 H   0  0  0  0  0  0  0  0  0  0  0  0
    0.4115    2.9747    2.4690 C   0  0  0  0  0  0  0  0  0  0  0  0
   -0.5480    3.0355    2.9936 H   0  0  0  0  0  0  0  0  0  0  0  0
    1.2090    3.2126    3.1794 H   0  0  0  0  0  0  0  0  0  0  0  0
    0.4249    3.7235    1.6700 H   0  0  0  0  0  0  0  0  0  0  0  0
  1  2  1  0  0  0  0
  2  3  1  0  0  0  0
  2  4  1  0  0  0  0
  2  5  1  0  0  0  0
  5  6  2  0  0  0  0
  5  7  1  0  0  0  0
  7  8  1  0  0  0  0
  7  9  1  0  0  0  0
  9 10  1  0  0  0  0
  9 11  1  0  0  0  0
  9 24  1  0  0  0  0
 11 12  1  0  0  0  0
 11 13  1  0  0  0  0
 11 17  1  0  0  0  0
 13 14  1  0  0  0  0
 13 15  1  0  0  0  0
 13 16  1  0  0  0  0
 17 18  1  0  0  0  0
 17 19  1  0  0  0  0
 17 20  1  0  0  0  0
 20 21  1  0  0  0  0
 20 22  1  0  0  0  0
 20 23  1  0  0  0  0
 24 25  2  0  0  0  0
 24 26  1  0  0  0  0
 26 27  1  0  0  0  0
 26 28  1  0  0  0  0
 28 29  1  0  0  0  0
 28 30  1  0  0  0  0
 28 31  1  0  0  0  0
M  END
$$$$

  -OEChem-03222214053D

 31 30  0     1  0  0  0  0  0999 V2000
   -2.9256   -3.8667    1.5834 H   0  0  0  0  0  0  0  0  0  0  0  0
   -2.9578   -2.8533    1.1734 C   0  0  0  0  0  0  0  0  0  0  0  0
   -3.5294   -2.2163    1.8528 H   0  0  0  0  0  0  0  0  0  0  0  0
   -3.4586   -2.8814    0.2026 H   0  0  0  0  0  0  0  0  0  0  0  0
   -1.5506   -2.3094    1.0142 C   0  0  0  0  0  0  0  0  0  0  0  0
   -0.5901   -3.0000    1.3168 O   0  0  0  0  0  0  0  0  0  0  0  0
   -1.3614   -1.0297    0.5383 N   0  0  0  0  0  0  0  0  0  0  0  0
   -2.1878   -0.4515    0.3911 H   0  0  0  0  0  0  0  0  0  0  0  0
   -0.0556   -0.3562    0.4391 C   0  0  1  0  0  0  0  0  0  0  0  0
    0.6684   -0.8462    1.0981 H   0  0  0  0  0  0  0  0  0  0  0  0
    0.5167   -0.4138   -1.0205 C   0  0  1  0  0  0  0  0  0  0  0  0
    1.0937   -1.3399   -1.1183 H   0  0  0  0  0  0  0  0  0  0  0  0
   -0.6072   -0.4631   -2.0786 C   0  0  0  0  0  0  0  0  0  0  0  0
   -1.2752    0.3978   -1.9707 H   0  0  0  0  0  0  0  0  0  0  0  0
   -0.1897   -0.4522   -3.0900 H   0  0  0  0  0  0  0  0  0  0  0  0
   -1.1949   -1.3810   -1.9841 H   0  0  0  0  0  0  0  0  0  0  0  0
    1.4213    0.7857   -1.4042 C   0  0  0  0  0  0  0  0  0  0  0  0
    1.5843    0.7881   -2.4869 H   0  0  0  0  0  0  0  0  0  0  0  0
    0.9515    1.7430   -1.1596 H   0  0  0  0  0  0  0  0  0  0  0  0
    2.7984    0.6777   -0.7444 C   0  0  0  0  0  0  0  0  0  0  0  0
    3.3017   -0.2415   -1.0601 H   0  0  0  0  0  0  0  0  0  0  0  0
    3.4197    1.5296   -1.0368 H   0  0  0  0  0  0  0  0  0  0  0  0
    2.7144    0.6701    0.3450 H   0  0  0  0  0  0  0  0  0  0  0  0
   -0.2548    1.0756    0.9879 C   0  0  0  0  0  0  0  0  0  0  0  0
   -1.2631    1.7115    0.6962 O   0  0  0  0  0  0  0  0  0  0  0  0
    0.6602    1.6330    1.8622 N   0  0  0  0  0  0  0  0  0  0  0  0
    1.4696    1.0740    2.1156 H   0  0  0  0  0  0  0  0  0  0  0  0
    0.5102    2.9624    2.4402 C   0  0  0  0  0  0  0  0  0  0  0  0
   -0.4265    3.0326    3.0032 H   0  0  0  0  0  0  0  0  0  0  0  0
    1.3392    3.1742    3.1224 H   0  0  0  0  0  0  0  0  0  0  0  0
    0.5068    3.7233    1.6527 H   0  0  0  0  0  0  0  0  0  0  0  0
  1  2  1  0  0  0  0
  2  3  1  0  0  0  0
  2  4  1  0  0  0  0
  2  5  1  0  0  0  0
  5  6  2  0  0  0  0
  5  7  1  0  0  0  0
  7  8  1  0  0  0  0
  7  9  1  0  0  0  0
  9 10  1  0  0  0  0
  9 11  1  0  0  0  0
  9 24  1  0  0  0  0
 11 12  1  0  0  0  0
 11 13  1  0  0  0  0
 11 17  1  0  0  0  0
 13 14  1  0  0  0  0
 13 15  1  0  0  0  0
 13 16  1  0  0  0  0
 17 18  1  0  0  0  0
 17 19  1  0  0  0  0
 17 20  1  0  0  0  0
 20 21  1  0  0  0  0
 20 22  1  0  0  0  0
 20 23  1  0  0  0  0
 24 25  2  0  0  0  0
 24 26  1  0  0  0  0
 26 27  1  0  0  0  0
 26 28  1  0  0  0  0
 28 29  1  0  0  0  0
 28 30  1  0  0  0  0
 28 31  1  0  0  0  0
M  END
$$$$

  -OEChem-03222214053D

 31 30  0     1  0  0  0  0  0999 V2000
   -2.9129   -3.8764    1.5672 H   0  0  0  0  0  0  0  0  0  0  0  0
   -2.9535   -2.8600    1.1658 C   0  0  0  0  0  0  0  0  0  0  0  0
   -3.5264   -2.2325    1.8528 H   0  0  0  0  0  0  0  0  0  0  0  0
   -3.4583   -2.8833    0.1971 H   0  0  0  0  0  0  0  0  0  0  0  0
   -1.5509   -2.3050    1.0049 C   0  0  0  0  0  0  0  0  0  0  0  0
   -0.5844   -2.9922    1.2955 O   0  0  0  0  0  0  0  0  0  0  0  0
   -1.3729   -1.0201    0.5385 N   0  0  0  0  0  0  0  0  0  0  0  0
   -2.2042   -0.4474    0.3979 H   0  0  0  0  0  0  0  0  0  0  0  0
   -0.0717   -0.3383    0.4327 C   0  0  1  0  0  0  0  0  0  0  0  0
    0.6512   -0.8277    1.0934 H   0  0  0  0  0  0  0  0  0  0  0  0
    0.5182   -0.4057   -1.0208 C   0  0  1  0  0  0  0  0  0  0  0  0
    1.0967   -1.3322   -1.1057 H   0  0  0  0  0  0  0  0  0  0  0  0
   -0.6027   -0.4815   -2.0818 C   0  0  0  0  0  0  0  0  0  0  0  0
   -1.2717    0.3809   -1.9957 H   0  0  0  0  0  0  0  0  0  0  0  0
   -0.1821   -0.4957   -3.0920 H   0  0  0  0  0  0  0  0  0  0  0  0
   -1.1897   -1.3978   -1.9693 H   0  0  0  0  0  0  0  0  0  0  0  0
    1.4189    0.8010   -1.4141 C   0  0  0  0  0  0  0  0  0  0  0  0
    1.3935    0.9445   -2.4991 H   0  0  0  0  0  0  0  0  0  0  0  0
    1.0843    1.7463   -0.9814 H   0  0  0  0  0  0  0  0  0  0  0  0
    2.8772    0.5259   -1.0457 C   0  0  0  0  0  0  0  0  0  0  0  0
    3.2447   -0.3651   -1.5645 H   0  0  0  0  0  0  0  0  0  0  0  0
    3.5036    1.3757   -1.3334 H   0  0  0  0  0  0  0  0  0  0  0  0
    2.9766    0.3703    0.0327 H   0  0  0  0  0  0  0  0  0  0  0  0
   -0.2626    1.0883    0.9933 C   0  0  0  0  0  0  0  0  0  0  0  0
   -1.2741    1.7279    0.7227 O   0  0  0  0  0  0  0  0  0  0  0  0
    0.6687    1.6312    1.8596 N   0  0  0  0  0  0  0  0  0  0  0  0
    1.4826    1.0679    2.0883 H   0  0  0  0  0  0  0  0  0  0  0  0
    0.5351    2.9549    2.4546 C   0  0  0  0  0  0  0  0  0  0  0  0
   -0.3942    3.0248    3.0297 H   0  0  0  0  0  0  0  0  0  0  0  0
    1.3738    3.1522    3.1291 H   0  0  0  0  0  0  0  0  0  0  0  0
    0.5275    3.7257    1.6767 H   0  0  0  0  0  0  0  0  0  0  0  0
  1  2  1  0  0  0  0
  2  3  1  0  0  0  0
  2  4  1  0  0  0  0
  2  5  1  0  0  0  0
  5  6  2  0  0  0  0
  5  7  1  0  0  0  0
  7  8  1  0  0  0  0
  7  9  1  0  0  0  0
  9 10  1  0  0  0  0
  9 11  1  0  0  0  0
  9 24  1  0  0  0  0
 11 12  1  0  0  0  0
 11 13  1  0  0  0  0
 11 17  1  0  0  0  0
 13 14  1  0  0  0  0
 13 15  1  0  0  0  0
 13 16  1  0  0  0  0
 17 18  1  0  0  0  0
 17 19  1  0  0  0  0
 17 20  1  0  0  0  0
 20 21  1  0  0  0  0
 20 22  1  0  0  0  0
 20 23  1  0  0  0  0
 24 25  2  0  0  0  0
 24 26  1  0  0  0  0
 26 27  1  0  0  0  0
 26 28  1  0  0  0  0
 28 29  1  0  0  0  0
 28 30  1  0  0  0  0
 28 31  1  0  0  0  0
M  END
$$$$

  -OEChem-03222214053D

 31 30  0     1  0  0  0  0  0999 V2000
   -2.9161   -3.8602    1.5598 H   0  0  0  0  0  0  0  0  0  0  0  0
   -2.9507   -2.8408    1.1650 C   0  0  0  0  0  0  0  0  0  0  0  0
   -3.5169   -2.2136    1.8581 H   0  0  0  0  0  0  0  0  0  0  0  0
   -3.4591   -2.8542    0.1979 H   0  0  0  0  0  0  0  0  0  0  0  0
   -1.5449   -2.2946    1.0021 C   0  0  0  0  0  0  0  0  0  0  0  0
   -0.5817   -2.9876    1.2899 O   0  0  0  0  0  0  0  0  0  0  0  0
   -1.3602   -1.0100    0.5382 N   0  0  0  0  0  0  0  0  0  0  0  0
   -2.1884   -0.4320    0.4017 H   0  0  0  0  0  0  0  0  0  0  0  0
   -0.0565   -0.3331    0.4365 C   0  0  1  0  0  0  0  0  0  0  0  0
    0.6684   -0.8237    1.0942 H   0  0  0  0  0  0  0  0  0  0  0  0
    0.5239   -0.3951   -1.0221 C   0  0  1  0  0  0  0  0  0  0  0  0
    1.0979   -1.3250   -1.0992 H   0  0  0  0  0  0  0  0  0  0  0  0
   -0.5967   -0.4866   -2.0825 C   0  0  0  0  0  0  0  0  0  0  0  0
   -1.2699    0.3734   -2.0055 H   0  0  0  0  0  0  0  0  0  0  0  0
   -0.1727   -0.5083   -3.0913 H   0  0  0  0  0  0  0  0  0  0  0  0
   -1.1799   -1.4045   -1.9624 H   0  0  0  0  0  0  0  0  0  0  0  0
    1.4348    0.8049   -1.4319 C   0  0  0  0  0  0  0  0  0  0  0  0
    1.1906    1.1435   -2.4441 H   0  0  0  0  0  0  0  0  0  0  0  0
    1.3150    1.6784   -0.7904 H   0  0  0  0  0  0  0  0  0  0  0  0
    2.9052    0.3853   -1.4337 C   0  0  0  0  0  0  0  0  0  0  0  0
    3.0714   -0.4324   -2.1422 H   0  0  0  0  0  0  0  0  0  0  0  0
    3.5364    1.2299   -1.7265 H   0  0  0  0  0  0  0  0  0  0  0  0
    3.2090    0.0536   -0.4358 H   0  0  0  0  0  0  0  0  0  0  0  0
   -0.2621    1.0896    1.0024 C   0  0  0  0  0  0  0  0  0  0  0  0
   -1.2739    1.7256    0.7243 O   0  0  0  0  0  0  0  0  0  0  0  0
    0.6593    1.6353    1.8775 N   0  0  0  0  0  0  0  0  0  0  0  0
    1.4673    1.0704    2.1229 H   0  0  0  0  0  0  0  0  0  0  0  0
    0.5023    2.9487    2.4896 C   0  0  0  0  0  0  0  0  0  0  0  0
   -0.4231    2.9910    3.0738 H   0  0  0  0  0  0  0  0  0  0  0  0
    1.3429    3.1568    3.1586 H   0  0  0  0  0  0  0  0  0  0  0  0
    0.4703    3.7278    1.7207 H   0  0  0  0  0  0  0  0  0  0  0  0
  1  2  1  0  0  0  0
  2  3  1  0  0  0  0
  2  4  1  0  0  0  0
  2  5  1  0  0  0  0
  5  6  2  0  0  0  0
  5  7  1  0  0  0  0
  7  8  1  0  0  0  0
  7  9  1  0  0  0  0
  9 10  1  0  0  0  0
  9 11  1  0  0  0  0
  9 24  1  0  0  0  0
 11 12  1  0  0  0  0
 11 13  1  0  0  0  0
 11 17  1  0  0  0  0
 13 14  1  0  0  0  0
 13 15  1  0  0  0  0
 13 16  1  0  0  0  0
 17 18  1  0  0  0  0
 17 19  1  0  0  0  0
 17 20  1  0  0  0  0
 20 21  1  0  0  0  0
 20 22  1  0  0  0  0
 20 23  1  0  0  0  0
 24 25  2  0  0  0  0
 24 26  1  0  0  0  0
 26 27  1  0  0  0  0
 26 28  1  0  0  0  0
 28 29  1  0  0  0  0
 28 30  1  0  0  0  0
 28 31  1  0  0  0  0
M  END
$$$$

  -OEChem-03222214053D

 31 30  0     1  0  0  0  0  0999 V2000
   -2.9227   -3.8587    1.5444 H   0  0  0  0  0  0  0  0  0  0  0  0
   -2.9520   -2.8408    1.1459 C   0  0  0  0  0  0  0  0  0  0  0  0
   -3.5287   -2.2116    1.8281 H   0  0  0  0  0  0  0  0  0  0  0  0
   -3.4456   -2.8577    0.1712 H   0  0  0  0  0  0  0  0  0  0  0  0
   -1.5441   -2.2945    1.0029 C   0  0  0  0  0  0  0  0  0  0  0  0
   -0.5849   -2.9884    1.3019 O   0  0  0  0  0  0  0  0  0  0  0  0
   -1.3526   -1.0102    0.5406 N   0  0  0  0  0  0  0  0  0  0  0  0
   -2.1783   -0.4314    0.3919 H   0  0  0  0  0  0  0  0  0  0  0  0
   -0.0458   -0.3377    0.4494 C   0  0  1  0  0  0  0  0  0  0  0  0
    0.6799   -0.8328    1.1027 H   0  0  0  0  0  0  0  0  0  0  0  0
    0.5183   -0.3865   -1.0141 C   0  0  1  0  0  0  0  0  0  0  0  0
    1.0972   -1.3141   -1.0826 H   0  0  0  0  0  0  0  0  0  0  0  0
   -0.5931   -0.4873   -2.0810 C   0  0  0  0  0  0  0  0  0  0  0  0
   -1.2881    0.3543   -1.9942 H   0  0  0  0  0  0  0  0  0  0  0  0
   -0.1594   -0.4790   -3.0861 H   0  0  0  0  0  0  0  0  0  0  0  0
   -1.1534   -1.4213   -1.9775 H   0  0  0  0  0  0  0  0  0  0  0  0
    1.4335    0.8092   -1.4215 C   0  0  0  0  0  0  0  0  0  0  0  0
    1.0016    1.3647   -2.2609 H   0  0  0  0  0  0  0  0  0  0  0  0
    1.5671    1.5283   -0.6129 H   0  0  0  0  0  0  0  0  0  0  0  0
    2.8269    0.3137   -1.8113 C   0  0  0  0  0  0  0  0  0  0  0  0
    2.7637   -0.3816   -2.6544 H   0  0  0  0  0  0  0  0  0  0  0  0
    3.4572    1.1586   -2.1055 H   0  0  0  0  0  0  0  0  0  0  0  0
    3.3022   -0.1973   -0.9680 H   0  0  0  0  0  0  0  0  0  0  0  0
   -0.2546    1.0860    1.0149 C   0  0  0  0  0  0  0  0  0  0  0  0
   -1.2583    1.7269    0.7197 O   0  0  0  0  0  0  0  0  0  0  0  0
    0.6582    1.6324    1.8993 N   0  0  0  0  0  0  0  0  0  0  0  0
    1.4623    1.0667    2.1558 H   0  0  0  0  0  0  0  0  0  0  0  0
    0.5079    2.9566    2.4898 C   0  0  0  0  0  0  0  0  0  0  0  0
   -0.4254    3.0192    3.0592 H   0  0  0  0  0  0  0  0  0  0  0  0
    1.3407    3.1648    3.1682 H   0  0  0  0  0  0  0  0  0  0  0  0
    0.4970    3.7245    1.7092 H   0  0  0  0  0  0  0  0  0  0  0  0
  1  2  1  0  0  0  0
  2  3  1  0  0  0  0
  2  4  1  0  0  0  0
  2  5  1  0  0  0  0
  5  6  2  0  0  0  0
  5  7  1  0  0  0  0
  7  8  1  0  0  0  0
  7  9  1  0  0  0  0
  9 10  1  0  0  0  0
  9 11  1  0  0  0  0
  9 24  1  0  0  0  0
 11 12  1  0  0  0  0
 11 13  1  0  0  0  0
 11 17  1  0  0  0  0
 13 14  1  0  0  0  0
 13 15  1  0  0  0  0
 13 16  1  0  0  0  0
 17 18  1  0  0  0  0
 17 19  1  0  0  0  0
 17 20  1  0  0  0  0
 20 21  1  0  0  0  0
 20 22  1  0  0  0  0
 20 23  1  0  0  0  0
 24 25  2  0  0  0  0
 24 26  1  0  0  0  0
 26 27  1  0  0  0  0
 26 28  1  0  0  0  0
 28 29  1  0  0  0  0
 28 30  1  0  0  0  0
 28 31  1  0  0  0  0
M  END
$$$$

  -OEChem-03222214053D

 31 30  0     1  0  0  0  0  0999 V2000
   -2.9372   -3.8507    1.5544 H   0  0  0  0  0  0  0  0  0  0  0  0
   -2.9589   -2.8348    1.1502 C   0  0  0  0  0  0  0  0  0  0  0  0
   -3.5342   -2.1987    1.8271 H   0  0  0  0  0  0  0  0  0  0  0  0
   -3.4495   -2.8544    0.1741 H   0  0  0  0  0  0  0  0  0  0  0  0
   -1.5476   -2.2969    1.0083 C   0  0  0  0  0  0  0  0  0  0  0  0
   -0.5933   -2.9919    1.3200 O   0  0  0  0  0  0  0  0  0  0  0  0
   -1.3479   -1.0174    0.5364 N   0  0  0  0  0  0  0  0  0  0  0  0
   -2.1703   -0.4367    0.3771 H   0  0  0  0  0  0  0  0  0  0  0  0
   -0.0379   -0.3514    0.4469 C   0  0  1  0  0  0  0  0  0  0  0  0
    0.6877   -0.8473    1.0997 H   0  0  0  0  0  0  0  0  0  0  0  0
    0.5163   -0.3941   -1.0178 C   0  0  1  0  0  0  0  0  0  0  0  0
    1.0999   -1.3187   -1.0875 H   0  0  0  0  0  0  0  0  0  0  0  0
   -0.5916   -0.4800   -2.0885 C   0  0  0  0  0  0  0  0  0  0  0  0
   -1.2958    0.3517   -1.9816 H   0  0  0  0  0  0  0  0  0  0  0  0
   -0.1581   -0.4398   -3.0927 H   0  0  0  0  0  0  0  0  0  0  0  0
   -1.1424   -1.4220   -2.0064 H   0  0  0  0  0  0  0  0  0  0  0  0
    1.4309    0.8034   -1.4006 C   0  0  0  0  0  0  0  0  0  0  0  0
    0.8845    1.5358   -2.0050 H   0  0  0  0  0  0  0  0  0  0  0  0
    1.7929    1.3241   -0.5119 H   0  0  0  0  0  0  0  0  0  0  0  0
    2.6790    0.3241   -2.1448 C   0  0  0  0  0  0  0  0  0  0  0  0
    2.3992   -0.2007   -3.0635 H   0  0  0  0  0  0  0  0  0  0  0  0
    3.3084    1.1784   -2.4121 H   0  0  0  0  0  0  0  0  0  0  0  0
    3.2648   -0.3544   -1.5167 H   0  0  0  0  0  0  0  0  0  0  0  0
   -0.2403    1.0790    0.9991 C   0  0  0  0  0  0  0  0  0  0  0  0
   -1.2400    1.7223    0.6954 O   0  0  0  0  0  0  0  0  0  0  0  0
    0.6709    1.6284    1.8832 N   0  0  0  0  0  0  0  0  0  0  0  0
    1.4666    1.0577    2.1540 H   0  0  0  0  0  0  0  0  0  0  0  0
    0.5166    2.9517    2.4747 C   0  0  0  0  0  0  0  0  0  0  0  0
   -0.4187    3.0122    3.0413 H   0  0  0  0  0  0  0  0  0  0  0  0
    1.3470    3.1604    3.1561 H   0  0  0  0  0  0  0  0  0  0  0  0
    0.5073    3.7205    1.6949 H   0  0  0  0  0  0  0  0  0  0  0  0
  1  2  1  0  0  0  0
  2  3  1  0  0  0  0
  2  4  1  0  0  0  0
  2  5  1  0  0  0  0
  5  6  2  0  0  0  0
  5  7  1  0  0  0  0
  7  8  1  0  0  0  0
  7  9  1  0  0  0  0
  9 10  1  0  0  0  0
  9 11  1  0  0  0  0
  9 24  1  0  0  0  0
 11 12  1  0  0  0  0
 11 13  1  0  0  0  0
 11 17  1  0  0  0  0
 13 14  1  0  0  0  0
 13 15  1  0  0  0  0
 13 16  1  0  0  0  0
 17 18  1  0  0  0  0
 17 19  1  0  0  0  0
 17 20  1  0  0  0  0
 20 21  1  0  0  0  0
 20 22  1  0  0  0  0
 20 23  1  0  0  0  0
 24 25  2  0  0  0  0
 24 26  1  0  0  0  0
 26 27  1  0  0  0  0
 26 28  1  0  0  0  0
 28 29  1  0  0  0  0
 28 30  1  0  0  0  0
 28 31  1  0  0  0  0
M  END
$$$$

  -OEChem-03222214053D

 31 30  0     1  0  0  0  0  0999 V2000
   -2.9474   -3.8461    1.5866 H   0  0  0  0  0  0  0  0  0  0  0  0
   -2.9701   -2.8342    1.1722 C   0  0  0  0  0  0  0  0  0  0  0  0
   -3.5344   -2.1887    1.8496 H   0  0  0  0  0  0  0  0  0  0  0  0
   -3.4727   -2.8615    0.2023 H   0  0  0  0  0  0  0  0  0  0  0  0
   -1.5580   -2.3044    1.0087 C   0  0  0  0  0  0  0  0  0  0  0  0
   -0.6040   -3.0019    1.3155 O   0  0  0  0  0  0  0  0  0  0  0  0
   -1.3567   -1.0280    0.5288 N   0  0  0  0  0  0  0  0  0  0  0  0
   -2.1777   -0.4434    0.3766 H   0  0  0  0  0  0  0  0  0  0  0  0
   -0.0446   -0.3670    0.4315 C   0  0  1  0  0  0  0  0  0  0  0  0
    0.6793   -0.8638    1.0855 H   0  0  0  0  0  0  0  0  0  0  0  0
    0.5133   -0.4133   -1.0309 C   0  0  1  0  0  0  0  0  0  0  0  0
    1.1021   -1.3338   -1.1085 H   0  0  0  0  0  0  0  0  0  0  0  0
   -0.6010   -0.4821   -2.0980 C   0  0  0  0  0  0  0  0  0  0  0  0
   -1.2964    0.3558   -1.9822 H   0  0  0  0  0  0  0  0  0  0  0  0
   -0.1796   -0.4415   -3.1062 H   0  0  0  0  0  0  0  0  0  0  0  0
   -1.1611   -1.4186   -2.0164 H   0  0  0  0  0  0  0  0  0  0  0  0
    1.4240    0.7925   -1.3782 C   0  0  0  0  0  0  0  0  0  0  0  0
    0.8252    1.6384   -1.7339 H   0  0  0  0  0  0  0  0  0  0  0  0
    1.9644    1.1200   -0.4859 H   0  0  0  0  0  0  0  0  0  0  0  0
    2.4905    0.4242   -2.4140 C   0  0  0  0  0  0  0  0  0  0  0  0
    2.0315    0.1282   -3.3616 H   0  0  0  0  0  0  0  0  0  0  0  0
    3.1407    1.2840   -2.6017 H   0  0  0  0  0  0  0  0  0  0  0  0
    3.1089   -0.4027   -2.0513 H   0  0  0  0  0  0  0  0  0  0  0  0
   -0.2317    1.0694    0.9751 C   0  0  0  0  0  0  0  0  0  0  0  0
   -1.2319    1.7152    0.6782 O   0  0  0  0  0  0  0  0  0  0  0  0
    0.6878    1.6185    1.8508 N   0  0  0  0  0  0  0  0  0  0  0  0
    1.4795    1.0436    2.1245 H   0  0  0  0  0  0  0  0  0  0  0  0
    0.5385    2.9425    2.4425 C   0  0  0  0  0  0  0  0  0  0  0  0
   -0.3915    3.0033    3.0176 H   0  0  0  0  0  0  0  0  0  0  0  0
    1.3749    3.1526    3.1160 H   0  0  0  0  0  0  0  0  0  0  0  0
    0.5214    3.7106    1.6622 H   0  0  0  0  0  0  0  0  0  0  0  0
  1  2  1  0  0  0  0
  2  3  1  0  0  0  0
  2  4  1  0  0  0  0
  2  5  1  0  0  0  0
  5  6  2  0  0  0  0
  5  7  1  0  0  0  0
  7  8  1  0  0  0  0
  7  9  1  0  0  0  0
  9 10  1  0  0  0  0
  9 11  1  0  0  0  0
  9 24  1  0  0  0  0
 11 12  1  0  0  0  0
 11 13  1  0  0  0  0
 11 17  1  0  0  0  0
 13 14  1  0  0  0  0
 13 15  1  0  0  0  0
 13 16  1  0  0  0  0
 17 18  1  0  0  0  0
 17 19  1  0  0  0  0
 17 20  1  0  0  0  0
 20 21  1  0  0  0  0
 20 22  1  0  0  0  0
 20 23  1  0  0  0  0
 24 25  2  0  0  0  0
 24 26  1  0  0  0  0
 26 27  1  0  0  0  0
 26 28  1  0  0  0  0
 28 29  1  0  0  0  0
 28 30  1  0  0  0  0
 28 31  1  0  0  0  0
M  END
$$$$

  -OEChem-03222214053D

 31 30  0     1  0  0  0  0  0999 V2000
   -2.9546   -3.8563    1.5887 H   0  0  0  0  0  0  0  0  0  0  0  0
   -2.9796   -2.8425    1.1793 C   0  0  0  0  0  0  0  0  0  0  0  0
   -3.5441   -2.2011    1.8605 H   0  0  0  0  0  0  0  0  0  0  0  0
   -3.4836   -2.8662    0.2100 H   0  0  0  0  0  0  0  0  0  0  0  0
   -1.5688   -2.3098    1.0152 C   0  0  0  0  0  0  0  0  0  0  0  0
   -0.6125   -3.0073    1.3149 O   0  0  0  0  0  0  0  0  0  0  0  0
   -1.3720   -1.0336    0.5335 N   0  0  0  0  0  0  0  0  0  0  0  0
   -2.1947   -0.4503    0.3865 H   0  0  0  0  0  0  0  0  0  0  0  0
   -0.0617   -0.3720    0.4212 C   0  0  1  0  0  0  0  0  0  0  0  0
    0.6623   -0.8680    1.0755 H   0  0  0  0  0  0  0  0  0  0  0  0
    0.5048   -0.4288   -1.0387 C   0  0  1  0  0  0  0  0  0  0  0  0
    1.1059   -1.3413   -1.1147 H   0  0  0  0  0  0  0  0  0  0  0  0
   -0.6168   -0.5161   -2.0987 C   0  0  0  0  0  0  0  0  0  0  0  0
   -1.2895    0.3437   -2.0164 H   0  0  0  0  0  0  0  0  0  0  0  0
   -0.2065   -0.5382   -3.1107 H   0  0  0  0  0  0  0  0  0  0  0  0
   -1.2001   -1.4332   -1.9748 H   0  0  0  0  0  0  0  0  0  0  0  0
    1.4074    0.7894   -1.3647 C   0  0  0  0  0  0  0  0  0  0  0  0
    0.7992    1.6930   -1.4827 H   0  0  0  0  0  0  0  0  0  0  0  0
    2.0959    0.9541   -0.5298 H   0  0  0  0  0  0  0  0  0  0  0  0
    2.2599    0.5946   -2.6233 C   0  0  0  0  0  0  0  0  0  0  0  0
    1.6416    0.5764   -3.5245 H   0  0  0  0  0  0  0  0  0  0  0  0
    2.9699    1.4215   -2.7201 H   0  0  0  0  0  0  0  0  0  0  0  0
    2.8248   -0.3408   -2.5635 H   0  0  0  0  0  0  0  0  0  0  0  0
   -0.2337    1.0655    0.9647 C   0  0  0  0  0  0  0  0  0  0  0  0
   -1.2350    1.7156    0.6818 O   0  0  0  0  0  0  0  0  0  0  0  0
    0.7018    1.6090    1.8263 N   0  0  0  0  0  0  0  0  0  0  0  0
    1.4950    1.0300    2.0866 H   0  0  0  0  0  0  0  0  0  0  0  0
    0.5754    2.9387    2.4096 C   0  0  0  0  0  0  0  0  0  0  0  0
   -0.3410    3.0115    3.0048 H   0  0  0  0  0  0  0  0  0  0  0  0
    1.4285    3.1481    3.0620 H   0  0  0  0  0  0  0  0  0  0  0  0
    0.5464    3.6997    1.6226 H   0  0  0  0  0  0  0  0  0  0  0  0
  1  2  1  0  0  0  0
  2  3  1  0  0  0  0
  2  4  1  0  0  0  0
  2  5  1  0  0  0  0
  5  6  2  0  0  0  0
  5  7  1  0  0  0  0
  7  8  1  0  0  0  0
  7  9  1  0  0  0  0
  9 10  1  0  0  0  0
  9 11  1  0  0  0  0
  9 24  1  0  0  0  0
 11 12  1  0  0  0  0
 11 13  1  0  0  0  0
 11 17  1  0  0  0  0
 13 14  1  0  0  0  0
 13 15  1  0  0  0  0
 13 16  1  0  0  0  0
 17 18  1  0  0  0  0
 17 19  1  0  0  0  0
 17 20  1  0  0  0  0
 20 21  1  0  0  0  0
 20 22  1  0  0  0  0
 20 23  1  0  0  0  0
 24 25  2  0  0  0  0
 24 26  1  0  0  0  0
 26 27  1  0  0  0  0
 26 28  1  0  0  0  0
 28 29  1  0  0  0  0
 28 30  1  0  0  0  0
 28 31  1  0  0  0  0
M  END
$$$$

  -OEChem-03222214053D

 31 30  0     1  0  0  0  0  0999 V2000
   -2.9483   -3.8615    1.5812 H   0  0  0  0  0  0  0  0  0  0  0  0
   -2.9772   -2.8505    1.1652 C   0  0  0  0  0  0  0  0  0  0  0  0
   -3.5445   -2.2071    1.8421 H   0  0  0  0  0  0  0  0  0  0  0  0
   -3.4805   -2.8826    0.1959 H   0  0  0  0  0  0  0  0  0  0  0  0
   -1.5684   -2.3131    0.9996 C   0  0  0  0  0  0  0  0  0  0  0  0
   -0.6102   -3.0073    1.3012 O   0  0  0  0  0  0  0  0  0  0  0  0
   -1.3759   -1.0350    0.5208 N   0  0  0  0  0  0  0  0  0  0  0  0
   -2.2012   -0.4558    0.3724 H   0  0  0  0  0  0  0  0  0  0  0  0
   -0.0695   -0.3662    0.4159 C   0  0  1  0  0  0  0  0  0  0  0  0
    0.6514   -0.8650    1.0717 H   0  0  0  0  0  0  0  0  0  0  0  0
    0.4939   -0.4363   -1.0396 C   0  0  1  0  0  0  0  0  0  0  0  0
    0.8707   -1.4520   -1.2020 H   0  0  0  0  0  0  0  0  0  0  0  0
   -0.6097   -0.1709   -2.0911 C   0  0  0  0  0  0  0  0  0  0  0  0
   -1.0022    0.8458   -1.9896 H   0  0  0  0  0  0  0  0  0  0  0  0
   -0.2235   -0.2958   -3.1058 H   0  0  0  0  0  0  0  0  0  0  0  0
   -1.4382   -0.8765   -1.9859 H   0  0  0  0  0  0  0  0  0  0  0  0
    1.6644    0.5640   -1.2384 C   0  0  0  0  0  0  0  0  0  0  0  0
    1.3313    1.5880   -1.0429 H   0  0  0  0  0  0  0  0  0  0  0  0
    2.4523    0.3239   -0.5173 H   0  0  0  0  0  0  0  0  0  0  0  0
    2.2709    0.5480   -2.6453 C   0  0  0  0  0  0  0  0  0  0  0  0
    1.5845    0.9824   -3.3776 H   0  0  0  0  0  0  0  0  0  0  0  0
    3.1915    1.1390   -2.6574 H   0  0  0  0  0  0  0  0  0  0  0  0
    2.5127   -0.4758   -2.9471 H   0  0  0  0  0  0  0  0  0  0  0  0
   -0.2294    1.0728    0.9561 C   0  0  0  0  0  0  0  0  0  0  0  0
   -1.2303    1.7272    0.6832 O   0  0  0  0  0  0  0  0  0  0  0  0
    0.7120    1.6085    1.8163 N   0  0  0  0  0  0  0  0  0  0  0  0
    1.5084    1.0285    2.0642 H   0  0  0  0  0  0  0  0  0  0  0  0
    0.5978    2.9389    2.4003 C   0  0  0  0  0  0  0  0  0  0  0  0
   -0.3223    3.0224    2.9883 H   0  0  0  0  0  0  0  0  0  0  0  0
    1.4483    3.1363    3.0599 H   0  0  0  0  0  0  0  0  0  0  0  0
    0.5849    3.7016    1.6145 H   0  0  0  0  0  0  0  0  0  0  0  0
  1  2  1  0  0  0  0
  2  3  1  0  0  0  0
  2  4  1  0  0  0  0
  2  5  1  0  0  0  0
  5  6  2  0  0  0  0
  5  7  1  0  0  0  0
  7  8  1  0  0  0  0
  7  9  1  0  0  0  0
  9 10  1  0  0  0  0
  9 11  1  0  0  0  0
  9 24  1  0  0  0  0
 11 12  1  0  0  0  0
 11 13  1  0  0  0  0
 11 17  1  0  0  0  0
 13 14  1  0  0  0  0
 13 15  1  0  0  0  0
 13 16  1  0  0  0  0
 17 18  1  0  0  0  0
 17 19  1  0  0  0  0
 17 20  1  0  0  0  0
 20 21  1  0  0  0  0
 20 22  1  0  0  0  0
 20 23  1  0  0  0  0
 24 25  2  0  0  0  0
 24 26  1  0  0  0  0
 26 27  1  0  0  0  0
 26 28  1  0  0  0  0
 28 29  1  0  0  0  0
 28 30  1  0  0  0  0
 28 31  1  0  0  0  0
M  END
$$$$

  -OEChem-03222214053D

 31 30  0     1  0  0  0  0  0999 V2000
   -2.9496   -3.8530    1.5871 H   0  0  0  0  0  0  0  0  0  0  0  0
   -2.9775   -2.8415    1.1725 C   0  0  0  0  0  0  0  0  0  0  0  0
   -3.5381   -2.1970    1.8539 H   0  0  0  0  0  0  0  0  0  0  0  0
   -3.4873   -2.8704    0.2065 H   0  0  0  0  0  0  0  0  0  0  0  0
   -1.5680   -2.3085    0.9975 C   0  0  0  0  0  0  0  0  0  0  0  0
   -0.6096   -3.0078    1.2862 O   0  0  0  0  0  0  0  0  0  0  0  0
   -1.3747   -1.0286    0.5237 N   0  0  0  0  0  0  0  0  0  0  0  0
   -2.1989   -0.4449    0.3862 H   0  0  0  0  0  0  0  0  0  0  0  0
   -0.0661   -0.3637    0.4139 C   0  0  1  0  0  0  0  0  0  0  0  0
    0.6568   -0.8638    1.0666 H   0  0  0  0  0  0  0  0  0  0  0  0
    0.4953   -0.4355   -1.0465 C   0  0  1  0  0  0  0  0  0  0  0  0
    0.8675   -1.4520   -1.2139 H   0  0  0  0  0  0  0  0  0  0  0  0
   -0.6271   -0.1830   -2.0843 C   0  0  0  0  0  0  0  0  0  0  0  0
   -1.0167    0.8355   -1.9889 H   0  0  0  0  0  0  0  0  0  0  0  0
   -0.2592   -0.3242   -3.1039 H   0  0  0  0  0  0  0  0  0  0  0  0
   -1.4548   -0.8860   -1.9597 H   0  0  0  0  0  0  0  0  0  0  0  0
    1.6758    0.5587   -1.2680 C   0  0  0  0  0  0  0  0  0  0  0  0
    1.4432    1.5398   -0.8473 H   0  0  0  0  0  0  0  0  0  0  0  0
    2.5522    0.1718   -0.7381 H   0  0  0  0  0  0  0  0  0  0  0  0
    2.0540    0.8165   -2.7312 C   0  0  0  0  0  0  0  0  0  0  0  0
    1.2730    1.3832   -3.2471 H   0  0  0  0  0  0  0  0  0  0  0  0
    2.9782    1.4005   -2.7768 H   0  0  0  0  0  0  0  0  0  0  0  0
    2.2178   -0.1292   -3.2573 H   0  0  0  0  0  0  0  0  0  0  0  0
   -0.2358    1.0702    0.9659 C   0  0  0  0  0  0  0  0  0  0  0  0
   -1.2404    1.7212    0.6978 O   0  0  0  0  0  0  0  0  0  0  0  0
    0.7034    1.6063    1.8283 N   0  0  0  0  0  0  0  0  0  0  0  0
    1.5038    1.0297    2.0711 H   0  0  0  0  0  0  0  0  0  0  0  0
    0.5812    2.9320    2.4219 C   0  0  0  0  0  0  0  0  0  0  0  0
   -0.3413    3.0069    3.0072 H   0  0  0  0  0  0  0  0  0  0  0  0
    1.4283    3.1285    3.0860 H   0  0  0  0  0  0  0  0  0  0  0  0
    0.5673    3.7005    1.6420 H   0  0  0  0  0  0  0  0  0  0  0  0
  1  2  1  0  0  0  0
  2  3  1  0  0  0  0
  2  4  1  0  0  0  0
  2  5  1  0  0  0  0
  5  6  2  0  0  0  0
  5  7  1  0  0  0  0
  7  8  1  0  0  0  0
  7  9  1  0  0  0  0
  9 10  1  0  0  0  0
  9 11  1  0  0  0  0
  9 24  1  0  0  0  0
 11 12  1  0  0  0  0
 11 13  1  0  0  0  0
 11 17  1  0  0  0  0
 13 14  1  0  0  0  0
 13 15  1  0  0  0  0
 13 16  1  0  0  0  0
 17 18  1  0  0  0  0
 17 19  1  0  0  0  0
 17 20  1  0  0  0  0
 20 21  1  0  0  0  0
 20 22  1  0  0  0  0
 20 23  1  0  0  0  0
 24 25  2  0  0  0  0
 24 26  1  0  0  0  0
 26 27  1  0  0  0  0
 26 28  1  0  0  0  0
 28 29  1  0  0  0  0
 28 30  1  0  0  0  0
 28 31  1  0  0  0  0
M  END
$$$$

  -OEChem-03222214053D

 31 30  0     1  0  0  0  0  0999 V2000
   -2.9553   -3.8470    1.5852 H   0  0  0  0  0  0  0  0  0  0  0  0
   -2.9791   -2.8362    1.1687 C   0  0  0  0  0  0  0  0  0  0  0  0
   -3.5446   -2.1903    1.8446 H   0  0  0  0  0  0  0  0  0  0  0  0
   -3.4814   -2.8662    0.1989 H   0  0  0  0  0  0  0  0  0  0  0  0
   -1.5678   -2.3051    1.0031 C   0  0  0  0  0  0  0  0  0  0  0  0
   -0.6118   -3.0074    1.2927 O   0  0  0  0  0  0  0  0  0  0  0  0
   -1.3694   -1.0249    0.5321 N   0  0  0  0  0  0  0  0  0  0  0  0
   -2.1912   -0.4386    0.3912 H   0  0  0  0  0  0  0  0  0  0  0  0
   -0.0580   -0.3654    0.4194 C   0  0  1  0  0  0  0  0  0  0  0  0
    0.6691   -0.8672    1.0660 H   0  0  0  0  0  0  0  0  0  0  0  0
    0.4903   -0.4313   -1.0495 C   0  0  1  0  0  0  0  0  0  0  0  0
    0.8589   -1.4484   -1.2207 H   0  0  0  0  0  0  0  0  0  0  0  0
   -0.6530   -0.1982   -2.0713 C   0  0  0  0  0  0  0  0  0  0  0  0
   -1.0731    0.8060   -1.9560 H   0  0  0  0  0  0  0  0  0  0  0  0
   -0.2958   -0.3150   -3.0977 H   0  0  0  0  0  0  0  0  0  0  0  0
   -1.4572   -0.9284   -1.9476 H   0  0  0  0  0  0  0  0  0  0  0  0
    1.6813    0.5547   -1.2960 C   0  0  0  0  0  0  0  0  0  0  0  0
    1.6064    1.4338   -0.6554 H   0  0  0  0  0  0  0  0  0  0  0  0
    2.6055    0.0382   -1.0177 H   0  0  0  0  0  0  0  0  0  0  0  0
    1.8375    1.1054   -2.7192 C   0  0  0  0  0  0  0  0  0  0  0  0
    0.9877    1.7381   -2.9933 H   0  0  0  0  0  0  0  0  0  0  0  0
    2.7443    1.7145   -2.7830 H   0  0  0  0  0  0  0  0  0  0  0  0
    1.9249    0.2872   -3.4407 H   0  0  0  0  0  0  0  0  0  0  0  0
   -0.2377    1.0653    0.9797 C   0  0  0  0  0  0  0  0  0  0  0  0
   -1.2418    1.7154    0.7071 O   0  0  0  0  0  0  0  0  0  0  0  0
    0.6967    1.6041    1.8463 N   0  0  0  0  0  0  0  0  0  0  0  0
    1.4993    1.0305    2.0894 H   0  0  0  0  0  0  0  0  0  0  0  0
    0.5736    2.9330    2.4325 C   0  0  0  0  0  0  0  0  0  0  0  0
   -0.3600    3.0186    2.9986 H   0  0  0  0  0  0  0  0  0  0  0  0
    1.4082    3.1249    3.1135 H   0  0  0  0  0  0  0  0  0  0  0  0
    0.5826    3.6982    1.6493 H   0  0  0  0  0  0  0  0  0  0  0  0
  1  2  1  0  0  0  0
  2  3  1  0  0  0  0
  2  4  1  0  0  0  0
  2  5  1  0  0  0  0
  5  6  2  0  0  0  0
  5  7  1  0  0  0  0
  7  8  1  0  0  0  0
  7  9  1  0  0  0  0
  9 10  1  0  0  0  0
  9 11  1  0  0  0  0
  9 24  1  0  0  0  0
 11 12  1  0  0  0  0
 11 13  1  0  0  0  0
 11 17  1  0  0  0  0
 13 14  1  0  0  0  0
 13 15  1  0  0  0  0
 13 16  1  0  0  0  0
 17 18  1  0  0  0  0
 17 19  1  0  0  0  0
 17 20  1  0  0  0  0
 20 21  1  0  0  0  0
 20 22  1  0  0  0  0
 20 23  1  0  0  0  0
 24 25  2  0  0  0  0
 24 26  1  0  0  0  0
 26 27  1  0  0  0  0
 26 28  1  0  0  0  0
 28 29  1  0  0  0  0
 28 30  1  0  0  0  0
 28 31  1  0  0  0  0
M  END
$$$$

  -OEChem-03222214053D

 31 30  0     1  0  0  0  0  0999 V2000
   -2.9618   -3.8342    1.5954 H   0  0  0  0  0  0  0  0  0  0  0  0
   -2.9820   -2.8218    1.1822 C   0  0  0  0  0  0  0  0  0  0  0  0
   -3.5359   -2.1735    1.8657 H   0  0  0  0  0  0  0  0  0  0  0  0
   -3.4940   -2.8449    0.2171 H   0  0  0  0  0  0  0  0  0  0  0  0
   -1.5683   -2.3003    1.0048 C   0  0  0  0  0  0  0  0  0  0  0  0
   -0.6149   -3.0061    1.2943 O   0  0  0  0  0  0  0  0  0  0  0  0
   -1.3650   -1.0225    0.5298 N   0  0  0  0  0  0  0  0  0  0  0  0
   -2.1841   -0.4307    0.3954 H   0  0  0  0  0  0  0  0  0  0  0  0
   -0.0502   -0.3697    0.4164 C   0  0  1  0  0  0  0  0  0  0  0  0
    0.6804   -0.8742    1.0570 H   0  0  0  0  0  0  0  0  0  0  0  0
    0.4806   -0.4250   -1.0586 C   0  0  1  0  0  0  0  0  0  0  0  0
    0.8545   -1.4413   -1.2235 H   0  0  0  0  0  0  0  0  0  0  0  0
   -0.6687   -0.2227   -2.0789 C   0  0  0  0  0  0  0  0  0  0  0  0
   -1.1361    0.7582   -1.9487 H   0  0  0  0  0  0  0  0  0  0  0  0
   -0.3020   -0.3071   -3.1051 H   0  0  0  0  0  0  0  0  0  0  0  0
   -1.4386   -0.9909   -1.9667 H   0  0  0  0  0  0  0  0  0  0  0  0
    1.6777    0.5543   -1.3129 C   0  0  0  0  0  0  0  0  0  0  0  0
    1.8030    1.2539   -0.4870 H   0  0  0  0  0  0  0  0  0  0  0  0
    2.5912   -0.0487   -1.3375 H   0  0  0  0  0  0  0  0  0  0  0  0
    1.6424    1.3981   -2.5939 C   0  0  0  0  0  0  0  0  0  0  0  0
    0.7616    2.0472   -2.6113 H   0  0  0  0  0  0  0  0  0  0  0  0
    2.5312    2.0346   -2.6403 H   0  0  0  0  0  0  0  0  0  0  0  0
    1.6392    0.7593   -3.4820 H   0  0  0  0  0  0  0  0  0  0  0  0
   -0.2331    1.0628    0.9744 C   0  0  0  0  0  0  0  0  0  0  0  0
   -1.2383    1.7106    0.6995 O   0  0  0  0  0  0  0  0  0  0  0  0
    0.6965    1.6060    1.8437 N   0  0  0  0  0  0  0  0  0  0  0  0
    1.4963    1.0326    2.0964 H   0  0  0  0  0  0  0  0  0  0  0  0
    0.5594    2.9291    2.4397 C   0  0  0  0  0  0  0  0  0  0  0  0
   -0.3653    2.9938    3.0227 H   0  0  0  0  0  0  0  0  0  0  0  0
    1.4025    3.1328    3.1067 H   0  0  0  0  0  0  0  0  0  0  0  0
    0.5403    3.6991    1.6614 H   0  0  0  0  0  0  0  0  0  0  0  0
  1  2  1  0  0  0  0
  2  3  1  0  0  0  0
  2  4  1  0  0  0  0
  2  5  1  0  0  0  0
  5  6  2  0  0  0  0
  5  7  1  0  0  0  0
  7  8  1  0  0  0  0
  7  9  1  0  0  0  0
  9 10  1  0  0  0  0
  9 11  1  0  0  0  0
  9 24  1  0  0  0  0
 11 12  1  0  0  0  0
 11 13  1  0  0  0  0
 11 17  1  0  0  0  0
 13 14  1  0  0  0  0
 13 15  1  0  0  0  0
 13 16  1  0  0  0  0
 17 18  1  0  0  0  0
 17 19  1  0  0  0  0
 17 20  1  0  0  0  0
 20 21  1  0  0  0  0
 20 22  1  0  0  0  0
 20 23  1  0  0  0  0
 24 25  2  0  0  0  0
 24 26  1  0  0  0  0
 26 27  1  0  0  0  0
 26 28  1  0  0  0  0
 28 29  1  0  0  0  0
 28 30  1  0  0  0  0
 28 31  1  0  0  0  0
M  END
$$$$

  -OEChem-03222214053D

 31 30  0     1  0  0  0  0  0999 V2000
   -2.9638   -3.8343    1.6029 H   0  0  0  0  0  0  0  0  0  0  0  0
   -2.9842   -2.8230    1.1877 C   0  0  0  0  0  0  0  0  0  0  0  0
   -3.5358   -2.1726    1.8708 H   0  0  0  0  0  0  0  0  0  0  0  0
   -3.4978   -2.8478    0.2237 H   0  0  0  0  0  0  0  0  0  0  0  0
   -1.5704   -2.3042    1.0068 C   0  0  0  0  0  0  0  0  0  0  0  0
   -0.6176   -3.0103    1.2975 O   0  0  0  0  0  0  0  0  0  0  0  0
   -1.3658   -1.0288    0.5263 N   0  0  0  0  0  0  0  0  0  0  0  0
   -2.1838   -0.4359    0.3906 H   0  0  0  0  0  0  0  0  0  0  0  0
   -0.0508   -0.3773    0.4155 C   0  0  1  0  0  0  0  0  0  0  0  0
    0.6821   -0.8825    1.0529 H   0  0  0  0  0  0  0  0  0  0  0  0
    0.4680   -0.4185   -1.0598 C   0  0  1  0  0  0  0  0  0  0  0  0
    0.8555   -1.4314   -1.2150 H   0  0  0  0  0  0  0  0  0  0  0  0
   -0.6709   -0.2392   -2.0926 C   0  0  0  0  0  0  0  0  0  0  0  0
   -1.1771    0.7213   -1.9558 H   0  0  0  0  0  0  0  0  0  0  0  0
   -0.2799   -0.2931   -3.1123 H   0  0  0  0  0  0  0  0  0  0  0  0
   -1.4138   -1.0367   -2.0009 H   0  0  0  0  0  0  0  0  0  0  0  0
    1.6621    0.5622   -1.2991 C   0  0  0  0  0  0  0  0  0  0  0  0
    1.9827    1.0293   -0.3667 H   0  0  0  0  0  0  0  0  0  0  0  0
    2.5116   -0.0424   -1.6334 H   0  0  0  0  0  0  0  0  0  0  0  0
    1.4654    1.6649   -2.3478 C   0  0  0  0  0  0  0  0  0  0  0  0
    0.6040    2.2904   -2.0936 H   0  0  0  0  0  0  0  0  0  0  0  0
    2.3522    2.3050   -2.3791 H   0  0  0  0  0  0  0  0  0  0  0  0
    1.3221    1.2426   -3.3463 H   0  0  0  0  0  0  0  0  0  0  0  0
   -0.2281    1.0595    0.9643 C   0  0  0  0  0  0  0  0  0  0  0  0
   -1.2315    1.7080    0.6843 O   0  0  0  0  0  0  0  0  0  0  0  0
    0.7001    1.6059    1.8328 N   0  0  0  0  0  0  0  0  0  0  0  0
    1.4956    1.0309    2.0942 H   0  0  0  0  0  0  0  0  0  0  0  0
    0.5667    2.9347    2.4170 C   0  0  0  0  0  0  0  0  0  0  0  0
   -0.3534    3.0047    3.0067 H   0  0  0  0  0  0  0  0  0  0  0  0
    1.4153    3.1453    3.0749 H   0  0  0  0  0  0  0  0  0  0  0  0
    0.5408    3.6967    1.6310 H   0  0  0  0  0  0  0  0  0  0  0  0
  1  2  1  0  0  0  0
  2  3  1  0  0  0  0
  2  4  1  0  0  0  0
  2  5  1  0  0  0  0
  5  6  2  0  0  0  0
  5  7  1  0  0  0  0
  7  8  1  0  0  0  0
  7  9  1  0  0  0  0
  9 10  1  0  0  0  0
  9 11  1  0  0  0  0
  9 24  1  0  0  0  0
 11 12  1  0  0  0  0
 11 13  1  0  0  0  0
 11 17  1  0  0  0  0
 13 14  1  0  0  0  0
 13 15  1  0  0  0  0
 13 16  1  0  0  0  0
 17 18  1  0  0  0  0
 17 19  1  0  0  0  0
 17 20  1  0  0  0  0
 20 21  1  0  0  0  0
 20 22  1  0  0  0  0
 20 23  1  0  0  0  0
 24 25  2  0  0  0  0
 24 26  1  0  0  0  0
 26 27  1  0  0  0  0
 26 28  1  0  0  0  0
 28 29  1  0  0  0  0
 28 30  1  0  0  0  0
 28 31  1  0  0  0  0
M  END
$$$$

  -OEChem-03222214053D

 31 30  0     1  0  0  0  0  0999 V2000
   -2.9637   -3.8453    1.5908 H   0  0  0  0  0  0  0  0  0  0  0  0
   -2.9860   -2.8327    1.1788 C   0  0  0  0  0  0  0  0  0  0  0  0
   -3.5437   -2.1868    1.8611 H   0  0  0  0  0  0  0  0  0  0  0  0
   -3.4951   -2.8564    0.2124 H   0  0  0  0  0  0  0  0  0  0  0  0
   -1.5738   -2.3068    1.0066 C   0  0  0  0  0  0  0  0  0  0  0  0
   -0.6191   -3.0079    1.3029 O   0  0  0  0  0  0  0  0  0  0  0  0
   -1.3736   -1.0307    0.5263 N   0  0  0  0  0  0  0  0  0  0  0  0
   -2.1945   -0.4435    0.3845 H   0  0  0  0  0  0  0  0  0  0  0  0
   -0.0625   -0.3718    0.4184 C   0  0  1  0  0  0  0  0  0  0  0  0
    0.6691   -0.8764    1.0579 H   0  0  0  0  0  0  0  0  0  0  0  0
    0.4616   -0.4139   -1.0507 C   0  0  1  0  0  0  0  0  0  0  0  0
    0.8624   -1.4235   -1.1933 H   0  0  0  0  0  0  0  0  0  0  0  0
   -0.6586   -0.2463   -2.1017 C   0  0  0  0  0  0  0  0  0  0  0  0
   -1.1978    0.6950   -1.9563 H   0  0  0  0  0  0  0  0  0  0  0  0
   -0.2385   -0.2619   -3.1118 H   0  0  0  0  0  0  0  0  0  0  0  0
   -1.3774   -1.0686   -2.0399 H   0  0  0  0  0  0  0  0  0  0  0  0
    1.6452    0.5731   -1.2797 C   0  0  0  0  0  0  0  0  0  0  0  0
    2.1185    0.8296   -0.3282 H   0  0  0  0  0  0  0  0  0  0  0  0
    2.4052    0.0414   -1.8618 H   0  0  0  0  0  0  0  0  0  0  0  0
    1.3236    1.8619   -2.0499 C   0  0  0  0  0  0  0  0  0  0  0  0
    0.5153    2.4137   -1.5600 H   0  0  0  0  0  0  0  0  0  0  0  0
    2.2081    2.5054   -2.0786 H   0  0  0  0  0  0  0  0  0  0  0  0
    1.0321    1.6468   -3.0818 H   0  0  0  0  0  0  0  0  0  0  0  0
   -0.2268    1.0674    0.9614 C   0  0  0  0  0  0  0  0  0  0  0  0
   -1.2317    1.7175    0.6907 O   0  0  0  0  0  0  0  0  0  0  0  0
    0.7090    1.6084    1.8246 N   0  0  0  0  0  0  0  0  0  0  0  0
    1.5049    1.0306    2.0787 H   0  0  0  0  0  0  0  0  0  0  0  0
    0.5890    2.9403    2.4045 C   0  0  0  0  0  0  0  0  0  0  0  0
   -0.3273    3.0192    2.9989 H   0  0  0  0  0  0  0  0  0  0  0  0
    1.4428    3.1468    3.0571 H   0  0  0  0  0  0  0  0  0  0  0  0
    0.5647    3.6999    1.6161 H   0  0  0  0  0  0  0  0  0  0  0  0
  1  2  1  0  0  0  0
  2  3  1  0  0  0  0
  2  4  1  0  0  0  0
  2  5  1  0  0  0  0
  5  6  2  0  0  0  0
  5  7  1  0  0  0  0
  7  8  1  0  0  0  0
  7  9  1  0  0  0  0
  9 10  1  0  0  0  0
  9 11  1  0  0  0  0
  9 24  1  0  0  0  0
 11 12  1  0  0  0  0
 11 13  1  0  0  0  0
 11 17  1  0  0  0  0
 13 14  1  0  0  0  0
 13 15  1  0  0  0  0
 13 16  1  0  0  0  0
 17 18  1  0  0  0  0
 17 19  1  0  0  0  0
 17 20  1  0  0  0  0
 20 21  1  0  0  0  0
 20 22  1  0  0  0  0
 20 23  1  0  0  0  0
 24 25  2  0  0  0  0
 24 26  1  0  0  0  0
 26 27  1  0  0  0  0
 26 28  1  0  0  0  0
 28 29  1  0  0  0  0
 28 30  1  0  0  0  0
 28 31  1  0  0  0  0
M  END
$$$$

  -OEChem-03222214053D

 31 30  0     1  0  0  0  0  0999 V2000
   -2.9494   -3.8572    1.5719 H   0  0  0  0  0  0  0  0  0  0  0  0
   -2.9810   -2.8393    1.1735 C   0  0  0  0  0  0  0  0  0  0  0  0
   -3.5374   -2.2059    1.8686 H   0  0  0  0  0  0  0  0  0  0  0  0
   -3.4978   -2.8530    0.2109 H   0  0  0  0  0  0  0  0  0  0  0  0
   -1.5732   -2.3022    0.9971 C   0  0  0  0  0  0  0  0  0  0  0  0
   -0.6119   -3.0019    1.2749 O   0  0  0  0  0  0  0  0  0  0  0  0
   -1.3851   -1.0189    0.5309 N   0  0  0  0  0  0  0  0  0  0  0  0
   -2.2113   -0.4351    0.4080 H   0  0  0  0  0  0  0  0  0  0  0  0
   -0.0801   -0.3469    0.4255 C   0  0  1  0  0  0  0  0  0  0  0  0
    0.6467   -0.8498    1.0714 H   0  0  0  0  0  0  0  0  0  0  0  0
    0.4659   -0.4104   -1.0349 C   0  0  1  0  0  0  0  0  0  0  0  0
    0.8675   -1.4216   -1.1621 H   0  0  0  0  0  0  0  0  0  0  0  0
   -0.6416   -0.2389   -2.0954 C   0  0  0  0  0  0  0  0  0  0  0  0
   -1.2002    0.6883   -1.9333 H   0  0  0  0  0  0  0  0  0  0  0  0
   -0.2071   -0.2165   -3.0995 H   0  0  0  0  0  0  0  0  0  0  0  0
   -1.3446   -1.0764   -2.0609 H   0  0  0  0  0  0  0  0  0  0  0  0
    1.6397    0.5742   -1.2988 C   0  0  0  0  0  0  0  0  0  0  0  0
    2.2445    0.6634   -0.3911 H   0  0  0  0  0  0  0  0  0  0  0  0
    2.2841    0.1254   -2.0618 H   0  0  0  0  0  0  0  0  0  0  0  0
    1.2719    1.9835   -1.7938 C   0  0  0  0  0  0  0  0  0  0  0  0
    0.5824    2.4859   -1.1124 H   0  0  0  0  0  0  0  0  0  0  0  0
    2.1777    2.5927   -1.8683 H   0  0  0  0  0  0  0  0  0  0  0  0
    0.8123    1.9431   -2.7856 H   0  0  0  0  0  0  0  0  0  0  0  0
   -0.2407    1.0847    0.9817 C   0  0  0  0  0  0  0  0  0  0  0  0
   -1.2622    1.7242    0.7504 O   0  0  0  0  0  0  0  0  0  0  0  0
    0.7032    1.6155    1.8422 N   0  0  0  0  0  0  0  0  0  0  0  0
    1.5106    1.0418    2.0678 H   0  0  0  0  0  0  0  0  0  0  0  0
    0.5772    2.9319    2.4552 C   0  0  0  0  0  0  0  0  0  0  0  0
   -0.3302    2.9855    3.0658 H   0  0  0  0  0  0  0  0  0  0  0  0
    1.4390    3.1333    3.0986 H   0  0  0  0  0  0  0  0  0  0  0  0
    0.5308    3.7094    1.6854 H   0  0  0  0  0  0  0  0  0  0  0  0
  1  2  1  0  0  0  0
  2  3  1  0  0  0  0
  2  4  1  0  0  0  0
  2  5  1  0  0  0  0
  5  6  2  0  0  0  0
  5  7  1  0  0  0  0
  7  8  1  0  0  0  0
  7  9  1  0  0  0  0
  9 10  1  0  0  0  0
  9 11  1  0  0  0  0
  9 24  1  0  0  0  0
 11 12  1  0  0  0  0
 11 13  1  0  0  0  0
 11 17  1  0  0  0  0
 13 14  1  0  0  0  0
 13 15  1  0  0  0  0
 13 16  1  0  0  0  0
 17 18  1  0  0  0  0
 17 19  1  0  0  0  0
 17 20  1  0  0  0  0
 20 21  1  0  0  0  0
 20 22  1  0  0  0  0
 20 23  1  0  0  0  0
 24 25  2  0  0  0  0
 24 26  1  0  0  0  0
 26 27  1  0  0  0  0
 26 28  1  0  0  0  0
 28 29  1  0  0  0  0
 28 30  1  0  0  0  0
 28 31  1  0  0  0  0
M  END
$$$$

  -OEChem-03222214053D

 31 30  0     1  0  0  0  0  0999 V2000
   -2.9329   -3.8712    1.5392 H   0  0  0  0  0  0  0  0  0  0  0  0
   -2.9723   -2.8497    1.1503 C   0  0  0  0  0  0  0  0  0  0  0  0
   -3.5388   -2.2289    1.8487 H   0  0  0  0  0  0  0  0  0  0  0  0
   -3.4837   -2.8596    0.1847 H   0  0  0  0  0  0  0  0  0  0  0  0
   -1.5685   -2.2976    0.9872 C   0  0  0  0  0  0  0  0  0  0  0  0
   -0.6025   -2.9920    1.2622 O   0  0  0  0  0  0  0  0  0  0  0  0
   -1.3888   -1.0063    0.5397 N   0  0  0  0  0  0  0  0  0  0  0  0
   -2.2193   -0.4287    0.4160 H   0  0  0  0  0  0  0  0  0  0  0  0
   -0.0888   -0.3213    0.4494 C   0  0  1  0  0  0  0  0  0  0  0  0
    0.6342   -0.8215    1.1016 H   0  0  0  0  0  0  0  0  0  0  0  0
    0.4735   -0.4021   -1.0067 C   0  0  1  0  0  0  0  0  0  0  0  0
    0.8660   -1.4182   -1.1239 H   0  0  0  0  0  0  0  0  0  0  0  0
   -0.6343   -0.2269   -2.0664 C   0  0  0  0  0  0  0  0  0  0  0  0
   -1.2114    0.6846   -1.8819 H   0  0  0  0  0  0  0  0  0  0  0  0
   -0.2000   -0.1678   -3.0693 H   0  0  0  0  0  0  0  0  0  0  0  0
   -1.3202   -1.0792   -2.0545 H   0  0  0  0  0  0  0  0  0  0  0  0
    1.6448    0.5649   -1.3409 C   0  0  0  0  0  0  0  0  0  0  0  0
    2.3940    0.4877   -0.5466 H   0  0  0  0  0  0  0  0  0  0  0  0
    2.1175    0.2007   -2.2591 H   0  0  0  0  0  0  0  0  0  0  0  0
    1.3244    2.0555   -1.5579 C   0  0  0  0  0  0  0  0  0  0  0  0
    0.9895    2.5499   -0.6466 H   0  0  0  0  0  0  0  0  0  0  0  0
    2.2281    2.5722   -1.8951 H   0  0  0  0  0  0  0  0  0  0  0  0
    0.5584    2.1863   -2.3272 H   0  0  0  0  0  0  0  0  0  0  0  0
   -0.2675    1.0977    1.0243 C   0  0  0  0  0  0  0  0  0  0  0  0
   -1.2892    1.7358    0.7903 O   0  0  0  0  0  0  0  0  0  0  0  0
    0.6695    1.6202    1.8977 N   0  0  0  0  0  0  0  0  0  0  0  0
    1.4784    1.0467    2.1184 H   0  0  0  0  0  0  0  0  0  0  0  0
    0.5290    2.9212    2.5397 C   0  0  0  0  0  0  0  0  0  0  0  0
   -0.3804    2.9519    3.1490 H   0  0  0  0  0  0  0  0  0  0  0  0
    1.3873    3.1163    3.1897 H   0  0  0  0  0  0  0  0  0  0  0  0
    0.4771    3.7157    1.7880 H   0  0  0  0  0  0  0  0  0  0  0  0
  1  2  1  0  0  0  0
  2  3  1  0  0  0  0
  2  4  1  0  0  0  0
  2  5  1  0  0  0  0
  5  6  2  0  0  0  0
  5  7  1  0  0  0  0
  7  8  1  0  0  0  0
  7  9  1  0  0  0  0
  9 10  1  0  0  0  0
  9 11  1  0  0  0  0
  9 24  1  0  0  0  0
 11 12  1  0  0  0  0
 11 13  1  0  0  0  0
 11 17  1  0  0  0  0
 13 14  1  0  0  0  0
 13 15  1  0  0  0  0
 13 16  1  0  0  0  0
 17 18  1  0  0  0  0
 17 19  1  0  0  0  0
 17 20  1  0  0  0  0
 20 21  1  0  0  0  0
 20 22  1  0  0  0  0
 20 23  1  0  0  0  0
 24 25  2  0  0  0  0
 24 26  1  0  0  0  0
 26 27  1  0  0  0  0
 26 28  1  0  0  0  0
 28 29  1  0  0  0  0
 28 30  1  0  0  0  0
 28 31  1  0  0  0  0
M  END
$$$$

  -OEChem-03222214053D

 31 30  0     1  0  0  0  0  0999 V2000
   -2.9275   -3.8716    1.5145 H   0  0  0  0  0  0  0  0  0  0  0  0
   -2.9652   -2.8502    1.1257 C   0  0  0  0  0  0  0  0  0  0  0  0
   -3.5426   -2.2313    1.8169 H   0  0  0  0  0  0  0  0  0  0  0  0
   -3.4638   -2.8610    0.1536 H   0  0  0  0  0  0  0  0  0  0  0  0
   -1.5611   -2.2942    0.9812 C   0  0  0  0  0  0  0  0  0  0  0  0
   -0.5968   -2.9879    1.2640 O   0  0  0  0  0  0  0  0  0  0  0  0
   -1.3788   -1.0003    0.5423 N   0  0  0  0  0  0  0  0  0  0  0  0
   -2.2082   -0.4226    0.4119 H   0  0  0  0  0  0  0  0  0  0  0  0
   -0.0777   -0.3147    0.4725 C   0  0  1  0  0  0  0  0  0  0  0  0
    0.6424   -0.8141    1.1288 H   0  0  0  0  0  0  0  0  0  0  0  0
    0.4838   -0.4048   -0.9881 C   0  0  1  0  0  0  0  0  0  0  0  0
    0.8515   -1.4292   -1.1130 H   0  0  0  0  0  0  0  0  0  0  0  0
   -0.6319   -0.1977   -2.0387 C   0  0  0  0  0  0  0  0  0  0  0  0
   -1.1834    0.7278   -1.8478 H   0  0  0  0  0  0  0  0  0  0  0  0
   -0.2117   -0.1474   -3.0478 H   0  0  0  0  0  0  0  0  0  0  0  0
   -1.3400   -1.0316   -2.0238 H   0  0  0  0  0  0  0  0  0  0  0  0
    1.6606    0.5375   -1.3746 C   0  0  0  0  0  0  0  0  0  0  0  0
    2.5212    0.2827   -0.7480 H   0  0  0  0  0  0  0  0  0  0  0  0
    1.9465    0.3049   -2.4058 H   0  0  0  0  0  0  0  0  0  0  0  0
    1.4523    2.0565   -1.2858 C   0  0  0  0  0  0  0  0  0  0  0  0
    1.6015    2.4246   -0.2709 H   0  0  0  0  0  0  0  0  0  0  0  0
    2.1870    2.5602   -1.9211 H   0  0  0  0  0  0  0  0  0  0  0  0
    0.4549    2.3445   -1.6287 H   0  0  0  0  0  0  0  0  0  0  0  0
   -0.2845    1.0984    1.0566 C   0  0  0  0  0  0  0  0  0  0  0  0
   -1.3031    1.7329    0.7999 O   0  0  0  0  0  0  0  0  0  0  0  0
    0.6289    1.6251    1.9526 N   0  0  0  0  0  0  0  0  0  0  0  0
    1.4375    1.0571    2.1885 H   0  0  0  0  0  0  0  0  0  0  0  0
    0.4595    2.9188    2.6022 C   0  0  0  0  0  0  0  0  0  0  0  0
   -0.4575    2.9305    3.2005 H   0  0  0  0  0  0  0  0  0  0  0  0
    1.3065    3.1231    3.2641 H   0  0  0  0  0  0  0  0  0  0  0  0
    0.4037    3.7179    1.8556 H   0  0  0  0  0  0  0  0  0  0  0  0
  1  2  1  0  0  0  0
  2  3  1  0  0  0  0
  2  4  1  0  0  0  0
  2  5  1  0  0  0  0
  5  6  2  0  0  0  0
  5  7  1  0  0  0  0
  7  8  1  0  0  0  0
  7  9  1  0  0  0  0
  9 10  1  0  0  0  0
  9 11  1  0  0  0  0
  9 24  1  0  0  0  0
 11 12  1  0  0  0  0
 11 13  1  0  0  0  0
 11 17  1  0  0  0  0
 13 14  1  0  0  0  0
 13 15  1  0  0  0  0
 13 16  1  0  0  0  0
 17 18  1  0  0  0  0
 17 19  1  0  0  0  0
 17 20  1  0  0  0  0
 20 21  1  0  0  0  0
 20 22  1  0  0  0  0
 20 23  1  0  0  0  0
 24 25  2  0  0  0  0
 24 26  1  0  0  0  0
 26 27  1  0  0  0  0
 26 28  1  0  0  0  0
 28 29  1  0  0  0  0
 28 30  1  0  0  0  0
 28 31  1  0  0  0  0
M  END
$$$$

  -OEChem-03222214053D

 31 30  0     1  0  0  0  0  0999 V2000
   -2.9234   -3.8796    1.5014 H   0  0  0  0  0  0  0  0  0  0  0  0
   -2.9580   -2.8578    1.1132 C   0  0  0  0  0  0  0  0  0  0  0  0
   -3.5485   -2.2414    1.7954 H   0  0  0  0  0  0  0  0  0  0  0  0
   -3.4403   -2.8691    0.1328 H   0  0  0  0  0  0  0  0  0  0  0  0
   -1.5538   -2.2972    0.9921 C   0  0  0  0  0  0  0  0  0  0  0  0
   -0.5911   -2.9903    1.2811 O   0  0  0  0  0  0  0  0  0  0  0  0
   -1.3688   -1.0015    0.5606 N   0  0  0  0  0  0  0  0  0  0  0  0
   -2.1972   -0.4223    0.4282 H   0  0  0  0  0  0  0  0  0  0  0  0
   -0.0659   -0.3178    0.4963 C   0  0  1  0  0  0  0  0  0  0  0  0
    0.6568   -0.8150    1.1511 H   0  0  0  0  0  0  0  0  0  0  0  0
    0.4878   -0.4122   -0.9736 C   0  0  1  0  0  0  0  0  0  0  0  0
    0.8215   -1.4461   -1.1150 H   0  0  0  0  0  0  0  0  0  0  0  0
   -0.6424   -0.1538   -2.0022 C   0  0  0  0  0  0  0  0  0  0  0  0
   -1.1026    0.8248   -1.8339 H   0  0  0  0  0  0  0  0  0  0  0  0
   -0.2563   -0.1806   -3.0256 H   0  0  0  0  0  0  0  0  0  0  0  0
   -1.4201   -0.9203   -1.9412 H   0  0  0  0  0  0  0  0  0  0  0  0
    1.6696    0.5075   -1.4114 C   0  0  0  0  0  0  0  0  0  0  0  0
    2.5844    0.0876   -0.9812 H   0  0  0  0  0  0  0  0  0  0  0  0
    1.7860    0.4366   -2.4978 H   0  0  0  0  0  0  0  0  0  0  0  0
    1.6488    1.9928   -1.0421 C   0  0  0  0  0  0  0  0  0  0  0  0
    1.9853    2.1486   -0.0168 H   0  0  0  0  0  0  0  0  0  0  0  0
    2.3381    2.5385   -1.6935 H   0  0  0  0  0  0  0  0  0  0  0  0
    0.6499    2.4194   -1.1738 H   0  0  0  0  0  0  0  0  0  0  0  0
   -0.3033    1.0874    1.0939 C   0  0  0  0  0  0  0  0  0  0  0  0
   -1.3271    1.7101    0.8276 O   0  0  0  0  0  0  0  0  0  0  0  0
    0.5885    1.6255    2.0045 N   0  0  0  0  0  0  0  0  0  0  0  0
    1.4086    1.0745    2.2409 H   0  0  0  0  0  0  0  0  0  0  0  0
    0.3981    2.9212    2.6445 C   0  0  0  0  0  0  0  0  0  0  0  0
   -0.5459    2.9407    3.1993 H   0  0  0  0  0  0  0  0  0  0  0  0
    1.2143    3.1199    3.3457 H   0  0  0  0  0  0  0  0  0  0  0  0
    0.3834    3.7192    1.8947 H   0  0  0  0  0  0  0  0  0  0  0  0
  1  2  1  0  0  0  0
  2  3  1  0  0  0  0
  2  4  1  0  0  0  0
  2  5  1  0  0  0  0
  5  6  2  0  0  0  0
  5  7  1  0  0  0  0
  7  8  1  0  0  0  0
  7  9  1  0  0  0  0
  9 10  1  0  0  0  0
  9 11  1  0  0  0  0
  9 24  1  0  0  0  0
 11 12  1  0  0  0  0
 11 13  1  0  0  0  0
 11 17  1  0  0  0  0
 13 14  1  0  0  0  0
 13 15  1  0  0  0  0
 13 16  1  0  0  0  0
 17 18  1  0  0  0  0
 17 19  1  0  0  0  0
 17 20  1  0  0  0  0
 20 21  1  0  0  0  0
 20 22  1  0  0  0  0
 20 23  1  0  0  0  0
 24 25  2  0  0  0  0
 24 26  1  0  0  0  0
 26 27  1  0  0  0  0
 26 28  1  0  0  0  0
 28 29  1  0  0  0  0
 28 30  1  0  0  0  0
 28 31  1  0  0  0  0
M  END
$$$$

  -OEChem-03222214053D

 31 30  0     1  0  0  0  0  0999 V2000
   -2.9453   -3.8701    1.4940 H   0  0  0  0  0  0  0  0  0  0  0  0
   -2.9683   -2.8445    1.1153 C   0  0  0  0  0  0  0  0  0  0  0  0
   -3.5473   -2.2268    1.8061 H   0  0  0  0  0  0  0  0  0  0  0  0
   -3.4558   -2.8404    0.1374 H   0  0  0  0  0  0  0  0  0  0  0  0
   -1.5575   -2.3004    0.9924 C   0  0  0  0  0  0  0  0  0  0  0  0
   -0.6023   -3.0024    1.2851 O   0  0  0  0  0  0  0  0  0  0  0  0
   -1.3586   -1.0062    0.5628 N   0  0  0  0  0  0  0  0  0  0  0  0
   -2.1813   -0.4186    0.4294 H   0  0  0  0  0  0  0  0  0  0  0  0
   -0.0501   -0.3322    0.5074 C   0  0  1  0  0  0  0  0  0  0  0  0
    0.6726   -0.8312    1.1610 H   0  0  0  0  0  0  0  0  0  0  0  0
    0.4968   -0.4133   -0.9706 C   0  0  1  0  0  0  0  0  0  0  0  0
    0.8107   -1.4512   -1.1271 H   0  0  0  0  0  0  0  0  0  0  0  0
   -0.6397   -0.1301   -1.9887 C   0  0  0  0  0  0  0  0  0  0  0  0
   -1.0516    0.8724   -1.8359 H   0  0  0  0  0  0  0  0  0  0  0  0
   -0.2727   -0.1990   -3.0172 H   0  0  0  0  0  0  0  0  0  0  0  0
   -1.4503   -0.8589   -1.9041 H   0  0  0  0  0  0  0  0  0  0  0  0
    1.6894    0.4929   -1.4260 C   0  0  0  0  0  0  0  0  0  0  0  0
    2.6050   -0.0754   -1.2321 H   0  0  0  0  0  0  0  0  0  0  0  0
    1.6514    0.6364   -2.5105 H   0  0  0  0  0  0  0  0  0  0  0  0
    1.9019    1.8660   -0.7933 C   0  0  0  0  0  0  0  0  0  0  0  0
    2.2798    1.7679    0.2256 H   0  0  0  0  0  0  0  0  0  0  0  0
    2.6521    2.4193   -1.3664 H   0  0  0  0  0  0  0  0  0  0  0  0
    0.9771    2.4505   -0.8008 H   0  0  0  0  0  0  0  0  0  0  0  0
   -0.3162    1.0685    1.1102 C   0  0  0  0  0  0  0  0  0  0  0  0
   -1.3365    1.6857    0.8173 O   0  0  0  0  0  0  0  0  0  0  0  0
    0.5480    1.6220    2.0381 N   0  0  0  0  0  0  0  0  0  0  0  0
    1.3663    1.0802    2.3000 H   0  0  0  0  0  0  0  0  0  0  0  0
    0.3269    2.9177    2.6682 C   0  0  0  0  0  0  0  0  0  0  0  0
   -0.6231    2.9219    3.2132 H   0  0  0  0  0  0  0  0  0  0  0  0
    1.1322    3.1366    3.3760 H   0  0  0  0  0  0  0  0  0  0  0  0
    0.3045    3.7108    1.9135 H   0  0  0  0  0  0  0  0  0  0  0  0
  1  2  1  0  0  0  0
  2  3  1  0  0  0  0
  2  4  1  0  0  0  0
  2  5  1  0  0  0  0
  5  6  2  0  0  0  0
  5  7  1  0  0  0  0
  7  8  1  0  0  0  0
  7  9  1  0  0  0  0
  9 10  1  0  0  0  0
  9 11  1  0  0  0  0
  9 24  1  0  0  0  0
 11 12  1  0  0  0  0
 11 13  1  0  0  0  0
 11 17  1  0  0  0  0
 13 14  1  0  0  0  0
 13 15  1  0  0  0  0
 13 16  1  0  0  0  0
 17 18  1  0  0  0  0
 17 19  1  0  0  0  0
 17 20  1  0  0  0  0
 20 21  1  0  0  0  0
 20 22  1  0  0  0  0
 20 23  1  0  0  0  0
 24 25  2  0  0  0  0
 24 26  1  0  0  0  0
 26 27  1  0  0  0  0
 26 28  1  0  0  0  0
 28 29  1  0  0  0  0
 28 30  1  0  0  0  0
 28 31  1  0  0  0  0
M  END
$$$$

  -OEChem-03222214053D

 31 30  0     1  0  0  0  0  0999 V2000
   -2.9625   -3.8584    1.4908 H   0  0  0  0  0  0  0  0  0  0  0  0
   -2.9774   -2.8357    1.1038 C   0  0  0  0  0  0  0  0  0  0  0  0
   -3.5683   -2.2121    1.7790 H   0  0  0  0  0  0  0  0  0  0  0  0
   -3.4468   -2.8388    0.1170 H   0  0  0  0  0  0  0  0  0  0  0  0
   -1.5638   -2.2949    1.0016 C   0  0  0  0  0  0  0  0  0  0  0  0
   -0.6148   -2.9984    1.3105 O   0  0  0  0  0  0  0  0  0  0  0  0
   -1.3546   -1.0043    0.5664 N   0  0  0  0  0  0  0  0  0  0  0  0
   -2.1725   -0.4134    0.4194 H   0  0  0  0  0  0  0  0  0  0  0  0
   -0.0418   -0.3385    0.5195 C   0  0  1  0  0  0  0  0  0  0  0  0
    0.6787   -0.8371    1.1756 H   0  0  0  0  0  0  0  0  0  0  0  0
    0.5013   -0.4108   -0.9607 C   0  0  1  0  0  0  0  0  0  0  0  0
    0.8169   -1.4494   -1.1102 H   0  0  0  0  0  0  0  0  0  0  0  0
   -0.6315   -0.1452   -1.9870 C   0  0  0  0  0  0  0  0  0  0  0  0
   -1.0485    0.8572   -1.8472 H   0  0  0  0  0  0  0  0  0  0  0  0
   -0.2548   -0.2245   -3.0116 H   0  0  0  0  0  0  0  0  0  0  0  0
   -1.4389   -0.8772   -1.9000 H   0  0  0  0  0  0  0  0  0  0  0  0
    1.7021    0.4889   -1.4161 C   0  0  0  0  0  0  0  0  0  0  0  0
    2.5721   -0.1717   -1.4919 H   0  0  0  0  0  0  0  0  0  0  0  0
    1.5260    0.8730   -2.4259 H   0  0  0  0  0  0  0  0  0  0  0  0
    2.1429    1.6762   -0.5667 C   0  0  0  0  0  0  0  0  0  0  0  0
    2.4797    1.3408    0.4169 H   0  0  0  0  0  0  0  0  0  0  0  0
    2.9853    2.1793   -1.0511 H   0  0  0  0  0  0  0  0  0  0  0  0
    1.3355    2.4069   -0.4655 H   0  0  0  0  0  0  0  0  0  0  0  0
   -0.3201    1.0652    1.1144 C   0  0  0  0  0  0  0  0  0  0  0  0
   -1.3341    1.6822    0.7993 O   0  0  0  0  0  0  0  0  0  0  0  0
    0.5284    1.6276    2.0518 N   0  0  0  0  0  0  0  0  0  0  0  0
    1.3442    1.0895    2.3289 H   0  0  0  0  0  0  0  0  0  0  0  0
    0.2983    2.9293    2.6664 C   0  0  0  0  0  0  0  0  0  0  0  0
   -0.6652    2.9432    3.1866 H   0  0  0  0  0  0  0  0  0  0  0  0
    1.0862    3.1483    3.3932 H   0  0  0  0  0  0  0  0  0  0  0  0
    0.3001    3.7169    1.9056 H   0  0  0  0  0  0  0  0  0  0  0  0
  1  2  1  0  0  0  0
  2  3  1  0  0  0  0
  2  4  1  0  0  0  0
  2  5  1  0  0  0  0
  5  6  2  0  0  0  0
  5  7  1  0  0  0  0
  7  8  1  0  0  0  0
  7  9  1  0  0  0  0
  9 10  1  0  0  0  0
  9 11  1  0  0  0  0
  9 24  1  0  0  0  0
 11 12  1  0  0  0  0
 11 13  1  0  0  0  0
 11 17  1  0  0  0  0
 13 14  1  0  0  0  0
 13 15  1  0  0  0  0
 13 16  1  0  0  0  0
 17 18  1  0  0  0  0
 17 19  1  0  0  0  0
 17 20  1  0  0  0  0
 20 21  1  0  0  0  0
 20 22  1  0  0  0  0
 20 23  1  0  0  0  0
 24 25  2  0  0  0  0
 24 26  1  0  0  0  0
 26 27  1  0  0  0  0
 26 28  1  0  0  0  0
 28 29  1  0  0  0  0
 28 30  1  0  0  0  0
 28 31  1  0  0  0  0
M  END
$$$$

  -OEChem-03222214053D

 31 30  0     1  0  0  0  0  0999 V2000
   -2.9711   -3.8464    1.4935 H   0  0  0  0  0  0  0  0  0  0  0  0
   -2.9805   -2.8250    1.1031 C   0  0  0  0  0  0  0  0  0  0  0  0
   -3.5706   -2.1963    1.7744 H   0  0  0  0  0  0  0  0  0  0  0  0
   -3.4465   -2.8289    0.1148 H   0  0  0  0  0  0  0  0  0  0  0  0
   -1.5646   -2.2900    1.0044 C   0  0  0  0  0  0  0  0  0  0  0  0
   -0.6194   -2.9935    1.3249 O   0  0  0  0  0  0  0  0  0  0  0  0
   -1.3497   -1.0021    0.5638 N   0  0  0  0  0  0  0  0  0  0  0  0
   -2.1655   -0.4113    0.4053 H   0  0  0  0  0  0  0  0  0  0  0  0
   -0.0355   -0.3392    0.5227 C   0  0  1  0  0  0  0  0  0  0  0  0
    0.6833   -0.8398    1.1791 H   0  0  0  0  0  0  0  0  0  0  0  0
    0.5018   -0.4055   -0.9570 C   0  0  1  0  0  0  0  0  0  0  0  0
    0.8336   -1.4413   -1.0900 H   0  0  0  0  0  0  0  0  0  0  0  0
   -0.6221   -0.1724   -1.9981 C   0  0  0  0  0  0  0  0  0  0  0  0
   -1.0800    0.8118   -1.8566 H   0  0  0  0  0  0  0  0  0  0  0  0
   -0.2216   -0.2258   -3.0155 H   0  0  0  0  0  0  0  0  0  0  0  0
   -1.4017   -0.9362   -1.9282 H   0  0  0  0  0  0  0  0  0  0  0  0
    1.7024    0.4942   -1.4055 C   0  0  0  0  0  0  0  0  0  0  0  0
    2.4851   -0.1818   -1.7657 H   0  0  0  0  0  0  0  0  0  0  0  0
    1.4113    1.1133   -2.2607 H   0  0  0  0  0  0  0  0  0  0  0  0
    2.3565    1.4375   -0.4008 C   0  0  0  0  0  0  0  0  0  0  0  0
    2.6113    0.9079    0.5213 H   0  0  0  0  0  0  0  0  0  0  0  0
    3.2819    1.8391   -0.8247 H   0  0  0  0  0  0  0  0  0  0  0  0
    1.7022    2.2857   -0.1843 H   0  0  0  0  0  0  0  0  0  0  0  0
   -0.3078    1.0702    1.1075 C   0  0  0  0  0  0  0  0  0  0  0  0
   -1.3168    1.6904    0.7833 O   0  0  0  0  0  0  0  0  0  0  0  0
    0.5387    1.6338    2.0464 N   0  0  0  0  0  0  0  0  0  0  0  0
    1.3486    1.0918    2.3331 H   0  0  0  0  0  0  0  0  0  0  0  0
    0.3061    2.9344    2.6624 C   0  0  0  0  0  0  0  0  0  0  0  0
   -0.6545    2.9440    3.1880 H   0  0  0  0  0  0  0  0  0  0  0  0
    1.0968    3.1571    3.3853 H   0  0  0  0  0  0  0  0  0  0  0  0
    0.3003    3.7227    1.9024 H   0  0  0  0  0  0  0  0  0  0  0  0
  1  2  1  0  0  0  0
  2  3  1  0  0  0  0
  2  4  1  0  0  0  0
  2  5  1  0  0  0  0
  5  6  2  0  0  0  0
  5  7  1  0  0  0  0
  7  8  1  0  0  0  0
  7  9  1  0  0  0  0
  9 10  1  0  0  0  0
  9 11  1  0  0  0  0
  9 24  1  0  0  0  0
 11 12  1  0  0  0  0
 11 13  1  0  0  0  0
 11 17  1  0  0  0  0
 13 14  1  0  0  0  0
 13 15  1  0  0  0  0
 13 16  1  0  0  0  0
 17 18  1  0  0  0  0
 17 19  1  0  0  0  0
 17 20  1  0  0  0  0
 20 21  1  0  0  0  0
 20 22  1  0  0  0  0
 20 23  1  0  0  0  0
 24 25  2  0  0  0  0
 24 26  1  0  0  0  0
 26 27  1  0  0  0  0
 26 28  1  0  0  0  0
 28 29  1  0  0  0  0
 28 30  1  0  0  0  0
 28 31  1  0  0  0  0
M  END
$$$$

  -OEChem-03222214053D

 31 30  0     1  0  0  0  0  0999 V2000
   -2.9865   -3.8292    1.5273 H   0  0  0  0  0  0  0  0  0  0  0  0
   -2.9915   -2.8096    1.1319 C   0  0  0  0  0  0  0  0  0  0  0  0
   -3.5729   -2.1740    1.8042 H   0  0  0  0  0  0  0  0  0  0  0  0
   -3.4646   -2.8156    0.1470 H   0  0  0  0  0  0  0  0  0  0  0  0
   -1.5728   -2.2841    1.0204 C   0  0  0  0  0  0  0  0  0  0  0  0
   -0.6300   -2.9933    1.3354 O   0  0  0  0  0  0  0  0  0  0  0  0
   -1.3529   -0.9993    0.5735 N   0  0  0  0  0  0  0  0  0  0  0  0
   -2.1662   -0.4043    0.4189 H   0  0  0  0  0  0  0  0  0  0  0  0
   -0.0349   -0.3451    0.5205 C   0  0  1  0  0  0  0  0  0  0  0  0
    0.6869   -0.8550    1.1665 H   0  0  0  0  0  0  0  0  0  0  0  0
    0.4792   -0.4030   -0.9630 C   0  0  1  0  0  0  0  0  0  0  0  0
    0.8148   -1.4371   -1.0983 H   0  0  0  0  0  0  0  0  0  0  0  0
   -0.6446   -0.1658   -1.9990 C   0  0  0  0  0  0  0  0  0  0  0  0
   -1.1225    0.8052   -1.8353 H   0  0  0  0  0  0  0  0  0  0  0  0
   -0.2374   -0.1837   -3.0150 H   0  0  0  0  0  0  0  0  0  0  0  0
   -1.4084   -0.9469   -1.9459 H   0  0  0  0  0  0  0  0  0  0  0  0
    1.6754    0.4956   -1.4052 C   0  0  0  0  0  0  0  0  0  0  0  0
    2.3269   -0.1219   -2.0329 H   0  0  0  0  0  0  0  0  0  0  0  0
    1.3102    1.3127   -2.0373 H   0  0  0  0  0  0  0  0  0  0  0  0
    2.5430    1.1424   -0.3269 C   0  0  0  0  0  0  0  0  0  0  0  0
    2.7187    0.4536    0.5043 H   0  0  0  0  0  0  0  0  0  0  0  0
    2.0819    2.0626    0.0373 H   0  0  0  0  0  0  0  0  0  0  0  0
    3.5132    1.4143   -0.7537 H   0  0  0  0  0  0  0  0  0  0  0  0
   -0.2736    1.0720    1.0988 C   0  0  0  0  0  0  0  0  0  0  0  0
   -1.2763    1.7066    0.7842 O   0  0  0  0  0  0  0  0  0  0  0  0
    0.5944    1.6250    2.0237 N   0  0  0  0  0  0  0  0  0  0  0  0
    1.4011    1.0725    2.2990 H   0  0  0  0  0  0  0  0  0  0  0  0
    0.3953    2.9351    2.6311 C   0  0  0  0  0  0  0  0  0  0  0  0
   -0.5616    2.9707    3.1626 H   0  0  0  0  0  0  0  0  0  0  0  0
    1.1956    3.1447    3.3472 H   0  0  0  0  0  0  0  0  0  0  0  0
    0.4028    3.7172    1.8647 H   0  0  0  0  0  0  0  0  0  0  0  0
  1  2  1  0  0  0  0
  2  3  1  0  0  0  0
  2  4  1  0  0  0  0
  2  5  1  0  0  0  0
  5  6  2  0  0  0  0
  5  7  1  0  0  0  0
  7  8  1  0  0  0  0
  7  9  1  0  0  0  0
  9 10  1  0  0  0  0
  9 11  1  0  0  0  0
  9 24  1  0  0  0  0
 11 12  1  0  0  0  0
 11 13  1  0  0  0  0
 11 17  1  0  0  0  0
 13 14  1  0  0  0  0
 13 15  1  0  0  0  0
 13 16  1  0  0  0  0
 17 18  1  0  0  0  0
 17 19  1  0  0  0  0
 17 20  1  0  0  0  0
 20 21  1  0  0  0  0
 20 22  1  0  0  0  0
 20 23  1  0  0  0  0
 24 25  2  0  0  0  0
 24 26  1  0  0  0  0
 26 27  1  0  0  0  0
 26 28  1  0  0  0  0
 28 29  1  0  0  0  0
 28 30  1  0  0  0  0
 28 31  1  0  0  0  0
M  END
$$$$

  -OEChem-03222214053D

 31 30  0     1  0  0  0  0  0999 V2000
   -2.9897   -3.8395    1.4933 H   0  0  0  0  0  0  0  0  0  0  0  0
   -2.9915   -2.8206    1.0962 C   0  0  0  0  0  0  0  0  0  0  0  0
   -3.5868   -2.1861    1.7571 H   0  0  0  0  0  0  0  0  0  0  0  0
   -3.4476   -2.8301    0.1034 H   0  0  0  0  0  0  0  0  0  0  0  0
   -1.5730   -2.2905    1.0083 C   0  0  0  0  0  0  0  0  0  0  0  0
   -0.6352   -2.9911    1.3559 O   0  0  0  0  0  0  0  0  0  0  0  0
   -1.3480   -1.0121    0.5455 N   0  0  0  0  0  0  0  0  0  0  0  0
   -2.1595   -0.4231    0.3618 H   0  0  0  0  0  0  0  0  0  0  0  0
   -0.0314   -0.3546    0.5124 C   0  0  1  0  0  0  0  0  0  0  0  0
    0.6788   -0.8569    1.1767 H   0  0  0  0  0  0  0  0  0  0  0  0
    0.5091   -0.4103   -0.9574 C   0  0  1  0  0  0  0  0  0  0  0  0
    0.8520   -1.4418   -1.0945 H   0  0  0  0  0  0  0  0  0  0  0  0
   -0.5849   -0.1549   -2.0185 C   0  0  0  0  0  0  0  0  0  0  0  0
   -1.0662    0.8143   -1.8548 H   0  0  0  0  0  0  0  0  0  0  0  0
   -0.1496   -0.1575   -3.0227 H   0  0  0  0  0  0  0  0  0  0  0  0
   -1.3510   -0.9353   -1.9948 H   0  0  0  0  0  0  0  0  0  0  0  0
    1.7069    0.5018   -1.3422 C   0  0  0  0  0  0  0  0  0  0  0  0
    2.2460    0.0091   -2.1582 H   0  0  0  0  0  0  0  0  0  0  0  0
    1.3326    1.4546   -1.7331 H   0  0  0  0  0  0  0  0  0  0  0  0
    2.7134    0.8346   -0.2384 C   0  0  0  0  0  0  0  0  0  0  0  0
    2.8421   -0.0102    0.4449 H   0  0  0  0  0  0  0  0  0  0  0  0
    3.6853    1.0595   -0.6886 H   0  0  0  0  0  0  0  0  0  0  0  0
    2.4075    1.7198    0.3191 H   0  0  0  0  0  0  0  0  0  0  0  0
   -0.2736    1.0737    1.0603 C   0  0  0  0  0  0  0  0  0  0  0  0
   -1.2697    1.7047    0.7189 O   0  0  0  0  0  0  0  0  0  0  0  0
    0.5775    1.6404    1.9913 N   0  0  0  0  0  0  0  0  0  0  0  0
    1.3739    1.0882    2.2957 H   0  0  0  0  0  0  0  0  0  0  0  0
    0.3730    2.9633    2.5682 C   0  0  0  0  0  0  0  0  0  0  0  0
   -0.5901    3.0109    3.0873 H   0  0  0  0  0  0  0  0  0  0  0  0
    1.1651    3.1874    3.2891 H   0  0  0  0  0  0  0  0  0  0  0  0
    0.3907    3.7288    1.7853 H   0  0  0  0  0  0  0  0  0  0  0  0
  1  2  1  0  0  0  0
  2  3  1  0  0  0  0
  2  4  1  0  0  0  0
  2  5  1  0  0  0  0
  5  6  2  0  0  0  0
  5  7  1  0  0  0  0
  7  8  1  0  0  0  0
  7  9  1  0  0  0  0
  9 10  1  0  0  0  0
  9 11  1  0  0  0  0
  9 24  1  0  0  0  0
 11 12  1  0  0  0  0
 11 13  1  0  0  0  0
 11 17  1  0  0  0  0
 13 14  1  0  0  0  0
 13 15  1  0  0  0  0
 13 16  1  0  0  0  0
 17 18  1  0  0  0  0
 17 19  1  0  0  0  0
 17 20  1  0  0  0  0
 20 21  1  0  0  0  0
 20 22  1  0  0  0  0
 20 23  1  0  0  0  0
 24 25  2  0  0  0  0
 24 26  1  0  0  0  0
 26 27  1  0  0  0  0
 26 28  1  0  0  0  0
 28 29  1  0  0  0  0
 28 30  1  0  0  0  0
 28 31  1  0  0  0  0
M  END
$$$$

  -OEChem-03222214053D

 31 30  0     1  0  0  0  0  0999 V2000
   -2.9853   -3.8234    1.5364 H   0  0  0  0  0  0  0  0  0  0  0  0
   -2.9833   -2.8108    1.1231 C   0  0  0  0  0  0  0  0  0  0  0  0
   -3.5705   -2.1617    1.7774 H   0  0  0  0  0  0  0  0  0  0  0  0
   -3.4454   -2.8331    0.1332 H   0  0  0  0  0  0  0  0  0  0  0  0
   -1.5617   -2.2915    1.0188 C   0  0  0  0  0  0  0  0  0  0  0  0
   -0.6262   -2.9941    1.3683 O   0  0  0  0  0  0  0  0  0  0  0  0
   -1.3315   -1.0202    0.5397 N   0  0  0  0  0  0  0  0  0  0  0  0
   -2.1410   -0.4267    0.3611 H   0  0  0  0  0  0  0  0  0  0  0  0
   -0.0126   -0.3691    0.4929 C   0  0  1  0  0  0  0  0  0  0  0  0
    0.7032   -0.8679    1.1540 H   0  0  0  0  0  0  0  0  0  0  0  0
    0.5169   -0.4156   -0.9787 C   0  0  1  0  0  0  0  0  0  0  0  0
    0.8527   -1.4452   -1.1432 H   0  0  0  0  0  0  0  0  0  0  0  0
   -0.5744   -0.1196   -2.0311 C   0  0  0  0  0  0  0  0  0  0  0  0
   -1.0262    0.8621   -1.8598 H   0  0  0  0  0  0  0  0  0  0  0  0
   -0.1451   -0.1280   -3.0379 H   0  0  0  0  0  0  0  0  0  0  0  0
   -1.3629   -0.8771   -2.0074 H   0  0  0  0  0  0  0  0  0  0  0  0
    1.7130    0.5079   -1.3177 C   0  0  0  0  0  0  0  0  0  0  0  0
    2.1222    0.2030   -2.2867 H   0  0  0  0  0  0  0  0  0  0  0  0
    1.3594    1.5396   -1.4215 H   0  0  0  0  0  0  0  0  0  0  0  0
    2.8511    0.4974   -0.2917 C   0  0  0  0  0  0  0  0  0  0  0  0
    3.1509   -0.5320   -0.0717 H   0  0  0  0  0  0  0  0  0  0  0  0
    3.7164    1.0271   -0.7018 H   0  0  0  0  0  0  0  0  0  0  0  0
    2.5783    0.9877    0.6388 H   0  0  0  0  0  0  0  0  0  0  0  0
   -0.2504    1.0687    1.0254 C   0  0  0  0  0  0  0  0  0  0  0  0
   -1.2533    1.6907    0.6866 O   0  0  0  0  0  0  0  0  0  0  0  0
    0.5989    1.6553    1.9457 N   0  0  0  0  0  0  0  0  0  0  0  0
    1.3954    1.1101    2.2622 H   0  0  0  0  0  0  0  0  0  0  0  0
    0.3870    2.9847    2.5057 C   0  0  0  0  0  0  0  0  0  0  0  0
   -0.5799    3.0361    3.0173 H   0  0  0  0  0  0  0  0  0  0  0  0
    1.1734    3.2196    3.2293 H   0  0  0  0  0  0  0  0  0  0  0  0
    0.4081    3.7412    1.7144 H   0  0  0  0  0  0  0  0  0  0  0  0
  1  2  1  0  0  0  0
  2  3  1  0  0  0  0
  2  4  1  0  0  0  0
  2  5  1  0  0  0  0
  5  6  2  0  0  0  0
  5  7  1  0  0  0  0
  7  8  1  0  0  0  0
  7  9  1  0  0  0  0
  9 10  1  0  0  0  0
  9 11  1  0  0  0  0
  9 24  1  0  0  0  0
 11 12  1  0  0  0  0
 11 13  1  0  0  0  0
 11 17  1  0  0  0  0
 13 14  1  0  0  0  0
 13 15  1  0  0  0  0
 13 16  1  0  0  0  0
 17 18  1  0  0  0  0
 17 19  1  0  0  0  0
 17 20  1  0  0  0  0
 20 21  1  0  0  0  0
 20 22  1  0  0  0  0
 20 23  1  0  0  0  0
 24 25  2  0  0  0  0
 24 26  1  0  0  0  0
 26 27  1  0  0  0  0
 26 28  1  0  0  0  0
 28 29  1  0  0  0  0
 28 30  1  0  0  0  0
 28 31  1  0  0  0  0
M  END
$$$$

  -OEChem-03222214053D

 31 30  0     1  0  0  0  0  0999 V2000
   -2.9498   -3.8497    1.5594 H   0  0  0  0  0  0  0  0  0  0  0  0
   -2.9684   -2.8374    1.1463 C   0  0  0  0  0  0  0  0  0  0  0  0
   -3.5498   -2.1952    1.8122 H   0  0  0  0  0  0  0  0  0  0  0  0
   -3.4496   -2.8655    0.1657 H   0  0  0  0  0  0  0  0  0  0  0  0
   -1.5556   -2.3018    1.0138 C   0  0  0  0  0  0  0  0  0  0  0  0
   -0.6058   -2.9925    1.3481 O   0  0  0  0  0  0  0  0  0  0  0  0
   -1.3504   -1.0287    0.5276 N   0  0  0  0  0  0  0  0  0  0  0  0
   -2.1711   -0.4489    0.3571 H   0  0  0  0  0  0  0  0  0  0  0  0
   -0.0420   -0.3600    0.4545 C   0  0  1  0  0  0  0  0  0  0  0  0
    0.6725   -0.8561    1.1190 H   0  0  0  0  0  0  0  0  0  0  0  0
    0.5108   -0.4217   -1.0041 C   0  0  1  0  0  0  0  0  0  0  0  0
    0.8622   -1.4451   -1.1751 H   0  0  0  0  0  0  0  0  0  0  0  0
   -0.5720   -0.1216   -2.0616 C   0  0  0  0  0  0  0  0  0  0  0  0
   -1.0145    0.8656   -1.8968 H   0  0  0  0  0  0  0  0  0  0  0  0
   -0.1402   -0.1406   -3.0670 H   0  0  0  0  0  0  0  0  0  0  0  0
   -1.3681   -0.8712   -2.0340 H   0  0  0  0  0  0  0  0  0  0  0  0
    1.6879    0.5438   -1.2767 C   0  0  0  0  0  0  0  0  0  0  0  0
    2.0078    0.4325   -2.3181 H   0  0  0  0  0  0  0  0  0  0  0  0
    1.3652    1.5822   -1.1473 H   0  0  0  0  0  0  0  0  0  0  0  0
    2.9001    0.2714   -0.3791 C   0  0  0  0  0  0  0  0  0  0  0  0
    3.2448   -0.7588   -0.5128 H   0  0  0  0  0  0  0  0  0  0  0  0
    3.7185    0.9466   -0.6472 H   0  0  0  0  0  0  0  0  0  0  0  0
    2.6671    0.4230    0.6759 H   0  0  0  0  0  0  0  0  0  0  0  0
   -0.2351    1.0838    0.9784 C   0  0  0  0  0  0  0  0  0  0  0  0
   -1.2395    1.7194    0.6735 O   0  0  0  0  0  0  0  0  0  0  0  0
    0.6632    1.6484    1.8653 N   0  0  0  0  0  0  0  0  0  0  0  0
    1.4564    1.0833    2.1539 H   0  0  0  0  0  0  0  0  0  0  0  0
    0.4944    2.9760    2.4430 C   0  0  0  0  0  0  0  0  0  0  0  0
   -0.4464    3.0349    3.0004 H   0  0  0  0  0  0  0  0  0  0  0  0
    1.3169    3.1972    3.1298 H   0  0  0  0  0  0  0  0  0  0  0  0
    0.4865    3.7374    1.6560 H   0  0  0  0  0  0  0  0  0  0  0  0
  1  2  1  0  0  0  0
  2  3  1  0  0  0  0
  2  4  1  0  0  0  0
  2  5  1  0  0  0  0
  5  6  2  0  0  0  0
  5  7  1  0  0  0  0
  7  8  1  0  0  0  0
  7  9  1  0  0  0  0
  9 10  1  0  0  0  0
  9 11  1  0  0  0  0
  9 24  1  0  0  0  0
 11 12  1  0  0  0  0
 11 13  1  0  0  0  0
 11 17  1  0  0  0  0
 13 14  1  0  0  0  0
 13 15  1  0  0  0  0
 13 16  1  0  0  0  0
 17 18  1  0  0  0  0
 17 19  1  0  0  0  0
 17 20  1  0  0  0  0
 20 21  1  0  0  0  0
 20 22  1  0  0  0  0
 20 23  1  0  0  0  0
 24 25  2  0  0  0  0
 24 26  1  0  0  0  0
 26 27  1  0  0  0  0
 26 28  1  0  0  0  0
 28 29  1  0  0  0  0
 28 30  1  0  0  0  0
 28 31  1  0  0  0  0
M  END
$$$$

  -OEChem-03222214053D

 31 30  0     1  0  0  0  0  0999 V2000
   -2.9228   -3.8733    1.5521 H   0  0  0  0  0  0  0  0  0  0  0  0
   -2.9563   -2.8593    1.1441 C   0  0  0  0  0  0  0  0  0  0  0  0
   -3.5394   -2.2275    1.8184 H   0  0  0  0  0  0  0  0  0  0  0  0
   -3.4459   -2.8881    0.1677 H   0  0  0  0  0  0  0  0  0  0  0  0
   -1.5508   -2.3066    1.0017 C   0  0  0  0  0  0  0  0  0  0  0  0
   -0.5903   -2.9903    1.3195 O   0  0  0  0  0  0  0  0  0  0  0  0
   -1.3644   -1.0275    0.5229 N   0  0  0  0  0  0  0  0  0  0  0  0
   -2.1932   -0.4572    0.3614 H   0  0  0  0  0  0  0  0  0  0  0  0
   -0.0637   -0.3450    0.4372 C   0  0  1  0  0  0  0  0  0  0  0  0
    0.6515   -0.8374    1.1035 H   0  0  0  0  0  0  0  0  0  0  0  0
    0.5101   -0.4229   -1.0123 C   0  0  1  0  0  0  0  0  0  0  0  0
    0.8649   -1.4453   -1.1829 H   0  0  0  0  0  0  0  0  0  0  0  0
   -0.5725   -0.1263   -2.0715 C   0  0  0  0  0  0  0  0  0  0  0  0
   -1.0070    0.8662   -1.9154 H   0  0  0  0  0  0  0  0  0  0  0  0
   -0.1446   -0.1604   -3.0781 H   0  0  0  0  0  0  0  0  0  0  0  0
   -1.3743   -0.8694   -2.0342 H   0  0  0  0  0  0  0  0  0  0  0  0
    1.6754    0.5655   -1.2645 C   0  0  0  0  0  0  0  0  0  0  0  0
    1.8708    0.6259   -2.3402 H   0  0  0  0  0  0  0  0  0  0  0  0
    1.4272    1.5786   -0.9351 H   0  0  0  0  0  0  0  0  0  0  0  0
    2.9663    0.0872   -0.5967 C   0  0  0  0  0  0  0  0  0  0  0  0
    3.2414   -0.9075   -0.9612 H   0  0  0  0  0  0  0  0  0  0  0  0
    3.7833    0.7778   -0.8265 H   0  0  0  0  0  0  0  0  0  0  0  0
    2.8490    0.0415    0.4896 H   0  0  0  0  0  0  0  0  0  0  0  0
   -0.2400    1.0948    0.9698 C   0  0  0  0  0  0  0  0  0  0  0  0
   -1.2453    1.7390    0.6887 O   0  0  0  0  0  0  0  0  0  0  0  0
    0.6859    1.6390    1.8413 N   0  0  0  0  0  0  0  0  0  0  0  0
    1.4886    1.0687    2.0910 H   0  0  0  0  0  0  0  0  0  0  0  0
    0.5523    2.9670    2.4266 C   0  0  0  0  0  0  0  0  0  0  0  0
   -0.3776    3.0412    3.0002 H   0  0  0  0  0  0  0  0  0  0  0  0
    1.3906    3.1695    3.1001 H   0  0  0  0  0  0  0  0  0  0  0  0
    0.5455    3.7318    1.6429 H   0  0  0  0  0  0  0  0  0  0  0  0
  1  2  1  0  0  0  0
  2  3  1  0  0  0  0
  2  4  1  0  0  0  0
  2  5  1  0  0  0  0
  5  6  2  0  0  0  0
  5  7  1  0  0  0  0
  7  8  1  0  0  0  0
  7  9  1  0  0  0  0
  9 10  1  0  0  0  0
  9 11  1  0  0  0  0
  9 24  1  0  0  0  0
 11 12  1  0  0  0  0
 11 13  1  0  0  0  0
 11 17  1  0  0  0  0
 13 14  1  0  0  0  0
 13 15  1  0  0  0  0
 13 16  1  0  0  0  0
 17 18  1  0  0  0  0
 17 19  1  0  0  0  0
 17 20  1  0  0  0  0
 20 21  1  0  0  0  0
 20 22  1  0  0  0  0
 20 23  1  0  0  0  0
 24 25  2  0  0  0  0
 24 26  1  0  0  0  0
 26 27  1  0  0  0  0
 26 28  1  0  0  0  0
 28 29  1  0  0  0  0
 28 30  1  0  0  0  0
 28 31  1  0  0  0  0
M  END
$$$$

  -OEChem-03222214053D

 31 30  0     1  0  0  0  0  0999 V2000
   -2.9122   -3.8716    1.5448 H   0  0  0  0  0  0  0  0  0  0  0  0
   -2.9467   -2.8573    1.1375 C   0  0  0  0  0  0  0  0  0  0  0  0
   -3.5336   -2.2275    1.8105 H   0  0  0  0  0  0  0  0  0  0  0  0
   -3.4326   -2.8864    0.1593 H   0  0  0  0  0  0  0  0  0  0  0  0
   -1.5421   -2.3012    0.9999 C   0  0  0  0  0  0  0  0  0  0  0  0
   -0.5807   -2.9843    1.3164 O   0  0  0  0  0  0  0  0  0  0  0  0
   -1.3573   -1.0203    0.5249 N   0  0  0  0  0  0  0  0  0  0  0  0
   -2.1867   -0.4504    0.3646 H   0  0  0  0  0  0  0  0  0  0  0  0
   -0.0565   -0.3377    0.4391 C   0  0  1  0  0  0  0  0  0  0  0  0
    0.6622   -0.8282    1.1032 H   0  0  0  0  0  0  0  0  0  0  0  0
    0.5158   -0.4193   -1.0127 C   0  0  1  0  0  0  0  0  0  0  0  0
    0.8592   -1.4453   -1.1851 H   0  0  0  0  0  0  0  0  0  0  0  0
   -0.5741   -0.1235   -2.0665 C   0  0  0  0  0  0  0  0  0  0  0  0
   -0.9960    0.8758   -1.9193 H   0  0  0  0  0  0  0  0  0  0  0  0
   -0.1558   -0.1765   -3.0764 H   0  0  0  0  0  0  0  0  0  0  0  0
   -1.3838   -0.8569   -2.0151 H   0  0  0  0  0  0  0  0  0  0  0  0
    1.6856    0.5679   -1.2756 C   0  0  0  0  0  0  0  0  0  0  0  0
    1.7184    0.8310   -2.3380 H   0  0  0  0  0  0  0  0  0  0  0  0
    1.5727    1.5083   -0.7323 H   0  0  0  0  0  0  0  0  0  0  0  0
    3.0271   -0.0830   -0.9367 C   0  0  0  0  0  0  0  0  0  0  0  0
    3.1851   -0.9795   -1.5446 H   0  0  0  0  0  0  0  0  0  0  0  0
    3.8444    0.6171   -1.1347 H   0  0  0  0  0  0  0  0  0  0  0  0
    3.0602   -0.3657    0.1199 H   0  0  0  0  0  0  0  0  0  0  0  0
   -0.2430    1.0985    0.9793 C   0  0  0  0  0  0  0  0  0  0  0  0
   -1.2499    1.7399    0.6974 O   0  0  0  0  0  0  0  0  0  0  0  0
    0.6791    1.6440    1.8544 N   0  0  0  0  0  0  0  0  0  0  0  0
    1.4836    1.0764    2.1045 H   0  0  0  0  0  0  0  0  0  0  0  0
    0.5392    2.9702    2.4429 C   0  0  0  0  0  0  0  0  0  0  0  0
   -0.3976    3.0441    3.0051 H   0  0  0  0  0  0  0  0  0  0  0  0
    1.3690    3.1696    3.1277 H   0  0  0  0  0  0  0  0  0  0  0  0
    0.5431    3.7372    1.6615 H   0  0  0  0  0  0  0  0  0  0  0  0
  1  2  1  0  0  0  0
  2  3  1  0  0  0  0
  2  4  1  0  0  0  0
  2  5  1  0  0  0  0
  5  6  2  0  0  0  0
  5  7  1  0  0  0  0
  7  8  1  0  0  0  0
  7  9  1  0  0  0  0
  9 10  1  0  0  0  0
  9 11  1  0  0  0  0
  9 24  1  0  0  0  0
 11 12  1  0  0  0  0
 11 13  1  0  0  0  0
 11 17  1  0  0  0  0
 13 14  1  0  0  0  0
 13 15  1  0  0  0  0
 13 16  1  0  0  0  0
 17 18  1  0  0  0  0
 17 19  1  0  0  0  0
 17 20  1  0  0  0  0
 20 21  1  0  0  0  0
 20 22  1  0  0  0  0
 20 23  1  0  0  0  0
 24 25  2  0  0  0  0
 24 26  1  0  0  0  0
 26 27  1  0  0  0  0
 26 28  1  0  0  0  0
 28 29  1  0  0  0  0
 28 30  1  0  0  0  0
 28 31  1  0  0  0  0
M  END
$$$$

  -OEChem-03222214053D

 31 30  0     1  0  0  0  0  0999 V2000
   -2.9176   -3.8572    1.5392 H   0  0  0  0  0  0  0  0  0  0  0  0
   -2.9465   -2.8417    1.1345 C   0  0  0  0  0  0  0  0  0  0  0  0
   -3.5301   -2.2104    1.8089 H   0  0  0  0  0  0  0  0  0  0  0  0
   -3.4329   -2.8656    0.1564 H   0  0  0  0  0  0  0  0  0  0  0  0
   -1.5388   -2.2928    0.9985 C   0  0  0  0  0  0  0  0  0  0  0  0
   -0.5811   -2.9793    1.3186 O   0  0  0  0  0  0  0  0  0  0  0  0
   -1.3461   -1.0134    0.5233 N   0  0  0  0  0  0  0  0  0  0  0  0
   -2.1721   -0.4377    0.3650 H   0  0  0  0  0  0  0  0  0  0  0  0
   -0.0420   -0.3362    0.4430 C   0  0  1  0  0  0  0  0  0  0  0  0
    0.6776   -0.8274    1.1057 H   0  0  0  0  0  0  0  0  0  0  0  0
    0.5231   -0.4127   -1.0122 C   0  0  1  0  0  0  0  0  0  0  0  0
    0.8627   -1.4414   -1.1766 H   0  0  0  0  0  0  0  0  0  0  0  0
   -0.5695   -0.1302   -2.0672 C   0  0  0  0  0  0  0  0  0  0  0  0
   -1.0041    0.8633   -1.9194 H   0  0  0  0  0  0  0  0  0  0  0  0
   -0.1473   -0.1773   -3.0759 H   0  0  0  0  0  0  0  0  0  0  0  0
   -1.3705   -0.8735   -2.0179 H   0  0  0  0  0  0  0  0  0  0  0  0
    1.7012    0.5678   -1.2842 C   0  0  0  0  0  0  0  0  0  0  0  0
    1.5714    1.0659   -2.2507 H   0  0  0  0  0  0  0  0  0  0  0  0
    1.7670    1.3604   -0.5377 H   0  0  0  0  0  0  0  0  0  0  0  0
    3.0312   -0.1854   -1.3238 C   0  0  0  0  0  0  0  0  0  0  0  0
    3.0233   -0.9363   -2.1203 H   0  0  0  0  0  0  0  0  0  0  0  0
    3.8529    0.5118   -1.5140 H   0  0  0  0  0  0  0  0  0  0  0  0
    3.2152   -0.6873   -0.3687 H   0  0  0  0  0  0  0  0  0  0  0  0
   -0.2398    1.0991    0.9837 C   0  0  0  0  0  0  0  0  0  0  0  0
   -1.2479    1.7361    0.6953 O   0  0  0  0  0  0  0  0  0  0  0  0
    0.6718    1.6486    1.8672 N   0  0  0  0  0  0  0  0  0  0  0  0
    1.4700    1.0794    2.1336 H   0  0  0  0  0  0  0  0  0  0  0  0
    0.5144    2.9687    2.4650 C   0  0  0  0  0  0  0  0  0  0  0  0
   -0.4190    3.0235    3.0352 H   0  0  0  0  0  0  0  0  0  0  0  0
    1.3465    3.1778    3.1443 H   0  0  0  0  0  0  0  0  0  0  0  0
    0.4994    3.7409    1.6887 H   0  0  0  0  0  0  0  0  0  0  0  0
  1  2  1  0  0  0  0
  2  3  1  0  0  0  0
  2  4  1  0  0  0  0
  2  5  1  0  0  0  0
  5  6  2  0  0  0  0
  5  7  1  0  0  0  0
  7  8  1  0  0  0  0
  7  9  1  0  0  0  0
  9 10  1  0  0  0  0
  9 11  1  0  0  0  0
  9 24  1  0  0  0  0
 11 12  1  0  0  0  0
 11 13  1  0  0  0  0
 11 17  1  0  0  0  0
 13 14  1  0  0  0  0
 13 15  1  0  0  0  0
 13 16  1  0  0  0  0
 17 18  1  0  0  0  0
 17 19  1  0  0  0  0
 17 20  1  0  0  0  0
 20 21  1  0  0  0  0
 20 22  1  0  0  0  0
 20 23  1  0  0  0  0
 24 25  2  0  0  0  0
 24 26  1  0  0  0  0
 26 27  1  0  0  0  0
 26 28  1  0  0  0  0
 28 29  1  0  0  0  0
 28 30  1  0  0  0  0
 28 31  1  0  0  0  0
M  END
$$$$

  -OEChem-03222214053D

 31 30  0     1  0  0  0  0  0999 V2000
   -2.9318   -3.8485    1.5352 H   0  0  0  0  0  0  0  0  0  0  0  0
   -2.9532   -2.8328    1.1303 C   0  0  0  0  0  0  0  0  0  0  0  0
   -3.5349   -2.1975    1.8026 H   0  0  0  0  0  0  0  0  0  0  0  0
   -3.4369   -2.8542    0.1508 H   0  0  0  0  0  0  0  0  0  0  0  0
   -1.5419   -2.2922    0.9991 C   0  0  0  0  0  0  0  0  0  0  0  0
   -0.5894   -2.9821    1.3273 O   0  0  0  0  0  0  0  0  0  0  0  0
   -1.3412   -1.0150    0.5217 N   0  0  0  0  0  0  0  0  0  0  0  0
   -2.1641   -0.4375    0.3544 H   0  0  0  0  0  0  0  0  0  0  0  0
   -0.0345   -0.3426    0.4470 C   0  0  1  0  0  0  0  0  0  0  0  0
    0.6857   -0.8368    1.1070 H   0  0  0  0  0  0  0  0  0  0  0  0
    0.5213   -0.4078   -1.0102 C   0  0  1  0  0  0  0  0  0  0  0  0
    0.8671   -1.4362   -1.1644 H   0  0  0  0  0  0  0  0  0  0  0  0
   -0.5635   -0.1376   -2.0741 C   0  0  0  0  0  0  0  0  0  0  0  0
   -1.0255    0.8425   -1.9186 H   0  0  0  0  0  0  0  0  0  0  0  0
   -0.1246   -0.1584   -3.0766 H   0  0  0  0  0  0  0  0  0  0  0  0
   -1.3450   -0.9022   -2.0434 H   0  0  0  0  0  0  0  0  0  0  0  0
    1.7015    0.5701   -1.2735 C   0  0  0  0  0  0  0  0  0  0  0  0
    1.4413    1.2971   -2.0505 H   0  0  0  0  0  0  0  0  0  0  0  0
    1.9575    1.1418   -0.3799 H   0  0  0  0  0  0  0  0  0  0  0  0
    2.9571   -0.1927   -1.6976 C   0  0  0  0  0  0  0  0  0  0  0  0
    2.7705   -0.7568   -2.6169 H   0  0  0  0  0  0  0  0  0  0  0  0
    3.7776    0.5075   -1.8813 H   0  0  0  0  0  0  0  0  0  0  0  0
    3.2648   -0.8907   -0.9126 H   0  0  0  0  0  0  0  0  0  0  0  0
   -0.2297    1.0956    0.9828 C   0  0  0  0  0  0  0  0  0  0  0  0
   -1.2332    1.7356    0.6853 O   0  0  0  0  0  0  0  0  0  0  0  0
    0.6778    1.6461    1.8701 N   0  0  0  0  0  0  0  0  0  0  0  0
    1.4699    1.0738    2.1480 H   0  0  0  0  0  0  0  0  0  0  0  0
    0.5170    2.9664    2.4664 C   0  0  0  0  0  0  0  0  0  0  0  0
   -0.4122    3.0159    3.0438 H   0  0  0  0  0  0  0  0  0  0  0  0
    1.3533    3.1817    3.1385 H   0  0  0  0  0  0  0  0  0  0  0  0
    0.4910    3.7373    1.6891 H   0  0  0  0  0  0  0  0  0  0  0  0
  1  2  1  0  0  0  0
  2  3  1  0  0  0  0
  2  4  1  0  0  0  0
  2  5  1  0  0  0  0
  5  6  2  0  0  0  0
  5  7  1  0  0  0  0
  7  8  1  0  0  0  0
  7  9  1  0  0  0  0
  9 10  1  0  0  0  0
  9 11  1  0  0  0  0
  9 24  1  0  0  0  0
 11 12  1  0  0  0  0
 11 13  1  0  0  0  0
 11 17  1  0  0  0  0
 13 14  1  0  0  0  0
 13 15  1  0  0  0  0
 13 16  1  0  0  0  0
 17 18  1  0  0  0  0
 17 19  1  0  0  0  0
 17 20  1  0  0  0  0
 20 21  1  0  0  0  0
 20 22  1  0  0  0  0
 20 23  1  0  0  0  0
 24 25  2  0  0  0  0
 24 26  1  0  0  0  0
 26 27  1  0  0  0  0
 26 28  1  0  0  0  0
 28 29  1  0  0  0  0
 28 30  1  0  0  0  0
 28 31  1  0  0  0  0
M  END
$$$$

  -OEChem-03222214053D

 31 30  0     1  0  0  0  0  0999 V2000
   -2.9377   -3.8516    1.5412 H   0  0  0  0  0  0  0  0  0  0  0  0
   -2.9606   -2.8383    1.1306 C   0  0  0  0  0  0  0  0  0  0  0  0
   -3.5455   -2.2009    1.7980 H   0  0  0  0  0  0  0  0  0  0  0  0
   -3.4414   -2.8666    0.1498 H   0  0  0  0  0  0  0  0  0  0  0  0
   -1.5500   -2.2954    1.0001 C   0  0  0  0  0  0  0  0  0  0  0  0
   -0.5977   -2.9847    1.3298 O   0  0  0  0  0  0  0  0  0  0  0  0
   -1.3484   -1.0194    0.5191 N   0  0  0  0  0  0  0  0  0  0  0  0
   -2.1705   -0.4419    0.3482 H   0  0  0  0  0  0  0  0  0  0  0  0
   -0.0403   -0.3500    0.4439 C   0  0  1  0  0  0  0  0  0  0  0  0
    0.6791   -0.8473    1.1026 H   0  0  0  0  0  0  0  0  0  0  0  0
    0.5116   -0.4096   -1.0119 C   0  0  1  0  0  0  0  0  0  0  0  0
    0.8676   -1.4350   -1.1600 H   0  0  0  0  0  0  0  0  0  0  0  0
   -0.5637   -0.1394   -2.0838 C   0  0  0  0  0  0  0  0  0  0  0  0
   -1.0419    0.8313   -1.9199 H   0  0  0  0  0  0  0  0  0  0  0  0
   -0.1131   -0.1379   -3.0810 H   0  0  0  0  0  0  0  0  0  0  0  0
   -1.3343   -0.9156   -2.0704 H   0  0  0  0  0  0  0  0  0  0  0  0
    1.6886    0.5709   -1.2517 C   0  0  0  0  0  0  0  0  0  0  0  0
    1.3492    1.4644   -1.7873 H   0  0  0  0  0  0  0  0  0  0  0  0
    2.1118    0.9028   -0.3003 H   0  0  0  0  0  0  0  0  0  0  0  0
    2.8233   -0.1073   -2.0218 C   0  0  0  0  0  0  0  0  0  0  0  0
    2.4696   -0.4558   -2.9970 H   0  0  0  0  0  0  0  0  0  0  0  0
    3.6431    0.5993   -2.1824 H   0  0  0  0  0  0  0  0  0  0  0  0
    3.2099   -0.9645   -1.4616 H   0  0  0  0  0  0  0  0  0  0  0  0
   -0.2188    1.0926    0.9733 C   0  0  0  0  0  0  0  0  0  0  0  0
   -1.2168    1.7406    0.6751 O   0  0  0  0  0  0  0  0  0  0  0  0
    0.6958    1.6389    1.8560 N   0  0  0  0  0  0  0  0  0  0  0  0
    1.4804    1.0590    2.1393 H   0  0  0  0  0  0  0  0  0  0  0  0
    0.5454    2.9621    2.4488 C   0  0  0  0  0  0  0  0  0  0  0  0
   -0.3893    3.0244    3.0160 H   0  0  0  0  0  0  0  0  0  0  0  0
    1.3767    3.1680    3.1298 H   0  0  0  0  0  0  0  0  0  0  0  0
    0.5374    3.7316    1.6698 H   0  0  0  0  0  0  0  0  0  0  0  0
  1  2  1  0  0  0  0
  2  3  1  0  0  0  0
  2  4  1  0  0  0  0
  2  5  1  0  0  0  0
  5  6  2  0  0  0  0
  5  7  1  0  0  0  0
  7  8  1  0  0  0  0
  7  9  1  0  0  0  0
  9 10  1  0  0  0  0
  9 11  1  0  0  0  0
  9 24  1  0  0  0  0
 11 12  1  0  0  0  0
 11 13  1  0  0  0  0
 11 17  1  0  0  0  0
 13 14  1  0  0  0  0
 13 15  1  0  0  0  0
 13 16  1  0  0  0  0
 17 18  1  0  0  0  0
 17 19  1  0  0  0  0
 17 20  1  0  0  0  0
 20 21  1  0  0  0  0
 20 22  1  0  0  0  0
 20 23  1  0  0  0  0
 24 25  2  0  0  0  0
 24 26  1  0  0  0  0
 26 27  1  0  0  0  0
 26 28  1  0  0  0  0
 28 29  1  0  0  0  0
 28 30  1  0  0  0  0
 28 31  1  0  0  0  0
M  END
$$$$

  -OEChem-03222214053D

 31 30  0     1  0  0  0  0  0999 V2000
   -2.9523   -3.8505    1.5600 H   0  0  0  0  0  0  0  0  0  0  0  0
   -2.9718   -2.8399    1.1427 C   0  0  0  0  0  0  0  0  0  0  0  0
   -3.5486   -2.1945    1.8096 H   0  0  0  0  0  0  0  0  0  0  0  0
   -3.4590   -2.8711    0.1653 H   0  0  0  0  0  0  0  0  0  0  0  0
   -1.5594   -2.3057    0.9988 C   0  0  0  0  0  0  0  0  0  0  0  0
   -0.6068   -2.9993    1.3189 O   0  0  0  0  0  0  0  0  0  0  0  0
   -1.3585   -1.0306    0.5160 N   0  0  0  0  0  0  0  0  0  0  0  0
   -2.1810   -0.4524    0.3507 H   0  0  0  0  0  0  0  0  0  0  0  0
   -0.0511   -0.3618    0.4317 C   0  0  1  0  0  0  0  0  0  0  0  0
    0.6681   -0.8611    1.0889 H   0  0  0  0  0  0  0  0  0  0  0  0
    0.5031   -0.4218   -1.0221 C   0  0  1  0  0  0  0  0  0  0  0  0
    0.8701   -1.4427   -1.1755 H   0  0  0  0  0  0  0  0  0  0  0  0
   -0.5765   -0.1449   -2.0892 C   0  0  0  0  0  0  0  0  0  0  0  0
   -1.0460    0.8297   -1.9237 H   0  0  0  0  0  0  0  0  0  0  0  0
   -0.1387   -0.1490   -3.0913 H   0  0  0  0  0  0  0  0  0  0  0  0
   -1.3534   -0.9147   -2.0676 H   0  0  0  0  0  0  0  0  0  0  0  0
    1.6739    0.5682   -1.2312 C   0  0  0  0  0  0  0  0  0  0  0  0
    1.2955    1.5572   -1.5125 H   0  0  0  0  0  0  0  0  0  0  0  0
    2.2315    0.6806   -0.2964 H   0  0  0  0  0  0  0  0  0  0  0  0
    2.6646    0.0660   -2.2846 C   0  0  0  0  0  0  0  0  0  0  0  0
    2.1802   -0.0335   -3.2602 H   0  0  0  0  0  0  0  0  0  0  0  0
    3.4945    0.7722   -2.3830 H   0  0  0  0  0  0  0  0  0  0  0  0
    3.0723   -0.9075   -1.9950 H   0  0  0  0  0  0  0  0  0  0  0  0
   -0.2153    1.0826    0.9591 C   0  0  0  0  0  0  0  0  0  0  0  0
   -1.2137    1.7344    0.6712 O   0  0  0  0  0  0  0  0  0  0  0  0
    0.7108    1.6243    1.8320 N   0  0  0  0  0  0  0  0  0  0  0  0
    1.4965    1.0416    2.1063 H   0  0  0  0  0  0  0  0  0  0  0  0
    0.5769    2.9521    2.4186 C   0  0  0  0  0  0  0  0  0  0  0  0
   -0.3531    3.0264    2.9922 H   0  0  0  0  0  0  0  0  0  0  0  0
    1.4151    3.1545    3.0922 H   0  0  0  0  0  0  0  0  0  0  0  0
    0.5699    3.7172    1.6350 H   0  0  0  0  0  0  0  0  0  0  0  0
  1  2  1  0  0  0  0
  2  3  1  0  0  0  0
  2  4  1  0  0  0  0
  2  5  1  0  0  0  0
  5  6  2  0  0  0  0
  5  7  1  0  0  0  0
  7  8  1  0  0  0  0
  7  9  1  0  0  0  0
  9 10  1  0  0  0  0
  9 11  1  0  0  0  0
  9 24  1  0  0  0  0
 11 12  1  0  0  0  0
 11 13  1  0  0  0  0
 11 17  1  0  0  0  0
 13 14  1  0  0  0  0
 13 15  1  0  0  0  0
 13 16  1  0  0  0  0
 17 18  1  0  0  0  0
 17 19  1  0  0  0  0
 17 20  1  0  0  0  0
 20 21  1  0  0  0  0
 20 22  1  0  0  0  0
 20 23  1  0  0  0  0
 24 25  2  0  0  0  0
 24 26  1  0  0  0  0
 26 27  1  0  0  0  0
 26 28  1  0  0  0  0
 28 29  1  0  0  0  0
 28 30  1  0  0  0  0
 28 31  1  0  0  0  0
M  END
$$$$

  -OEChem-03222214053D

 31 30  0     1  0  0  0  0  0999 V2000
   -2.9508   -3.8611    1.5737 H   0  0  0  0  0  0  0  0  0  0  0  0
   -2.9768   -2.8505    1.1566 C   0  0  0  0  0  0  0  0  0  0  0  0
   -3.5491   -2.2067    1.8287 H   0  0  0  0  0  0  0  0  0  0  0  0
   -3.4733   -2.8832    0.1839 H   0  0  0  0  0  0  0  0  0  0  0  0
   -1.5672   -2.3127    0.9998 C   0  0  0  0  0  0  0  0  0  0  0  0
   -0.6106   -3.0047    1.3116 O   0  0  0  0  0  0  0  0  0  0  0  0
   -1.3728   -1.0363    0.5169 N   0  0  0  0  0  0  0  0  0  0  0  0
   -2.1977   -0.4587    0.3609 H   0  0  0  0  0  0  0  0  0  0  0  0
   -0.0661   -0.3668    0.4202 C   0  0  1  0  0  0  0  0  0  0  0  0
    0.6535   -0.8656    1.0775 H   0  0  0  0  0  0  0  0  0  0  0  0
    0.4947   -0.4327   -1.0329 C   0  0  1  0  0  0  0  0  0  0  0  0
    0.8695   -1.4496   -1.1909 H   0  0  0  0  0  0  0  0  0  0  0  0
   -0.5957   -0.1574   -2.0923 C   0  0  0  0  0  0  0  0  0  0  0  0
   -1.0247    0.8402   -1.9558 H   0  0  0  0  0  0  0  0  0  0  0  0
   -0.1853   -0.2207   -3.1029 H   0  0  0  0  0  0  0  0  0  0  0  0
   -1.4007   -0.8950   -2.0284 H   0  0  0  0  0  0  0  0  0  0  0  0
    1.6620    0.5663   -1.2239 C   0  0  0  0  0  0  0  0  0  0  0  0
    1.2826    1.5934   -1.2595 H   0  0  0  0  0  0  0  0  0  0  0  0
    2.3382    0.4891   -0.3665 H   0  0  0  0  0  0  0  0  0  0  0  0
    2.4819    0.2965   -2.4894 C   0  0  0  0  0  0  0  0  0  0  0  0
    1.8980    0.4964   -3.3918 H   0  0  0  0  0  0  0  0  0  0  0  0
    3.3618    0.9466   -2.5058 H   0  0  0  0  0  0  0  0  0  0  0  0
    2.8208   -0.7439   -2.5117 H   0  0  0  0  0  0  0  0  0  0  0  0
   -0.2218    1.0766    0.9510 C   0  0  0  0  0  0  0  0  0  0  0  0
   -1.2196    1.7330    0.6713 O   0  0  0  0  0  0  0  0  0  0  0  0
    0.7165    1.6132    1.8138 N   0  0  0  0  0  0  0  0  0  0  0  0
    1.5055    1.0286    2.0744 H   0  0  0  0  0  0  0  0  0  0  0  0
    0.6011    2.9451    2.3944 C   0  0  0  0  0  0  0  0  0  0  0  0
   -0.3188    3.0290    2.9827 H   0  0  0  0  0  0  0  0  0  0  0  0
    1.4515    3.1457    3.0530 H   0  0  0  0  0  0  0  0  0  0  0  0
    0.5866    3.7055    1.6065 H   0  0  0  0  0  0  0  0  0  0  0  0
  1  2  1  0  0  0  0
  2  3  1  0  0  0  0
  2  4  1  0  0  0  0
  2  5  1  0  0  0  0
  5  6  2  0  0  0  0
  5  7  1  0  0  0  0
  7  8  1  0  0  0  0
  7  9  1  0  0  0  0
  9 10  1  0  0  0  0
  9 11  1  0  0  0  0
  9 24  1  0  0  0  0
 11 12  1  0  0  0  0
 11 13  1  0  0  0  0
 11 17  1  0  0  0  0
 13 14  1  0  0  0  0
 13 15  1  0  0  0  0
 13 16  1  0  0  0  0
 17 18  1  0  0  0  0
 17 19  1  0  0  0  0
 17 20  1  0  0  0  0
 20 21  1  0  0  0  0
 20 22  1  0  0  0  0
 20 23  1  0  0  0  0
 24 25  2  0  0  0  0
 24 26  1  0  0  0  0
 26 27  1  0  0  0  0
 26 28  1  0  0  0  0
 28 29  1  0  0  0  0
 28 30  1  0  0  0  0
 28 31  1  0  0  0  0
M  END
$$$$
