default_name
  -OEChem-02102213163D

 31 30  0     1  0  0  0  0  0999 V2000
   -3.0760   -3.6390    1.5496 H   0  0  0  0  0  0  0  0  0  0  0  0
   -3.0940   -2.6290    1.1426 C   0  0  0  0  0  0  0  0  0  0  0  0
   -3.7160   -1.9930    1.7706 H   0  0  0  0  0  0  0  0  0  0  0  0
   -3.4880   -2.6500    0.1286 H   0  0  0  0  0  0  0  0  0  0  0  0
   -1.6860   -2.0850    1.1196 C   0  0  0  0  0  0  0  0  0  0  0  0
   -0.7540   -2.7700    1.5226 O   0  0  0  0  0  0  0  0  0  0  0  0
   -1.5320   -0.8490    0.6496 N   0  0  0  0  0  0  0  0  0  0  0  0
   -2.3500   -0.3360    0.3566 H   0  0  0  0  0  0  0  0  0  0  0  0
   -0.2470   -0.1410    0.5576 C   0  0  1  0  0  0  0  0  0  0  0  0
    0.4239   -0.7541   -0.0450 H   0  0  0  0  0  0  0  0  0  0  0  0
   -0.4317    1.2160   -0.1683 C   0  0  1  0  0  0  0  0  0  0  0  0
   -0.7612    0.9944   -1.1853 H   0  0  0  0  0  0  0  0  0  0  0  0
   -1.5104    2.0951    0.4929 C   0  0  0  0  0  0  0  0  0  0  0  0
   -1.1930    2.4079    1.4893 H   0  0  0  0  0  0  0  0  0  0  0  0
   -1.7019    2.9790   -0.1133 H   0  0  0  0  0  0  0  0  0  0  0  0
   -2.4462    1.5417    0.5795 H   0  0  0  0  0  0  0  0  0  0  0  0
    0.9101    1.9748   -0.2743 C   0  0  0  0  0  0  0  0  0  0  0  0
    1.3258    2.1366    0.7212 H   0  0  0  0  0  0  0  0  0  0  0  0
    1.6129    1.3666   -0.8437 H   0  0  0  0  0  0  0  0  0  0  0  0
    0.7982    3.3306   -0.9846 C   0  0  0  0  0  0  0  0  0  0  0  0
    0.1888    4.0194   -0.3998 H   0  0  0  0  0  0  0  0  0  0  0  0
    1.7938    3.7599   -1.0987 H   0  0  0  0  0  0  0  0  0  0  0  0
    0.3539    3.1990   -1.9718 H   0  0  0  0  0  0  0  0  0  0  0  0
    0.3833   -0.0008    1.9525 C   0  0  0  0  0  0  0  0  0  0  0  0
    1.5803   -0.2304    2.1189 O   0  0  0  0  0  0  0  0  0  0  0  0
   -0.4170    0.3858    2.9541 N   0  0  0  0  0  0  0  0  0  0  0  0
   -1.3850    0.5669    2.7398 H   0  0  0  0  0  0  0  0  0  0  0  0
    0.0265    0.5600    4.3358 C   0  0  0  0  0  0  0  0  0  0  0  0
    0.8964    1.2200    4.3632 H   0  0  0  0  0  0  0  0  0  0  0  0
   -0.7726    0.9946    4.9382 H   0  0  0  0  0  0  0  0  0  0  0  0
    0.3119   -0.4069    4.7547 H   0  0  0  0  0  0  0  0  0  0  0  0
  5  6  2  0  0  0  0
  5  7  1  0  0  0  0
  2  3  1  0  0  0  0
  2  4  1  0  0  0  0
  2  5  1  0  0  0  0
  1  2  1  0  0  0  0
 24 25  2  0  0  0  0
 24 26  1  0  0  0  0
 20 21  1  0  0  0  0
 20 22  1  0  0  0  0
 20 23  1  0  0  0  0
 17 18  1  0  0  0  0
 17 19  1  0  0  0  0
 17 20  1  0  0  0  0
 13 14  1  0  0  0  0
 13 15  1  0  0  0  0
 13 16  1  0  0  0  0
 11 12  1  0  0  0  0
 11 13  1  0  0  0  0
 11 17  1  0  0  0  0
  9 10  1  0  0  0  0
  9 11  1  0  0  0  0
  9 24  1  0  0  0  0
  7  8  1  0  0  0  0
  7  9  1  0  0  0  0
 28 29  1  0  0  0  0
 28 30  1  0  0  0  0
 28 31  1  0  0  0  0
 26 27  1  0  0  0  0
 26 28  1  0  0  0  0
M  END
$$$$
default_name
  -OEChem-02102213163D

 31 30  0     1  0  0  0  0  0999 V2000
   -3.0760   -3.6390    1.5496 H   0  0  0  0  0  0  0  0  0  0  0  0
   -3.0940   -2.6290    1.1426 C   0  0  0  0  0  0  0  0  0  0  0  0
   -3.7160   -1.9930    1.7706 H   0  0  0  0  0  0  0  0  0  0  0  0
   -3.4880   -2.6500    0.1286 H   0  0  0  0  0  0  0  0  0  0  0  0
   -1.6860   -2.0850    1.1196 C   0  0  0  0  0  0  0  0  0  0  0  0
   -0.7540   -2.7700    1.5226 O   0  0  0  0  0  0  0  0  0  0  0  0
   -1.5320   -0.8490    0.6496 N   0  0  0  0  0  0  0  0  0  0  0  0
   -2.3500   -0.3360    0.3566 H   0  0  0  0  0  0  0  0  0  0  0  0
   -0.2470   -0.1410    0.5576 C   0  0  1  0  0  0  0  0  0  0  0  0
    0.4239   -0.7541   -0.0450 H   0  0  0  0  0  0  0  0  0  0  0  0
   -0.4317    1.2160   -0.1683 C   0  0  1  0  0  0  0  0  0  0  0  0
   -0.7612    0.9944   -1.1853 H   0  0  0  0  0  0  0  0  0  0  0  0
   -1.5104    2.0951    0.4929 C   0  0  0  0  0  0  0  0  0  0  0  0
   -1.1930    2.4079    1.4893 H   0  0  0  0  0  0  0  0  0  0  0  0
   -1.7019    2.9790   -0.1133 H   0  0  0  0  0  0  0  0  0  0  0  0
   -2.4462    1.5417    0.5795 H   0  0  0  0  0  0  0  0  0  0  0  0
    0.9101    1.9748   -0.2743 C   0  0  0  0  0  0  0  0  0  0  0  0
    1.4521    1.9062    0.6699 H   0  0  0  0  0  0  0  0  0  0  0  0
    1.5162    1.5087   -1.0511 H   0  0  0  0  0  0  0  0  0  0  0  0
    0.7541    3.4564   -0.6428 C   0  0  0  0  0  0  0  0  0  0  0  0
    0.2452    3.9972    0.1548 H   0  0  0  0  0  0  0  0  0  0  0  0
    1.7410    3.8972   -0.7856 H   0  0  0  0  0  0  0  0  0  0  0  0
    0.1858    3.5526   -1.5686 H   0  0  0  0  0  0  0  0  0  0  0  0
    0.3833   -0.0008    1.9525 C   0  0  0  0  0  0  0  0  0  0  0  0
    1.5803   -0.2304    2.1189 O   0  0  0  0  0  0  0  0  0  0  0  0
   -0.4170    0.3858    2.9541 N   0  0  0  0  0  0  0  0  0  0  0  0
   -1.3850    0.5669    2.7398 H   0  0  0  0  0  0  0  0  0  0  0  0
    0.0265    0.5600    4.3358 C   0  0  0  0  0  0  0  0  0  0  0  0
    0.8964    1.2200    4.3632 H   0  0  0  0  0  0  0  0  0  0  0  0
   -0.7726    0.9946    4.9382 H   0  0  0  0  0  0  0  0  0  0  0  0
    0.3119   -0.4069    4.7547 H   0  0  0  0  0  0  0  0  0  0  0  0
  5  6  2  0  0  0  0
  5  7  1  0  0  0  0
  2  3  1  0  0  0  0
  2  4  1  0  0  0  0
  2  5  1  0  0  0  0
  1  2  1  0  0  0  0
 24 25  2  0  0  0  0
 24 26  1  0  0  0  0
 20 21  1  0  0  0  0
 20 22  1  0  0  0  0
 20 23  1  0  0  0  0
 17 18  1  0  0  0  0
 17 19  1  0  0  0  0
 17 20  1  0  0  0  0
 13 14  1  0  0  0  0
 13 15  1  0  0  0  0
 13 16  1  0  0  0  0
 11 12  1  0  0  0  0
 11 13  1  0  0  0  0
 11 17  1  0  0  0  0
  9 10  1  0  0  0  0
  9 11  1  0  0  0  0
  9 24  1  0  0  0  0
  7  8  1  0  0  0  0
  7  9  1  0  0  0  0
 28 29  1  0  0  0  0
 28 30  1  0  0  0  0
 28 31  1  0  0  0  0
 26 27  1  0  0  0  0
 26 28  1  0  0  0  0
M  END
$$$$
default_name
  -OEChem-02102213163D

 31 30  0     1  0  0  0  0  0999 V2000
   -3.0760   -3.6390    1.5496 H   0  0  0  0  0  0  0  0  0  0  0  0
   -3.0940   -2.6290    1.1426 C   0  0  0  0  0  0  0  0  0  0  0  0
   -3.7160   -1.9930    1.7706 H   0  0  0  0  0  0  0  0  0  0  0  0
   -3.4880   -2.6500    0.1286 H   0  0  0  0  0  0  0  0  0  0  0  0
   -1.6860   -2.0850    1.1196 C   0  0  0  0  0  0  0  0  0  0  0  0
   -0.7540   -2.7700    1.5226 O   0  0  0  0  0  0  0  0  0  0  0  0
   -1.5320   -0.8490    0.6496 N   0  0  0  0  0  0  0  0  0  0  0  0
   -2.3500   -0.3360    0.3566 H   0  0  0  0  0  0  0  0  0  0  0  0
   -0.2470   -0.1410    0.5576 C   0  0  1  0  0  0  0  0  0  0  0  0
    0.4239   -0.7541   -0.0450 H   0  0  0  0  0  0  0  0  0  0  0  0
   -0.4317    1.2160   -0.1683 C   0  0  1  0  0  0  0  0  0  0  0  0
   -0.7612    0.9944   -1.1853 H   0  0  0  0  0  0  0  0  0  0  0  0
   -1.5104    2.0951    0.4929 C   0  0  0  0  0  0  0  0  0  0  0  0
   -1.1930    2.4079    1.4893 H   0  0  0  0  0  0  0  0  0  0  0  0
   -1.7019    2.9790   -0.1133 H   0  0  0  0  0  0  0  0  0  0  0  0
   -2.4462    1.5417    0.5795 H   0  0  0  0  0  0  0  0  0  0  0  0
    0.9101    1.9748   -0.2743 C   0  0  0  0  0  0  0  0  0  0  0  0
    1.5634    1.6929    0.5526 H   0  0  0  0  0  0  0  0  0  0  0  0
    1.3989    1.6943   -1.2073 H   0  0  0  0  0  0  0  0  0  0  0  0
    0.7571    3.5018   -0.2789 C   0  0  0  0  0  0  0  0  0  0  0  0
    0.3697    3.8501    0.6784 H   0  0  0  0  0  0  0  0  0  0  0  0
    1.7321    3.9603   -0.4457 H   0  0  0  0  0  0  0  0  0  0  0  0
    0.0809    3.8066   -1.0784 H   0  0  0  0  0  0  0  0  0  0  0  0
    0.3833   -0.0008    1.9525 C   0  0  0  0  0  0  0  0  0  0  0  0
    1.5803   -0.2304    2.1189 O   0  0  0  0  0  0  0  0  0  0  0  0
   -0.4170    0.3858    2.9541 N   0  0  0  0  0  0  0  0  0  0  0  0
   -1.3850    0.5669    2.7398 H   0  0  0  0  0  0  0  0  0  0  0  0
    0.0265    0.5600    4.3358 C   0  0  0  0  0  0  0  0  0  0  0  0
    0.8964    1.2200    4.3632 H   0  0  0  0  0  0  0  0  0  0  0  0
   -0.7726    0.9946    4.9382 H   0  0  0  0  0  0  0  0  0  0  0  0
    0.3119   -0.4069    4.7547 H   0  0  0  0  0  0  0  0  0  0  0  0
  5  6  2  0  0  0  0
  5  7  1  0  0  0  0
  2  3  1  0  0  0  0
  2  4  1  0  0  0  0
  2  5  1  0  0  0  0
  1  2  1  0  0  0  0
 24 25  2  0  0  0  0
 24 26  1  0  0  0  0
 20 21  1  0  0  0  0
 20 22  1  0  0  0  0
 20 23  1  0  0  0  0
 17 18  1  0  0  0  0
 17 19  1  0  0  0  0
 17 20  1  0  0  0  0
 13 14  1  0  0  0  0
 13 15  1  0  0  0  0
 13 16  1  0  0  0  0
 11 12  1  0  0  0  0
 11 13  1  0  0  0  0
 11 17  1  0  0  0  0
  9 10  1  0  0  0  0
  9 11  1  0  0  0  0
  9 24  1  0  0  0  0
  7  8  1  0  0  0  0
  7  9  1  0  0  0  0
 28 29  1  0  0  0  0
 28 30  1  0  0  0  0
 28 31  1  0  0  0  0
 26 27  1  0  0  0  0
 26 28  1  0  0  0  0
M  END
$$$$
default_name
  -OEChem-02102213163D

 31 30  0     1  0  0  0  0  0999 V2000
   -3.0760   -3.6390    1.5496 H   0  0  0  0  0  0  0  0  0  0  0  0
   -3.0940   -2.6290    1.1426 C   0  0  0  0  0  0  0  0  0  0  0  0
   -3.7160   -1.9930    1.7706 H   0  0  0  0  0  0  0  0  0  0  0  0
   -3.4880   -2.6500    0.1286 H   0  0  0  0  0  0  0  0  0  0  0  0
   -1.6860   -2.0850    1.1196 C   0  0  0  0  0  0  0  0  0  0  0  0
   -0.7540   -2.7700    1.5226 O   0  0  0  0  0  0  0  0  0  0  0  0
   -1.5320   -0.8490    0.6496 N   0  0  0  0  0  0  0  0  0  0  0  0
   -2.3500   -0.3360    0.3566 H   0  0  0  0  0  0  0  0  0  0  0  0
   -0.2470   -0.1410    0.5576 C   0  0  1  0  0  0  0  0  0  0  0  0
    0.4239   -0.7541   -0.0450 H   0  0  0  0  0  0  0  0  0  0  0  0
   -0.4317    1.2160   -0.1683 C   0  0  1  0  0  0  0  0  0  0  0  0
   -0.7612    0.9944   -1.1853 H   0  0  0  0  0  0  0  0  0  0  0  0
   -1.5104    2.0951    0.4929 C   0  0  0  0  0  0  0  0  0  0  0  0
   -1.1930    2.4079    1.4893 H   0  0  0  0  0  0  0  0  0  0  0  0
   -1.7019    2.9790   -0.1133 H   0  0  0  0  0  0  0  0  0  0  0  0
   -2.4462    1.5417    0.5795 H   0  0  0  0  0  0  0  0  0  0  0  0
    0.9101    1.9748   -0.2743 C   0  0  0  0  0  0  0  0  0  0  0  0
    1.6522    1.5113    0.3771 H   0  0  0  0  0  0  0  0  0  0  0  0
    1.2691    1.9107   -1.3015 H   0  0  0  0  0  0  0  0  0  0  0  0
    0.8071    3.4639    0.0825 C   0  0  0  0  0  0  0  0  0  0  0  0
    0.5539    3.5881    1.1352 H   0  0  0  0  0  0  0  0  0  0  0  0
    1.7679    3.9451   -0.1021 H   0  0  0  0  0  0  0  0  0  0  0  0
    0.0464    3.9435   -0.5344 H   0  0  0  0  0  0  0  0  0  0  0  0
    0.3833   -0.0008    1.9525 C   0  0  0  0  0  0  0  0  0  0  0  0
    1.5803   -0.2304    2.1189 O   0  0  0  0  0  0  0  0  0  0  0  0
   -0.4170    0.3858    2.9541 N   0  0  0  0  0  0  0  0  0  0  0  0
   -1.3850    0.5669    2.7398 H   0  0  0  0  0  0  0  0  0  0  0  0
    0.0265    0.5600    4.3358 C   0  0  0  0  0  0  0  0  0  0  0  0
    0.8964    1.2200    4.3632 H   0  0  0  0  0  0  0  0  0  0  0  0
   -0.7726    0.9946    4.9382 H   0  0  0  0  0  0  0  0  0  0  0  0
    0.3119   -0.4069    4.7547 H   0  0  0  0  0  0  0  0  0  0  0  0
  5  6  2  0  0  0  0
  5  7  1  0  0  0  0
  2  3  1  0  0  0  0
  2  4  1  0  0  0  0
  2  5  1  0  0  0  0
  1  2  1  0  0  0  0
 24 25  2  0  0  0  0
 24 26  1  0  0  0  0
 20 21  1  0  0  0  0
 20 22  1  0  0  0  0
 20 23  1  0  0  0  0
 17 18  1  0  0  0  0
 17 19  1  0  0  0  0
 17 20  1  0  0  0  0
 13 14  1  0  0  0  0
 13 15  1  0  0  0  0
 13 16  1  0  0  0  0
 11 12  1  0  0  0  0
 11 13  1  0  0  0  0
 11 17  1  0  0  0  0
  9 10  1  0  0  0  0
  9 11  1  0  0  0  0
  9 24  1  0  0  0  0
  7  8  1  0  0  0  0
  7  9  1  0  0  0  0
 28 29  1  0  0  0  0
 28 30  1  0  0  0  0
 28 31  1  0  0  0  0
 26 27  1  0  0  0  0
 26 28  1  0  0  0  0
M  END
$$$$
default_name
  -OEChem-02102213163D

 31 30  0     1  0  0  0  0  0999 V2000
   -3.0760   -3.6390    1.5496 H   0  0  0  0  0  0  0  0  0  0  0  0
   -3.0940   -2.6290    1.1426 C   0  0  0  0  0  0  0  0  0  0  0  0
   -3.7160   -1.9930    1.7706 H   0  0  0  0  0  0  0  0  0  0  0  0
   -3.4880   -2.6500    0.1286 H   0  0  0  0  0  0  0  0  0  0  0  0
   -1.6860   -2.0850    1.1196 C   0  0  0  0  0  0  0  0  0  0  0  0
   -0.7540   -2.7700    1.5226 O   0  0  0  0  0  0  0  0  0  0  0  0
   -1.5320   -0.8490    0.6496 N   0  0  0  0  0  0  0  0  0  0  0  0
   -2.3500   -0.3360    0.3566 H   0  0  0  0  0  0  0  0  0  0  0  0
   -0.2470   -0.1410    0.5576 C   0  0  1  0  0  0  0  0  0  0  0  0
    0.4239   -0.7541   -0.0450 H   0  0  0  0  0  0  0  0  0  0  0  0
   -0.4317    1.2160   -0.1683 C   0  0  1  0  0  0  0  0  0  0  0  0
   -0.7612    0.9944   -1.1853 H   0  0  0  0  0  0  0  0  0  0  0  0
   -1.5104    2.0951    0.4929 C   0  0  0  0  0  0  0  0  0  0  0  0
   -1.1930    2.4079    1.4893 H   0  0  0  0  0  0  0  0  0  0  0  0
   -1.7019    2.9790   -0.1133 H   0  0  0  0  0  0  0  0  0  0  0  0
   -2.4462    1.5417    0.5795 H   0  0  0  0  0  0  0  0  0  0  0  0
    0.9101    1.9748   -0.2743 C   0  0  0  0  0  0  0  0  0  0  0  0
    1.7125    1.3737    0.1556 H   0  0  0  0  0  0  0  0  0  0  0  0
    1.1355    2.1432   -1.3273 H   0  0  0  0  0  0  0  0  0  0  0  0
    0.9007    3.3451    0.4167 C   0  0  0  0  0  0  0  0  0  0  0  0
    0.7853    3.2291    1.4942 H   0  0  0  0  0  0  0  0  0  0  0  0
    1.8458    3.8524    0.2219 H   0  0  0  0  0  0  0  0  0  0  0  0
    0.0847    3.9542    0.0262 H   0  0  0  0  0  0  0  0  0  0  0  0
    0.3833   -0.0008    1.9525 C   0  0  0  0  0  0  0  0  0  0  0  0
    1.5803   -0.2304    2.1189 O   0  0  0  0  0  0  0  0  0  0  0  0
   -0.4170    0.3858    2.9541 N   0  0  0  0  0  0  0  0  0  0  0  0
   -1.3850    0.5669    2.7398 H   0  0  0  0  0  0  0  0  0  0  0  0
    0.0265    0.5600    4.3358 C   0  0  0  0  0  0  0  0  0  0  0  0
    0.8964    1.2200    4.3632 H   0  0  0  0  0  0  0  0  0  0  0  0
   -0.7726    0.9946    4.9382 H   0  0  0  0  0  0  0  0  0  0  0  0
    0.3119   -0.4069    4.7547 H   0  0  0  0  0  0  0  0  0  0  0  0
  5  6  2  0  0  0  0
  5  7  1  0  0  0  0
  2  3  1  0  0  0  0
  2  4  1  0  0  0  0
  2  5  1  0  0  0  0
  1  2  1  0  0  0  0
 24 25  2  0  0  0  0
 24 26  1  0  0  0  0
 20 21  1  0  0  0  0
 20 22  1  0  0  0  0
 20 23  1  0  0  0  0
 17 18  1  0  0  0  0
 17 19  1  0  0  0  0
 17 20  1  0  0  0  0
 13 14  1  0  0  0  0
 13 15  1  0  0  0  0
 13 16  1  0  0  0  0
 11 12  1  0  0  0  0
 11 13  1  0  0  0  0
 11 17  1  0  0  0  0
  9 10  1  0  0  0  0
  9 11  1  0  0  0  0
  9 24  1  0  0  0  0
  7  8  1  0  0  0  0
  7  9  1  0  0  0  0
 28 29  1  0  0  0  0
 28 30  1  0  0  0  0
 28 31  1  0  0  0  0
 26 27  1  0  0  0  0
 26 28  1  0  0  0  0
M  END
$$$$
default_name
  -OEChem-02102213163D

 31 30  0     1  0  0  0  0  0999 V2000
   -3.0760   -3.6390    1.5496 H   0  0  0  0  0  0  0  0  0  0  0  0
   -3.0940   -2.6290    1.1426 C   0  0  0  0  0  0  0  0  0  0  0  0
   -3.7160   -1.9930    1.7706 H   0  0  0  0  0  0  0  0  0  0  0  0
   -3.4880   -2.6500    0.1286 H   0  0  0  0  0  0  0  0  0  0  0  0
   -1.6860   -2.0850    1.1196 C   0  0  0  0  0  0  0  0  0  0  0  0
   -0.7540   -2.7700    1.5226 O   0  0  0  0  0  0  0  0  0  0  0  0
   -1.5320   -0.8490    0.6496 N   0  0  0  0  0  0  0  0  0  0  0  0
   -2.3500   -0.3360    0.3566 H   0  0  0  0  0  0  0  0  0  0  0  0
   -0.2470   -0.1410    0.5576 C   0  0  1  0  0  0  0  0  0  0  0  0
    0.4239   -0.7541   -0.0450 H   0  0  0  0  0  0  0  0  0  0  0  0
   -0.4317    1.2160   -0.1683 C   0  0  1  0  0  0  0  0  0  0  0  0
   -0.7612    0.9944   -1.1853 H   0  0  0  0  0  0  0  0  0  0  0  0
   -1.5104    2.0951    0.4929 C   0  0  0  0  0  0  0  0  0  0  0  0
   -1.1930    2.4079    1.4893 H   0  0  0  0  0  0  0  0  0  0  0  0
   -1.7019    2.9790   -0.1133 H   0  0  0  0  0  0  0  0  0  0  0  0
   -2.4462    1.5417    0.5795 H   0  0  0  0  0  0  0  0  0  0  0  0
    0.9101    1.9748   -0.2743 C   0  0  0  0  0  0  0  0  0  0  0  0
    1.7402    1.2896   -0.0970 H   0  0  0  0  0  0  0  0  0  0  0  0
    1.0074    2.3761   -1.2830 H   0  0  0  0  0  0  0  0  0  0  0  0
    1.0314    3.1536    0.7009 C   0  0  0  0  0  0  0  0  0  0  0  0
    1.0480    2.7976    1.7308 H   0  0  0  0  0  0  0  0  0  0  0  0
    1.9606    3.6888    0.5041 H   0  0  0  0  0  0  0  0  0  0  0  0
    0.1931    3.8378    0.5652 H   0  0  0  0  0  0  0  0  0  0  0  0
    0.3833   -0.0008    1.9525 C   0  0  0  0  0  0  0  0  0  0  0  0
    1.5803   -0.2304    2.1189 O   0  0  0  0  0  0  0  0  0  0  0  0
   -0.4170    0.3858    2.9541 N   0  0  0  0  0  0  0  0  0  0  0  0
   -1.3850    0.5669    2.7398 H   0  0  0  0  0  0  0  0  0  0  0  0
    0.0265    0.5600    4.3358 C   0  0  0  0  0  0  0  0  0  0  0  0
    0.8964    1.2200    4.3632 H   0  0  0  0  0  0  0  0  0  0  0  0
   -0.7726    0.9946    4.9382 H   0  0  0  0  0  0  0  0  0  0  0  0
    0.3119   -0.4069    4.7547 H   0  0  0  0  0  0  0  0  0  0  0  0
  5  6  2  0  0  0  0
  5  7  1  0  0  0  0
  2  3  1  0  0  0  0
  2  4  1  0  0  0  0
  2  5  1  0  0  0  0
  1  2  1  0  0  0  0
 24 25  2  0  0  0  0
 24 26  1  0  0  0  0
 20 21  1  0  0  0  0
 20 22  1  0  0  0  0
 20 23  1  0  0  0  0
 17 18  1  0  0  0  0
 17 19  1  0  0  0  0
 17 20  1  0  0  0  0
 13 14  1  0  0  0  0
 13 15  1  0  0  0  0
 13 16  1  0  0  0  0
 11 12  1  0  0  0  0
 11 13  1  0  0  0  0
 11 17  1  0  0  0  0
  9 10  1  0  0  0  0
  9 11  1  0  0  0  0
  9 24  1  0  0  0  0
  7  8  1  0  0  0  0
  7  9  1  0  0  0  0
 28 29  1  0  0  0  0
 28 30  1  0  0  0  0
 28 31  1  0  0  0  0
 26 27  1  0  0  0  0
 26 28  1  0  0  0  0
M  END
$$$$
default_name
  -OEChem-02102213163D

 31 30  0     1  0  0  0  0  0999 V2000
   -3.0760   -3.6390    1.5496 H   0  0  0  0  0  0  0  0  0  0  0  0
   -3.0940   -2.6290    1.1426 C   0  0  0  0  0  0  0  0  0  0  0  0
   -3.7160   -1.9930    1.7706 H   0  0  0  0  0  0  0  0  0  0  0  0
   -3.4880   -2.6500    0.1286 H   0  0  0  0  0  0  0  0  0  0  0  0
   -1.6860   -2.0850    1.1196 C   0  0  0  0  0  0  0  0  0  0  0  0
   -0.7540   -2.7700    1.5226 O   0  0  0  0  0  0  0  0  0  0  0  0
   -1.5320   -0.8490    0.6496 N   0  0  0  0  0  0  0  0  0  0  0  0
   -2.3500   -0.3360    0.3566 H   0  0  0  0  0  0  0  0  0  0  0  0
   -0.2470   -0.1410    0.5576 C   0  0  1  0  0  0  0  0  0  0  0  0
    0.4239   -0.7541   -0.0450 H   0  0  0  0  0  0  0  0  0  0  0  0
   -0.4317    1.2160   -0.1683 C   0  0  1  0  0  0  0  0  0  0  0  0
   -0.7612    0.9944   -1.1853 H   0  0  0  0  0  0  0  0  0  0  0  0
   -1.5104    2.0951    0.4929 C   0  0  0  0  0  0  0  0  0  0  0  0
   -1.1930    2.4079    1.4893 H   0  0  0  0  0  0  0  0  0  0  0  0
   -1.7019    2.9790   -0.1133 H   0  0  0  0  0  0  0  0  0  0  0  0
   -2.4462    1.5417    0.5795 H   0  0  0  0  0  0  0  0  0  0  0  0
    0.9101    1.9748   -0.2743 C   0  0  0  0  0  0  0  0  0  0  0  0
    1.7333    1.2646   -0.3634 H   0  0  0  0  0  0  0  0  0  0  0  0
    0.8933    2.5932   -1.1716 H   0  0  0  0  0  0  0  0  0  0  0  0
    1.1904    2.9025    0.9158 C   0  0  0  0  0  0  0  0  0  0  0  0
    1.3242    2.3229    1.8290 H   0  0  0  0  0  0  0  0  0  0  0  0
    2.1045    3.4652    0.7253 H   0  0  0  0  0  0  0  0  0  0  0  0
    0.3642    3.6023    1.0459 H   0  0  0  0  0  0  0  0  0  0  0  0
    0.3833   -0.0008    1.9525 C   0  0  0  0  0  0  0  0  0  0  0  0
    1.5803   -0.2304    2.1189 O   0  0  0  0  0  0  0  0  0  0  0  0
   -0.4170    0.3858    2.9541 N   0  0  0  0  0  0  0  0  0  0  0  0
   -1.3850    0.5669    2.7398 H   0  0  0  0  0  0  0  0  0  0  0  0
    0.0265    0.5600    4.3358 C   0  0  0  0  0  0  0  0  0  0  0  0
    0.8964    1.2200    4.3632 H   0  0  0  0  0  0  0  0  0  0  0  0
   -0.7726    0.9946    4.9382 H   0  0  0  0  0  0  0  0  0  0  0  0
    0.3119   -0.4069    4.7547 H   0  0  0  0  0  0  0  0  0  0  0  0
  5  6  2  0  0  0  0
  5  7  1  0  0  0  0
  2  3  1  0  0  0  0
  2  4  1  0  0  0  0
  2  5  1  0  0  0  0
  1  2  1  0  0  0  0
 24 25  2  0  0  0  0
 24 26  1  0  0  0  0
 20 21  1  0  0  0  0
 20 22  1  0  0  0  0
 20 23  1  0  0  0  0
 17 18  1  0  0  0  0
 17 19  1  0  0  0  0
 17 20  1  0  0  0  0
 13 14  1  0  0  0  0
 13 15  1  0  0  0  0
 13 16  1  0  0  0  0
 11 12  1  0  0  0  0
 11 13  1  0  0  0  0
 11 17  1  0  0  0  0
  9 10  1  0  0  0  0
  9 11  1  0  0  0  0
  9 24  1  0  0  0  0
  7  8  1  0  0  0  0
  7  9  1  0  0  0  0
 28 29  1  0  0  0  0
 28 30  1  0  0  0  0
 28 31  1  0  0  0  0
 26 27  1  0  0  0  0
 26 28  1  0  0  0  0
M  END
$$$$
default_name
  -OEChem-02102213163D

 31 30  0     1  0  0  0  0  0999 V2000
   -3.0760   -3.6390    1.5496 H   0  0  0  0  0  0  0  0  0  0  0  0
   -3.0940   -2.6290    1.1426 C   0  0  0  0  0  0  0  0  0  0  0  0
   -3.7160   -1.9930    1.7706 H   0  0  0  0  0  0  0  0  0  0  0  0
   -3.4880   -2.6500    0.1286 H   0  0  0  0  0  0  0  0  0  0  0  0
   -1.6860   -2.0850    1.1196 C   0  0  0  0  0  0  0  0  0  0  0  0
   -0.7540   -2.7700    1.5226 O   0  0  0  0  0  0  0  0  0  0  0  0
   -1.5320   -0.8490    0.6496 N   0  0  0  0  0  0  0  0  0  0  0  0
   -2.3500   -0.3360    0.3566 H   0  0  0  0  0  0  0  0  0  0  0  0
   -0.2470   -0.1410    0.5576 C   0  0  1  0  0  0  0  0  0  0  0  0
    0.4239   -0.7541   -0.0450 H   0  0  0  0  0  0  0  0  0  0  0  0
   -0.4317    1.2160   -0.1683 C   0  0  1  0  0  0  0  0  0  0  0  0
   -0.7612    0.9944   -1.1853 H   0  0  0  0  0  0  0  0  0  0  0  0
   -1.5104    2.0951    0.4929 C   0  0  0  0  0  0  0  0  0  0  0  0
   -1.1930    2.4079    1.4893 H   0  0  0  0  0  0  0  0  0  0  0  0
   -1.7019    2.9790   -0.1133 H   0  0  0  0  0  0  0  0  0  0  0  0
   -2.4462    1.5417    0.5795 H   0  0  0  0  0  0  0  0  0  0  0  0
    0.9101    1.9748   -0.2743 C   0  0  0  0  0  0  0  0  0  0  0  0
    1.6923    1.3005   -0.6255 H   0  0  0  0  0  0  0  0  0  0  0  0
    0.8012    2.7800   -1.0007 H   0  0  0  0  0  0  0  0  0  0  0  0
    1.3669    2.6087    1.0466 C   0  0  0  0  0  0  0  0  0  0  0  0
    1.5950    1.8374    1.7821 H   0  0  0  0  0  0  0  0  0  0  0  0
    2.2677    3.1970    0.8705 H   0  0  0  0  0  0  0  0  0  0  0  0
    0.5864    3.2637    1.4356 H   0  0  0  0  0  0  0  0  0  0  0  0
    0.3833   -0.0008    1.9525 C   0  0  0  0  0  0  0  0  0  0  0  0
    1.5803   -0.2304    2.1189 O   0  0  0  0  0  0  0  0  0  0  0  0
   -0.4170    0.3858    2.9541 N   0  0  0  0  0  0  0  0  0  0  0  0
   -1.3850    0.5669    2.7398 H   0  0  0  0  0  0  0  0  0  0  0  0
    0.0265    0.5600    4.3358 C   0  0  0  0  0  0  0  0  0  0  0  0
    0.8964    1.2200    4.3632 H   0  0  0  0  0  0  0  0  0  0  0  0
   -0.7726    0.9946    4.9382 H   0  0  0  0  0  0  0  0  0  0  0  0
    0.3119   -0.4069    4.7547 H   0  0  0  0  0  0  0  0  0  0  0  0
  5  6  2  0  0  0  0
  5  7  1  0  0  0  0
  2  3  1  0  0  0  0
  2  4  1  0  0  0  0
  2  5  1  0  0  0  0
  1  2  1  0  0  0  0
 24 25  2  0  0  0  0
 24 26  1  0  0  0  0
 20 21  1  0  0  0  0
 20 22  1  0  0  0  0
 20 23  1  0  0  0  0
 17 18  1  0  0  0  0
 17 19  1  0  0  0  0
 17 20  1  0  0  0  0
 13 14  1  0  0  0  0
 13 15  1  0  0  0  0
 13 16  1  0  0  0  0
 11 12  1  0  0  0  0
 11 13  1  0  0  0  0
 11 17  1  0  0  0  0
  9 10  1  0  0  0  0
  9 11  1  0  0  0  0
  9 24  1  0  0  0  0
  7  8  1  0  0  0  0
  7  9  1  0  0  0  0
 28 29  1  0  0  0  0
 28 30  1  0  0  0  0
 28 31  1  0  0  0  0
 26 27  1  0  0  0  0
 26 28  1  0  0  0  0
M  END
$$$$
default_name
  -OEChem-02102213163D

 31 30  0     1  0  0  0  0  0999 V2000
   -3.0760   -3.6390    1.5496 H   0  0  0  0  0  0  0  0  0  0  0  0
   -3.0940   -2.6290    1.1426 C   0  0  0  0  0  0  0  0  0  0  0  0
   -3.7160   -1.9930    1.7706 H   0  0  0  0  0  0  0  0  0  0  0  0
   -3.4880   -2.6500    0.1286 H   0  0  0  0  0  0  0  0  0  0  0  0
   -1.6860   -2.0850    1.1196 C   0  0  0  0  0  0  0  0  0  0  0  0
   -0.7540   -2.7700    1.5226 O   0  0  0  0  0  0  0  0  0  0  0  0
   -1.5320   -0.8490    0.6496 N   0  0  0  0  0  0  0  0  0  0  0  0
   -2.3500   -0.3360    0.3566 H   0  0  0  0  0  0  0  0  0  0  0  0
   -0.2470   -0.1410    0.5576 C   0  0  1  0  0  0  0  0  0  0  0  0
    0.4239   -0.7541   -0.0450 H   0  0  0  0  0  0  0  0  0  0  0  0
   -0.4317    1.2160   -0.1683 C   0  0  1  0  0  0  0  0  0  0  0  0
   -0.7612    0.9944   -1.1853 H   0  0  0  0  0  0  0  0  0  0  0  0
   -1.5104    2.0951    0.4929 C   0  0  0  0  0  0  0  0  0  0  0  0
   -1.1930    2.4079    1.4893 H   0  0  0  0  0  0  0  0  0  0  0  0
   -1.7019    2.9790   -0.1133 H   0  0  0  0  0  0  0  0  0  0  0  0
   -2.4462    1.5417    0.5795 H   0  0  0  0  0  0  0  0  0  0  0  0
    0.9101    1.9748   -0.2743 C   0  0  0  0  0  0  0  0  0  0  0  0
    1.6201    1.3947   -0.8654 H   0  0  0  0  0  0  0  0  0  0  0  0
    0.7372    2.9237   -0.7820 H   0  0  0  0  0  0  0  0  0  0  0  0
    1.5487    2.2925    1.0846 C   0  0  0  0  0  0  0  0  0  0  0  0
    1.8420    1.3743    1.5932 H   0  0  0  0  0  0  0  0  0  0  0  0
    2.4389    2.9025    0.9297 H   0  0  0  0  0  0  0  0  0  0  0  0
    0.8446    2.8451    1.7076 H   0  0  0  0  0  0  0  0  0  0  0  0
    0.3833   -0.0008    1.9525 C   0  0  0  0  0  0  0  0  0  0  0  0
    1.5803   -0.2304    2.1189 O   0  0  0  0  0  0  0  0  0  0  0  0
   -0.4170    0.3858    2.9541 N   0  0  0  0  0  0  0  0  0  0  0  0
   -1.3850    0.5669    2.7398 H   0  0  0  0  0  0  0  0  0  0  0  0
    0.0265    0.5600    4.3358 C   0  0  0  0  0  0  0  0  0  0  0  0
    0.8964    1.2200    4.3632 H   0  0  0  0  0  0  0  0  0  0  0  0
   -0.7726    0.9946    4.9382 H   0  0  0  0  0  0  0  0  0  0  0  0
    0.3119   -0.4069    4.7547 H   0  0  0  0  0  0  0  0  0  0  0  0
  5  6  2  0  0  0  0
  5  7  1  0  0  0  0
  2  3  1  0  0  0  0
  2  4  1  0  0  0  0
  2  5  1  0  0  0  0
  1  2  1  0  0  0  0
 24 25  2  0  0  0  0
 24 26  1  0  0  0  0
 20 21  1  0  0  0  0
 20 22  1  0  0  0  0
 20 23  1  0  0  0  0
 17 18  1  0  0  0  0
 17 19  1  0  0  0  0
 17 20  1  0  0  0  0
 13 14  1  0  0  0  0
 13 15  1  0  0  0  0
 13 16  1  0  0  0  0
 11 12  1  0  0  0  0
 11 13  1  0  0  0  0
 11 17  1  0  0  0  0
  9 10  1  0  0  0  0
  9 11  1  0  0  0  0
  9 24  1  0  0  0  0
  7  8  1  0  0  0  0
  7  9  1  0  0  0  0
 28 29  1  0  0  0  0
 28 30  1  0  0  0  0
 28 31  1  0  0  0  0
 26 27  1  0  0  0  0
 26 28  1  0  0  0  0
M  END
$$$$
default_name
  -OEChem-02102213163D

 31 30  0     1  0  0  0  0  0999 V2000
   -3.0760   -3.6390    1.5496 H   0  0  0  0  0  0  0  0  0  0  0  0
   -3.0940   -2.6290    1.1426 C   0  0  0  0  0  0  0  0  0  0  0  0
   -3.7160   -1.9930    1.7706 H   0  0  0  0  0  0  0  0  0  0  0  0
   -3.4880   -2.6500    0.1286 H   0  0  0  0  0  0  0  0  0  0  0  0
   -1.6860   -2.0850    1.1196 C   0  0  0  0  0  0  0  0  0  0  0  0
   -0.7540   -2.7700    1.5226 O   0  0  0  0  0  0  0  0  0  0  0  0
   -1.5320   -0.8490    0.6496 N   0  0  0  0  0  0  0  0  0  0  0  0
   -2.3500   -0.3360    0.3566 H   0  0  0  0  0  0  0  0  0  0  0  0
   -0.2470   -0.1410    0.5576 C   0  0  1  0  0  0  0  0  0  0  0  0
    0.4239   -0.7541   -0.0450 H   0  0  0  0  0  0  0  0  0  0  0  0
   -0.4317    1.2160   -0.1683 C   0  0  1  0  0  0  0  0  0  0  0  0
   -0.7612    0.9944   -1.1853 H   0  0  0  0  0  0  0  0  0  0  0  0
   -1.5104    2.0951    0.4929 C   0  0  0  0  0  0  0  0  0  0  0  0
   -1.1930    2.4079    1.4893 H   0  0  0  0  0  0  0  0  0  0  0  0
   -1.7019    2.9790   -0.1133 H   0  0  0  0  0  0  0  0  0  0  0  0
   -2.4462    1.5417    0.5795 H   0  0  0  0  0  0  0  0  0  0  0  0
    0.9101    1.9748   -0.2743 C   0  0  0  0  0  0  0  0  0  0  0  0
    1.5215    1.5410   -1.0667 H   0  0  0  0  0  0  0  0  0  0  0  0
    0.7058    3.0144   -0.5302 H   0  0  0  0  0  0  0  0  0  0  0  0
    1.7236    1.9752    1.0271 C   0  0  0  0  0  0  0  0  0  0  0  0
    2.0484    0.9649    1.2752 H   0  0  0  0  0  0  0  0  0  0  0  0
    2.6066    2.6016    0.8989 H   0  0  0  0  0  0  0  0  0  0  0  0
    1.1211    2.3751    1.8435 H   0  0  0  0  0  0  0  0  0  0  0  0
    0.3833   -0.0008    1.9525 C   0  0  0  0  0  0  0  0  0  0  0  0
    1.5803   -0.2304    2.1189 O   0  0  0  0  0  0  0  0  0  0  0  0
   -0.4170    0.3858    2.9541 N   0  0  0  0  0  0  0  0  0  0  0  0
   -1.3850    0.5669    2.7398 H   0  0  0  0  0  0  0  0  0  0  0  0
    0.0265    0.5600    4.3358 C   0  0  0  0  0  0  0  0  0  0  0  0
    0.8964    1.2200    4.3632 H   0  0  0  0  0  0  0  0  0  0  0  0
   -0.7726    0.9946    4.9382 H   0  0  0  0  0  0  0  0  0  0  0  0
    0.3119   -0.4069    4.7547 H   0  0  0  0  0  0  0  0  0  0  0  0
  5  6  2  0  0  0  0
  5  7  1  0  0  0  0
  2  3  1  0  0  0  0
  2  4  1  0  0  0  0
  2  5  1  0  0  0  0
  1  2  1  0  0  0  0
 24 25  2  0  0  0  0
 24 26  1  0  0  0  0
 20 21  1  0  0  0  0
 20 22  1  0  0  0  0
 20 23  1  0  0  0  0
 17 18  1  0  0  0  0
 17 19  1  0  0  0  0
 17 20  1  0  0  0  0
 13 14  1  0  0  0  0
 13 15  1  0  0  0  0
 13 16  1  0  0  0  0
 11 12  1  0  0  0  0
 11 13  1  0  0  0  0
 11 17  1  0  0  0  0
  9 10  1  0  0  0  0
  9 11  1  0  0  0  0
  9 24  1  0  0  0  0
  7  8  1  0  0  0  0
  7  9  1  0  0  0  0
 28 29  1  0  0  0  0
 28 30  1  0  0  0  0
 28 31  1  0  0  0  0
 26 27  1  0  0  0  0
 26 28  1  0  0  0  0
M  END
$$$$
default_name
  -OEChem-02102213163D

 31 30  0     1  0  0  0  0  0999 V2000
   -3.0760   -3.6390    1.5496 H   0  0  0  0  0  0  0  0  0  0  0  0
   -3.0940   -2.6290    1.1426 C   0  0  0  0  0  0  0  0  0  0  0  0
   -3.7160   -1.9930    1.7706 H   0  0  0  0  0  0  0  0  0  0  0  0
   -3.4880   -2.6500    0.1286 H   0  0  0  0  0  0  0  0  0  0  0  0
   -1.6860   -2.0850    1.1196 C   0  0  0  0  0  0  0  0  0  0  0  0
   -0.7540   -2.7700    1.5226 O   0  0  0  0  0  0  0  0  0  0  0  0
   -1.5320   -0.8490    0.6496 N   0  0  0  0  0  0  0  0  0  0  0  0
   -2.3500   -0.3360    0.3566 H   0  0  0  0  0  0  0  0  0  0  0  0
   -0.2470   -0.1410    0.5576 C   0  0  1  0  0  0  0  0  0  0  0  0
    0.4239   -0.7541   -0.0450 H   0  0  0  0  0  0  0  0  0  0  0  0
   -0.4317    1.2160   -0.1683 C   0  0  1  0  0  0  0  0  0  0  0  0
   -0.7612    0.9944   -1.1853 H   0  0  0  0  0  0  0  0  0  0  0  0
   -1.5104    2.0951    0.4929 C   0  0  0  0  0  0  0  0  0  0  0  0
   -1.1930    2.4079    1.4893 H   0  0  0  0  0  0  0  0  0  0  0  0
   -1.7019    2.9790   -0.1133 H   0  0  0  0  0  0  0  0  0  0  0  0
   -2.4462    1.5417    0.5795 H   0  0  0  0  0  0  0  0  0  0  0  0
    0.9101    1.9748   -0.2743 C   0  0  0  0  0  0  0  0  0  0  0  0
    1.4032    1.7292   -1.2158 H   0  0  0  0  0  0  0  0  0  0  0  0
    0.7091    3.0460   -0.2627 H   0  0  0  0  0  0  0  0  0  0  0  0
    1.8795    1.6786    0.8780 C   0  0  0  0  0  0  0  0  0  0  0  0
    2.2001    0.6373    0.8498 H   0  0  0  0  0  0  0  0  0  0  0  0
    2.7594    2.3149    0.7802 H   0  0  0  0  0  0  0  0  0  0  0  0
    1.3972    1.8857    1.8339 H   0  0  0  0  0  0  0  0  0  0  0  0
    0.3833   -0.0008    1.9525 C   0  0  0  0  0  0  0  0  0  0  0  0
    1.5803   -0.2304    2.1189 O   0  0  0  0  0  0  0  0  0  0  0  0
   -0.4170    0.3858    2.9541 N   0  0  0  0  0  0  0  0  0  0  0  0
   -1.3850    0.5669    2.7398 H   0  0  0  0  0  0  0  0  0  0  0  0
    0.0265    0.5600    4.3358 C   0  0  0  0  0  0  0  0  0  0  0  0
    0.8964    1.2200    4.3632 H   0  0  0  0  0  0  0  0  0  0  0  0
   -0.7726    0.9946    4.9382 H   0  0  0  0  0  0  0  0  0  0  0  0
    0.3119   -0.4069    4.7547 H   0  0  0  0  0  0  0  0  0  0  0  0
  5  6  2  0  0  0  0
  5  7  1  0  0  0  0
  2  3  1  0  0  0  0
  2  4  1  0  0  0  0
  2  5  1  0  0  0  0
  1  2  1  0  0  0  0
 24 25  2  0  0  0  0
 24 26  1  0  0  0  0
 20 21  1  0  0  0  0
 20 22  1  0  0  0  0
 20 23  1  0  0  0  0
 17 18  1  0  0  0  0
 17 19  1  0  0  0  0
 17 20  1  0  0  0  0
 13 14  1  0  0  0  0
 13 15  1  0  0  0  0
 13 16  1  0  0  0  0
 11 12  1  0  0  0  0
 11 13  1  0  0  0  0
 11 17  1  0  0  0  0
  9 10  1  0  0  0  0
  9 11  1  0  0  0  0
  9 24  1  0  0  0  0
  7  8  1  0  0  0  0
  7  9  1  0  0  0  0
 28 29  1  0  0  0  0
 28 30  1  0  0  0  0
 28 31  1  0  0  0  0
 26 27  1  0  0  0  0
 26 28  1  0  0  0  0
M  END
$$$$
default_name
  -OEChem-02102213163D

 31 30  0     1  0  0  0  0  0999 V2000
   -3.0760   -3.6390    1.5496 H   0  0  0  0  0  0  0  0  0  0  0  0
   -3.0940   -2.6290    1.1426 C   0  0  0  0  0  0  0  0  0  0  0  0
   -3.7160   -1.9930    1.7706 H   0  0  0  0  0  0  0  0  0  0  0  0
   -3.4880   -2.6500    0.1286 H   0  0  0  0  0  0  0  0  0  0  0  0
   -1.6860   -2.0850    1.1196 C   0  0  0  0  0  0  0  0  0  0  0  0
   -0.7540   -2.7700    1.5226 O   0  0  0  0  0  0  0  0  0  0  0  0
   -1.5320   -0.8490    0.6496 N   0  0  0  0  0  0  0  0  0  0  0  0
   -2.3500   -0.3360    0.3566 H   0  0  0  0  0  0  0  0  0  0  0  0
   -0.2470   -0.1410    0.5576 C   0  0  1  0  0  0  0  0  0  0  0  0
    0.4239   -0.7541   -0.0450 H   0  0  0  0  0  0  0  0  0  0  0  0
   -0.4317    1.2160   -0.1683 C   0  0  1  0  0  0  0  0  0  0  0  0
   -0.7612    0.9944   -1.1853 H   0  0  0  0  0  0  0  0  0  0  0  0
   -1.5104    2.0951    0.4929 C   0  0  0  0  0  0  0  0  0  0  0  0
   -1.1930    2.4079    1.4893 H   0  0  0  0  0  0  0  0  0  0  0  0
   -1.7019    2.9790   -0.1133 H   0  0  0  0  0  0  0  0  0  0  0  0
   -2.4462    1.5417    0.5795 H   0  0  0  0  0  0  0  0  0  0  0  0
    0.9101    1.9748   -0.2743 C   0  0  0  0  0  0  0  0  0  0  0  0
    1.2734    1.9467   -1.3025 H   0  0  0  0  0  0  0  0  0  0  0  0
    0.7468    3.0163    0.0024 H   0  0  0  0  0  0  0  0  0  0  0  0
    2.0060    1.4228    0.6475 C   0  0  0  0  0  0  0  0  0  0  0  0
    2.2867    0.4138    0.3461 H   0  0  0  0  0  0  0  0  0  0  0  0
    2.8868    2.0620    0.5817 H   0  0  0  0  0  0  0  0  0  0  0  0
    1.6539    1.4102    1.6796 H   0  0  0  0  0  0  0  0  0  0  0  0
    0.3833   -0.0008    1.9525 C   0  0  0  0  0  0  0  0  0  0  0  0
    1.5803   -0.2304    2.1189 O   0  0  0  0  0  0  0  0  0  0  0  0
   -0.4170    0.3858    2.9541 N   0  0  0  0  0  0  0  0  0  0  0  0
   -1.3850    0.5669    2.7398 H   0  0  0  0  0  0  0  0  0  0  0  0
    0.0265    0.5600    4.3358 C   0  0  0  0  0  0  0  0  0  0  0  0
    0.8964    1.2200    4.3632 H   0  0  0  0  0  0  0  0  0  0  0  0
   -0.7726    0.9946    4.9382 H   0  0  0  0  0  0  0  0  0  0  0  0
    0.3119   -0.4069    4.7547 H   0  0  0  0  0  0  0  0  0  0  0  0
  5  6  2  0  0  0  0
  5  7  1  0  0  0  0
  2  3  1  0  0  0  0
  2  4  1  0  0  0  0
  2  5  1  0  0  0  0
  1  2  1  0  0  0  0
 24 25  2  0  0  0  0
 24 26  1  0  0  0  0
 20 21  1  0  0  0  0
 20 22  1  0  0  0  0
 20 23  1  0  0  0  0
 17 18  1  0  0  0  0
 17 19  1  0  0  0  0
 17 20  1  0  0  0  0
 13 14  1  0  0  0  0
 13 15  1  0  0  0  0
 13 16  1  0  0  0  0
 11 12  1  0  0  0  0
 11 13  1  0  0  0  0
 11 17  1  0  0  0  0
  9 10  1  0  0  0  0
  9 11  1  0  0  0  0
  9 24  1  0  0  0  0
  7  8  1  0  0  0  0
  7  9  1  0  0  0  0
 28 29  1  0  0  0  0
 28 30  1  0  0  0  0
 28 31  1  0  0  0  0
 26 27  1  0  0  0  0
 26 28  1  0  0  0  0
M  END
$$$$
default_name
  -OEChem-02102213163D

 31 30  0     1  0  0  0  0  0999 V2000
   -3.0760   -3.6390    1.5496 H   0  0  0  0  0  0  0  0  0  0  0  0
   -3.0940   -2.6290    1.1426 C   0  0  0  0  0  0  0  0  0  0  0  0
   -3.7160   -1.9930    1.7706 H   0  0  0  0  0  0  0  0  0  0  0  0
   -3.4880   -2.6500    0.1286 H   0  0  0  0  0  0  0  0  0  0  0  0
   -1.6860   -2.0850    1.1196 C   0  0  0  0  0  0  0  0  0  0  0  0
   -0.7540   -2.7700    1.5226 O   0  0  0  0  0  0  0  0  0  0  0  0
   -1.5320   -0.8490    0.6496 N   0  0  0  0  0  0  0  0  0  0  0  0
   -2.3500   -0.3360    0.3566 H   0  0  0  0  0  0  0  0  0  0  0  0
   -0.2470   -0.1410    0.5576 C   0  0  1  0  0  0  0  0  0  0  0  0
    0.4239   -0.7541   -0.0450 H   0  0  0  0  0  0  0  0  0  0  0  0
   -0.4317    1.2160   -0.1683 C   0  0  1  0  0  0  0  0  0  0  0  0
   -0.7612    0.9944   -1.1853 H   0  0  0  0  0  0  0  0  0  0  0  0
   -1.5104    2.0951    0.4929 C   0  0  0  0  0  0  0  0  0  0  0  0
   -1.1930    2.4079    1.4893 H   0  0  0  0  0  0  0  0  0  0  0  0
   -1.7019    2.9790   -0.1133 H   0  0  0  0  0  0  0  0  0  0  0  0
   -2.4462    1.5417    0.5795 H   0  0  0  0  0  0  0  0  0  0  0  0
    0.9101    1.9748   -0.2743 C   0  0  0  0  0  0  0  0  0  0  0  0
    1.1408    2.1785   -1.3208 H   0  0  0  0  0  0  0  0  0  0  0  0
    0.8164    2.9274    0.2470 H   0  0  0  0  0  0  0  0  0  0  0  0
    2.0943    1.2253    0.3513 C   0  0  0  0  0  0  0  0  0  0  0  0
    2.3024    0.3096   -0.2018 H   0  0  0  0  0  0  0  0  0  0  0  0
    2.9801    1.8600    0.3169 H   0  0  0  0  0  0  0  0  0  0  0  0
    1.8738    0.9810    1.3910 H   0  0  0  0  0  0  0  0  0  0  0  0
    0.3833   -0.0008    1.9525 C   0  0  0  0  0  0  0  0  0  0  0  0
    1.5803   -0.2304    2.1189 O   0  0  0  0  0  0  0  0  0  0  0  0
   -0.4170    0.3858    2.9541 N   0  0  0  0  0  0  0  0  0  0  0  0
   -1.3850    0.5669    2.7398 H   0  0  0  0  0  0  0  0  0  0  0  0
    0.0265    0.5600    4.3358 C   0  0  0  0  0  0  0  0  0  0  0  0
    0.8964    1.2200    4.3632 H   0  0  0  0  0  0  0  0  0  0  0  0
   -0.7726    0.9946    4.9382 H   0  0  0  0  0  0  0  0  0  0  0  0
    0.3119   -0.4069    4.7547 H   0  0  0  0  0  0  0  0  0  0  0  0
  5  6  2  0  0  0  0
  5  7  1  0  0  0  0
  2  3  1  0  0  0  0
  2  4  1  0  0  0  0
  2  5  1  0  0  0  0
  1  2  1  0  0  0  0
 24 25  2  0  0  0  0
 24 26  1  0  0  0  0
 20 21  1  0  0  0  0
 20 22  1  0  0  0  0
 20 23  1  0  0  0  0
 17 18  1  0  0  0  0
 17 19  1  0  0  0  0
 17 20  1  0  0  0  0
 13 14  1  0  0  0  0
 13 15  1  0  0  0  0
 13 16  1  0  0  0  0
 11 12  1  0  0  0  0
 11 13  1  0  0  0  0
 11 17  1  0  0  0  0
  9 10  1  0  0  0  0
  9 11  1  0  0  0  0
  9 24  1  0  0  0  0
  7  8  1  0  0  0  0
  7  9  1  0  0  0  0
 28 29  1  0  0  0  0
 28 30  1  0  0  0  0
 28 31  1  0  0  0  0
 26 27  1  0  0  0  0
 26 28  1  0  0  0  0
M  END
$$$$
default_name
  -OEChem-02102213163D

 31 30  0     1  0  0  0  0  0999 V2000
   -3.0760   -3.6390    1.5496 H   0  0  0  0  0  0  0  0  0  0  0  0
   -3.0940   -2.6290    1.1426 C   0  0  0  0  0  0  0  0  0  0  0  0
   -3.7160   -1.9930    1.7706 H   0  0  0  0  0  0  0  0  0  0  0  0
   -3.4880   -2.6500    0.1286 H   0  0  0  0  0  0  0  0  0  0  0  0
   -1.6860   -2.0850    1.1196 C   0  0  0  0  0  0  0  0  0  0  0  0
   -0.7540   -2.7700    1.5226 O   0  0  0  0  0  0  0  0  0  0  0  0
   -1.5320   -0.8490    0.6496 N   0  0  0  0  0  0  0  0  0  0  0  0
   -2.3500   -0.3360    0.3566 H   0  0  0  0  0  0  0  0  0  0  0  0
   -0.2470   -0.1410    0.5576 C   0  0  1  0  0  0  0  0  0  0  0  0
    0.4239   -0.7541   -0.0450 H   0  0  0  0  0  0  0  0  0  0  0  0
   -0.4317    1.2160   -0.1683 C   0  0  1  0  0  0  0  0  0  0  0  0
   -0.7612    0.9944   -1.1853 H   0  0  0  0  0  0  0  0  0  0  0  0
   -1.5104    2.0951    0.4929 C   0  0  0  0  0  0  0  0  0  0  0  0
   -1.1930    2.4079    1.4893 H   0  0  0  0  0  0  0  0  0  0  0  0
   -1.7019    2.9790   -0.1133 H   0  0  0  0  0  0  0  0  0  0  0  0
   -2.4462    1.5417    0.5795 H   0  0  0  0  0  0  0  0  0  0  0  0
    0.9101    1.9748   -0.2743 C   0  0  0  0  0  0  0  0  0  0  0  0
    1.0146    2.4089   -1.2695 H   0  0  0  0  0  0  0  0  0  0  0  0
    0.9131    2.7853    0.4545 H   0  0  0  0  0  0  0  0  0  0  0  0
    2.1384    1.0996    0.0096 C   0  0  0  0  0  0  0  0  0  0  0  0
    2.2460    0.3318   -0.7564 H   0  0  0  0  0  0  0  0  0  0  0  0
    3.0330    1.7227    0.0038 H   0  0  0  0  0  0  0  0  0  0  0  0
    2.0420    0.6274    0.9879 H   0  0  0  0  0  0  0  0  0  0  0  0
    0.3833   -0.0008    1.9525 C   0  0  0  0  0  0  0  0  0  0  0  0
    1.5803   -0.2304    2.1189 O   0  0  0  0  0  0  0  0  0  0  0  0
   -0.4170    0.3858    2.9541 N   0  0  0  0  0  0  0  0  0  0  0  0
   -1.3850    0.5669    2.7398 H   0  0  0  0  0  0  0  0  0  0  0  0
    0.0265    0.5600    4.3358 C   0  0  0  0  0  0  0  0  0  0  0  0
    0.8964    1.2200    4.3632 H   0  0  0  0  0  0  0  0  0  0  0  0
   -0.7726    0.9946    4.9382 H   0  0  0  0  0  0  0  0  0  0  0  0
    0.3119   -0.4069    4.7547 H   0  0  0  0  0  0  0  0  0  0  0  0
  5  6  2  0  0  0  0
  5  7  1  0  0  0  0
  2  3  1  0  0  0  0
  2  4  1  0  0  0  0
  2  5  1  0  0  0  0
  1  2  1  0  0  0  0
 24 25  2  0  0  0  0
 24 26  1  0  0  0  0
 20 21  1  0  0  0  0
 20 22  1  0  0  0  0
 20 23  1  0  0  0  0
 17 18  1  0  0  0  0
 17 19  1  0  0  0  0
 17 20  1  0  0  0  0
 13 14  1  0  0  0  0
 13 15  1  0  0  0  0
 13 16  1  0  0  0  0
 11 12  1  0  0  0  0
 11 13  1  0  0  0  0
 11 17  1  0  0  0  0
  9 10  1  0  0  0  0
  9 11  1  0  0  0  0
  9 24  1  0  0  0  0
  7  8  1  0  0  0  0
  7  9  1  0  0  0  0
 28 29  1  0  0  0  0
 28 30  1  0  0  0  0
 28 31  1  0  0  0  0
 26 27  1  0  0  0  0
 26 28  1  0  0  0  0
M  END
$$$$
default_name
  -OEChem-02102213163D

 31 30  0     1  0  0  0  0  0999 V2000
   -3.0760   -3.6390    1.5496 H   0  0  0  0  0  0  0  0  0  0  0  0
   -3.0940   -2.6290    1.1426 C   0  0  0  0  0  0  0  0  0  0  0  0
   -3.7160   -1.9930    1.7706 H   0  0  0  0  0  0  0  0  0  0  0  0
   -3.4880   -2.6500    0.1286 H   0  0  0  0  0  0  0  0  0  0  0  0
   -1.6860   -2.0850    1.1196 C   0  0  0  0  0  0  0  0  0  0  0  0
   -0.7540   -2.7700    1.5226 O   0  0  0  0  0  0  0  0  0  0  0  0
   -1.5320   -0.8490    0.6496 N   0  0  0  0  0  0  0  0  0  0  0  0
   -2.3500   -0.3360    0.3566 H   0  0  0  0  0  0  0  0  0  0  0  0
   -0.2470   -0.1410    0.5576 C   0  0  1  0  0  0  0  0  0  0  0  0
    0.4239   -0.7541   -0.0450 H   0  0  0  0  0  0  0  0  0  0  0  0
   -0.4317    1.2160   -0.1683 C   0  0  1  0  0  0  0  0  0  0  0  0
   -0.7612    0.9944   -1.1853 H   0  0  0  0  0  0  0  0  0  0  0  0
   -1.5104    2.0951    0.4929 C   0  0  0  0  0  0  0  0  0  0  0  0
   -1.1930    2.4079    1.4893 H   0  0  0  0  0  0  0  0  0  0  0  0
   -1.7019    2.9790   -0.1133 H   0  0  0  0  0  0  0  0  0  0  0  0
   -2.4462    1.5417    0.5795 H   0  0  0  0  0  0  0  0  0  0  0  0
    0.9101    1.9748   -0.2743 C   0  0  0  0  0  0  0  0  0  0  0  0
    0.9033    2.6222   -1.1522 H   0  0  0  0  0  0  0  0  0  0  0  0
    1.0304    2.5997    0.6106 H   0  0  0  0  0  0  0  0  0  0  0  0
    2.1354    1.0541   -0.3543 C   0  0  0  0  0  0  0  0  0  0  0  0
    2.1215    0.4789   -1.2799 H   0  0  0  0  0  0  0  0  0  0  0  0
    3.0418    1.6596   -0.3361 H   0  0  0  0  0  0  0  0  0  0  0  0
    2.1469    0.3734    0.4976 H   0  0  0  0  0  0  0  0  0  0  0  0
    0.3833   -0.0008    1.9525 C   0  0  0  0  0  0  0  0  0  0  0  0
    1.5803   -0.2304    2.1189 O   0  0  0  0  0  0  0  0  0  0  0  0
   -0.4170    0.3858    2.9541 N   0  0  0  0  0  0  0  0  0  0  0  0
   -1.3850    0.5669    2.7398 H   0  0  0  0  0  0  0  0  0  0  0  0
    0.0265    0.5600    4.3358 C   0  0  0  0  0  0  0  0  0  0  0  0
    0.8964    1.2200    4.3632 H   0  0  0  0  0  0  0  0  0  0  0  0
   -0.7726    0.9946    4.9382 H   0  0  0  0  0  0  0  0  0  0  0  0
    0.3119   -0.4069    4.7547 H   0  0  0  0  0  0  0  0  0  0  0  0
  5  6  2  0  0  0  0
  5  7  1  0  0  0  0
  2  3  1  0  0  0  0
  2  4  1  0  0  0  0
  2  5  1  0  0  0  0
  1  2  1  0  0  0  0
 24 25  2  0  0  0  0
 24 26  1  0  0  0  0
 20 21  1  0  0  0  0
 20 22  1  0  0  0  0
 20 23  1  0  0  0  0
 17 18  1  0  0  0  0
 17 19  1  0  0  0  0
 17 20  1  0  0  0  0
 13 14  1  0  0  0  0
 13 15  1  0  0  0  0
 13 16  1  0  0  0  0
 11 12  1  0  0  0  0
 11 13  1  0  0  0  0
 11 17  1  0  0  0  0
  9 10  1  0  0  0  0
  9 11  1  0  0  0  0
  9 24  1  0  0  0  0
  7  8  1  0  0  0  0
  7  9  1  0  0  0  0
 28 29  1  0  0  0  0
 28 30  1  0  0  0  0
 28 31  1  0  0  0  0
 26 27  1  0  0  0  0
 26 28  1  0  0  0  0
M  END
$$$$
default_name
  -OEChem-02102213163D

 31 30  0     1  0  0  0  0  0999 V2000
   -3.0760   -3.6390    1.5496 H   0  0  0  0  0  0  0  0  0  0  0  0
   -3.0940   -2.6290    1.1426 C   0  0  0  0  0  0  0  0  0  0  0  0
   -3.7160   -1.9930    1.7706 H   0  0  0  0  0  0  0  0  0  0  0  0
   -3.4880   -2.6500    0.1286 H   0  0  0  0  0  0  0  0  0  0  0  0
   -1.6860   -2.0850    1.1196 C   0  0  0  0  0  0  0  0  0  0  0  0
   -0.7540   -2.7700    1.5226 O   0  0  0  0  0  0  0  0  0  0  0  0
   -1.5320   -0.8490    0.6496 N   0  0  0  0  0  0  0  0  0  0  0  0
   -2.3500   -0.3360    0.3566 H   0  0  0  0  0  0  0  0  0  0  0  0
   -0.2470   -0.1410    0.5576 C   0  0  1  0  0  0  0  0  0  0  0  0
    0.4239   -0.7541   -0.0450 H   0  0  0  0  0  0  0  0  0  0  0  0
   -0.4317    1.2160   -0.1683 C   0  0  1  0  0  0  0  0  0  0  0  0
   -0.7612    0.9944   -1.1853 H   0  0  0  0  0  0  0  0  0  0  0  0
   -1.5104    2.0951    0.4929 C   0  0  0  0  0  0  0  0  0  0  0  0
   -1.1930    2.4079    1.4893 H   0  0  0  0  0  0  0  0  0  0  0  0
   -1.7019    2.9790   -0.1133 H   0  0  0  0  0  0  0  0  0  0  0  0
   -2.4462    1.5417    0.5795 H   0  0  0  0  0  0  0  0  0  0  0  0
    0.9101    1.9748   -0.2743 C   0  0  0  0  0  0  0  0  0  0  0  0
    0.8144    2.8038   -0.9767 H   0  0  0  0  0  0  0  0  0  0  0  0
    1.1602    2.3833    0.7048 H   0  0  0  0  0  0  0  0  0  0  0  0
    2.0854    1.0921   -0.7157 C   0  0  0  0  0  0  0  0  0  0  0  0
    1.9373    0.7409   -1.7367 H   0  0  0  0  0  0  0  0  0  0  0  0
    3.0061    1.6749   -0.6797 H   0  0  0  0  0  0  0  0  0  0  0  0
    2.1814    0.2365   -0.0463 H   0  0  0  0  0  0  0  0  0  0  0  0
    0.3833   -0.0008    1.9525 C   0  0  0  0  0  0  0  0  0  0  0  0
    1.5803   -0.2304    2.1189 O   0  0  0  0  0  0  0  0  0  0  0  0
   -0.4170    0.3858    2.9541 N   0  0  0  0  0  0  0  0  0  0  0  0
   -1.3850    0.5669    2.7398 H   0  0  0  0  0  0  0  0  0  0  0  0
    0.0265    0.5600    4.3358 C   0  0  0  0  0  0  0  0  0  0  0  0
    0.8964    1.2200    4.3632 H   0  0  0  0  0  0  0  0  0  0  0  0
   -0.7726    0.9946    4.9382 H   0  0  0  0  0  0  0  0  0  0  0  0
    0.3119   -0.4069    4.7547 H   0  0  0  0  0  0  0  0  0  0  0  0
  5  6  2  0  0  0  0
  5  7  1  0  0  0  0
  2  3  1  0  0  0  0
  2  4  1  0  0  0  0
  2  5  1  0  0  0  0
  1  2  1  0  0  0  0
 24 25  2  0  0  0  0
 24 26  1  0  0  0  0
 20 21  1  0  0  0  0
 20 22  1  0  0  0  0
 20 23  1  0  0  0  0
 17 18  1  0  0  0  0
 17 19  1  0  0  0  0
 17 20  1  0  0  0  0
 13 14  1  0  0  0  0
 13 15  1  0  0  0  0
 13 16  1  0  0  0  0
 11 12  1  0  0  0  0
 11 13  1  0  0  0  0
 11 17  1  0  0  0  0
  9 10  1  0  0  0  0
  9 11  1  0  0  0  0
  9 24  1  0  0  0  0
  7  8  1  0  0  0  0
  7  9  1  0  0  0  0
 28 29  1  0  0  0  0
 28 30  1  0  0  0  0
 28 31  1  0  0  0  0
 26 27  1  0  0  0  0
 26 28  1  0  0  0  0
M  END
$$$$
default_name
  -OEChem-02102213163D

 31 30  0     1  0  0  0  0  0999 V2000
   -3.0760   -3.6390    1.5496 H   0  0  0  0  0  0  0  0  0  0  0  0
   -3.0940   -2.6290    1.1426 C   0  0  0  0  0  0  0  0  0  0  0  0
   -3.7160   -1.9930    1.7706 H   0  0  0  0  0  0  0  0  0  0  0  0
   -3.4880   -2.6500    0.1286 H   0  0  0  0  0  0  0  0  0  0  0  0
   -1.6860   -2.0850    1.1196 C   0  0  0  0  0  0  0  0  0  0  0  0
   -0.7540   -2.7700    1.5226 O   0  0  0  0  0  0  0  0  0  0  0  0
   -1.5320   -0.8490    0.6496 N   0  0  0  0  0  0  0  0  0  0  0  0
   -2.3500   -0.3360    0.3566 H   0  0  0  0  0  0  0  0  0  0  0  0
   -0.2470   -0.1410    0.5576 C   0  0  1  0  0  0  0  0  0  0  0  0
    0.4239   -0.7541   -0.0450 H   0  0  0  0  0  0  0  0  0  0  0  0
   -0.4317    1.2160   -0.1683 C   0  0  1  0  0  0  0  0  0  0  0  0
   -0.7612    0.9944   -1.1853 H   0  0  0  0  0  0  0  0  0  0  0  0
   -1.5104    2.0951    0.4929 C   0  0  0  0  0  0  0  0  0  0  0  0
   -1.1930    2.4079    1.4893 H   0  0  0  0  0  0  0  0  0  0  0  0
   -1.7019    2.9790   -0.1133 H   0  0  0  0  0  0  0  0  0  0  0  0
   -2.4462    1.5417    0.5795 H   0  0  0  0  0  0  0  0  0  0  0  0
    0.9101    1.9748   -0.2743 C   0  0  0  0  0  0  0  0  0  0  0  0
    0.7541    2.9414   -0.7552 H   0  0  0  0  0  0  0  0  0  0  0  0
    1.2938    2.1507    0.7307 H   0  0  0  0  0  0  0  0  0  0  0  0
    1.9918    1.2108   -1.0499 C   0  0  0  0  0  0  0  0  0  0  0  0
    1.7059    1.0998   -2.0957 H   0  0  0  0  0  0  0  0  0  0  0  0
    2.9281    1.7675   -1.0037 H   0  0  0  0  0  0  0  0  0  0  0  0
    2.1431    0.2258   -0.6069 H   0  0  0  0  0  0  0  0  0  0  0  0
    0.3833   -0.0008    1.9525 C   0  0  0  0  0  0  0  0  0  0  0  0
    1.5803   -0.2304    2.1189 O   0  0  0  0  0  0  0  0  0  0  0  0
   -0.4170    0.3858    2.9541 N   0  0  0  0  0  0  0  0  0  0  0  0
   -1.3850    0.5669    2.7398 H   0  0  0  0  0  0  0  0  0  0  0  0
    0.0265    0.5600    4.3358 C   0  0  0  0  0  0  0  0  0  0  0  0
    0.8964    1.2200    4.3632 H   0  0  0  0  0  0  0  0  0  0  0  0
   -0.7726    0.9946    4.9382 H   0  0  0  0  0  0  0  0  0  0  0  0
    0.3119   -0.4069    4.7547 H   0  0  0  0  0  0  0  0  0  0  0  0
  5  6  2  0  0  0  0
  5  7  1  0  0  0  0
  2  3  1  0  0  0  0
  2  4  1  0  0  0  0
  2  5  1  0  0  0  0
  1  2  1  0  0  0  0
 24 25  2  0  0  0  0
 24 26  1  0  0  0  0
 20 21  1  0  0  0  0
 20 22  1  0  0  0  0
 20 23  1  0  0  0  0
 17 18  1  0  0  0  0
 17 19  1  0  0  0  0
 17 20  1  0  0  0  0
 13 14  1  0  0  0  0
 13 15  1  0  0  0  0
 13 16  1  0  0  0  0
 11 12  1  0  0  0  0
 11 13  1  0  0  0  0
 11 17  1  0  0  0  0
  9 10  1  0  0  0  0
  9 11  1  0  0  0  0
  9 24  1  0  0  0  0
  7  8  1  0  0  0  0
  7  9  1  0  0  0  0
 28 29  1  0  0  0  0
 28 30  1  0  0  0  0
 28 31  1  0  0  0  0
 26 27  1  0  0  0  0
 26 28  1  0  0  0  0
M  END
$$$$
default_name
  -OEChem-02102213163D

 31 30  0     1  0  0  0  0  0999 V2000
   -3.0760   -3.6390    1.5496 H   0  0  0  0  0  0  0  0  0  0  0  0
   -3.0940   -2.6290    1.1426 C   0  0  0  0  0  0  0  0  0  0  0  0
   -3.7160   -1.9930    1.7706 H   0  0  0  0  0  0  0  0  0  0  0  0
   -3.4880   -2.6500    0.1286 H   0  0  0  0  0  0  0  0  0  0  0  0
   -1.6860   -2.0850    1.1196 C   0  0  0  0  0  0  0  0  0  0  0  0
   -0.7540   -2.7700    1.5226 O   0  0  0  0  0  0  0  0  0  0  0  0
   -1.5320   -0.8490    0.6496 N   0  0  0  0  0  0  0  0  0  0  0  0
   -2.3500   -0.3360    0.3566 H   0  0  0  0  0  0  0  0  0  0  0  0
   -0.2470   -0.1410    0.5576 C   0  0  1  0  0  0  0  0  0  0  0  0
    0.4239   -0.7541   -0.0450 H   0  0  0  0  0  0  0  0  0  0  0  0
   -0.4317    1.2160   -0.1683 C   0  0  1  0  0  0  0  0  0  0  0  0
   -0.7612    0.9944   -1.1853 H   0  0  0  0  0  0  0  0  0  0  0  0
   -1.5104    2.0951    0.4929 C   0  0  0  0  0  0  0  0  0  0  0  0
   -1.1930    2.4079    1.4893 H   0  0  0  0  0  0  0  0  0  0  0  0
   -1.7019    2.9790   -0.1133 H   0  0  0  0  0  0  0  0  0  0  0  0
   -2.4462    1.5417    0.5795 H   0  0  0  0  0  0  0  0  0  0  0  0
    0.9101    1.9748   -0.2743 C   0  0  0  0  0  0  0  0  0  0  0  0
    0.7265    3.0255   -0.5026 H   0  0  0  0  0  0  0  0  0  0  0  0
    1.4219    1.9179    0.6864 H   0  0  0  0  0  0  0  0  0  0  0  0
    1.8611    1.4023   -1.3341 C   0  0  0  0  0  0  0  0  0  0  0  0
    1.4432    1.5314   -2.3323 H   0  0  0  0  0  0  0  0  0  0  0  0
    2.8133    1.9311   -1.2859 H   0  0  0  0  0  0  0  0  0  0  0  0
    2.0347    0.3422   -1.1459 H   0  0  0  0  0  0  0  0  0  0  0  0
    0.3833   -0.0008    1.9525 C   0  0  0  0  0  0  0  0  0  0  0  0
    1.5803   -0.2304    2.1189 O   0  0  0  0  0  0  0  0  0  0  0  0
   -0.4170    0.3858    2.9541 N   0  0  0  0  0  0  0  0  0  0  0  0
   -1.3850    0.5669    2.7398 H   0  0  0  0  0  0  0  0  0  0  0  0
    0.0265    0.5600    4.3358 C   0  0  0  0  0  0  0  0  0  0  0  0
    0.8964    1.2200    4.3632 H   0  0  0  0  0  0  0  0  0  0  0  0
   -0.7726    0.9946    4.9382 H   0  0  0  0  0  0  0  0  0  0  0  0
    0.3119   -0.4069    4.7547 H   0  0  0  0  0  0  0  0  0  0  0  0
  5  6  2  0  0  0  0
  5  7  1  0  0  0  0
  2  3  1  0  0  0  0
  2  4  1  0  0  0  0
  2  5  1  0  0  0  0
  1  2  1  0  0  0  0
 24 25  2  0  0  0  0
 24 26  1  0  0  0  0
 20 21  1  0  0  0  0
 20 22  1  0  0  0  0
 20 23  1  0  0  0  0
 17 18  1  0  0  0  0
 17 19  1  0  0  0  0
 17 20  1  0  0  0  0
 13 14  1  0  0  0  0
 13 15  1  0  0  0  0
 13 16  1  0  0  0  0
 11 12  1  0  0  0  0
 11 13  1  0  0  0  0
 11 17  1  0  0  0  0
  9 10  1  0  0  0  0
  9 11  1  0  0  0  0
  9 24  1  0  0  0  0
  7  8  1  0  0  0  0
  7  9  1  0  0  0  0
 28 29  1  0  0  0  0
 28 30  1  0  0  0  0
 28 31  1  0  0  0  0
 26 27  1  0  0  0  0
 26 28  1  0  0  0  0
M  END
$$$$
default_name
  -OEChem-02102213163D

 31 30  0     1  0  0  0  0  0999 V2000
   -3.0760   -3.6390    1.5496 H   0  0  0  0  0  0  0  0  0  0  0  0
   -3.0940   -2.6290    1.1426 C   0  0  0  0  0  0  0  0  0  0  0  0
   -3.7160   -1.9930    1.7706 H   0  0  0  0  0  0  0  0  0  0  0  0
   -3.4880   -2.6500    0.1286 H   0  0  0  0  0  0  0  0  0  0  0  0
   -1.6860   -2.0850    1.1196 C   0  0  0  0  0  0  0  0  0  0  0  0
   -0.7540   -2.7700    1.5226 O   0  0  0  0  0  0  0  0  0  0  0  0
   -1.5320   -0.8490    0.6496 N   0  0  0  0  0  0  0  0  0  0  0  0
   -2.3500   -0.3360    0.3566 H   0  0  0  0  0  0  0  0  0  0  0  0
   -0.2470   -0.1410    0.5576 C   0  0  1  0  0  0  0  0  0  0  0  0
    0.4239   -0.7541   -0.0450 H   0  0  0  0  0  0  0  0  0  0  0  0
   -0.4317    1.2160   -0.1683 C   0  0  1  0  0  0  0  0  0  0  0  0
   -0.7612    0.9944   -1.1853 H   0  0  0  0  0  0  0  0  0  0  0  0
   -1.5104    2.0951    0.4929 C   0  0  0  0  0  0  0  0  0  0  0  0
   -1.1930    2.4079    1.4893 H   0  0  0  0  0  0  0  0  0  0  0  0
   -1.7019    2.9790   -0.1133 H   0  0  0  0  0  0  0  0  0  0  0  0
   -2.4462    1.5417    0.5795 H   0  0  0  0  0  0  0  0  0  0  0  0
    0.9101    1.9748   -0.2743 C   0  0  0  0  0  0  0  0  0  0  0  0
    0.7334    3.0505   -0.2362 H   0  0  0  0  0  0  0  0  0  0  0  0
    1.5360    1.7007    0.5750 H   0  0  0  0  0  0  0  0  0  0  0  0
    1.7021    1.6535   -1.5490 C   0  0  0  0  0  0  0  0  0  0  0  0
    1.1670    2.0061   -2.4305 H   0  0  0  0  0  0  0  0  0  0  0  0
    2.6694    2.1547   -1.5071 H   0  0  0  0  0  0  0  0  0  0  0  0
    1.8636    0.5778   -1.6266 H   0  0  0  0  0  0  0  0  0  0  0  0
    0.3833   -0.0008    1.9525 C   0  0  0  0  0  0  0  0  0  0  0  0
    1.5803   -0.2304    2.1189 O   0  0  0  0  0  0  0  0  0  0  0  0
   -0.4170    0.3858    2.9541 N   0  0  0  0  0  0  0  0  0  0  0  0
   -1.3850    0.5669    2.7398 H   0  0  0  0  0  0  0  0  0  0  0  0
    0.0265    0.5600    4.3358 C   0  0  0  0  0  0  0  0  0  0  0  0
    0.8964    1.2200    4.3632 H   0  0  0  0  0  0  0  0  0  0  0  0
   -0.7726    0.9946    4.9382 H   0  0  0  0  0  0  0  0  0  0  0  0
    0.3119   -0.4069    4.7547 H   0  0  0  0  0  0  0  0  0  0  0  0
  5  6  2  0  0  0  0
  5  7  1  0  0  0  0
  2  3  1  0  0  0  0
  2  4  1  0  0  0  0
  2  5  1  0  0  0  0
  1  2  1  0  0  0  0
 24 25  2  0  0  0  0
 24 26  1  0  0  0  0
 20 21  1  0  0  0  0
 20 22  1  0  0  0  0
 20 23  1  0  0  0  0
 17 18  1  0  0  0  0
 17 19  1  0  0  0  0
 17 20  1  0  0  0  0
 13 14  1  0  0  0  0
 13 15  1  0  0  0  0
 13 16  1  0  0  0  0
 11 12  1  0  0  0  0
 11 13  1  0  0  0  0
 11 17  1  0  0  0  0
  9 10  1  0  0  0  0
  9 11  1  0  0  0  0
  9 24  1  0  0  0  0
  7  8  1  0  0  0  0
  7  9  1  0  0  0  0
 28 29  1  0  0  0  0
 28 30  1  0  0  0  0
 28 31  1  0  0  0  0
 26 27  1  0  0  0  0
 26 28  1  0  0  0  0
M  END
$$$$
default_name
  -OEChem-02102213163D

 31 30  0     1  0  0  0  0  0999 V2000
   -3.0760   -3.6390    1.5496 H   0  0  0  0  0  0  0  0  0  0  0  0
   -3.0940   -2.6290    1.1426 C   0  0  0  0  0  0  0  0  0  0  0  0
   -3.7160   -1.9930    1.7706 H   0  0  0  0  0  0  0  0  0  0  0  0
   -3.4880   -2.6500    0.1286 H   0  0  0  0  0  0  0  0  0  0  0  0
   -1.6860   -2.0850    1.1196 C   0  0  0  0  0  0  0  0  0  0  0  0
   -0.7540   -2.7700    1.5226 O   0  0  0  0  0  0  0  0  0  0  0  0
   -1.5320   -0.8490    0.6496 N   0  0  0  0  0  0  0  0  0  0  0  0
   -2.3500   -0.3360    0.3566 H   0  0  0  0  0  0  0  0  0  0  0  0
   -0.2470   -0.1410    0.5576 C   0  0  1  0  0  0  0  0  0  0  0  0
    0.4239   -0.7541   -0.0450 H   0  0  0  0  0  0  0  0  0  0  0  0
   -0.4317    1.2160   -0.1683 C   0  0  1  0  0  0  0  0  0  0  0  0
   -0.7612    0.9944   -1.1853 H   0  0  0  0  0  0  0  0  0  0  0  0
   -1.5104    2.0951    0.4929 C   0  0  0  0  0  0  0  0  0  0  0  0
   -1.1930    2.4079    1.4893 H   0  0  0  0  0  0  0  0  0  0  0  0
   -1.7019    2.9790   -0.1133 H   0  0  0  0  0  0  0  0  0  0  0  0
   -2.4462    1.5417    0.5795 H   0  0  0  0  0  0  0  0  0  0  0  0
    0.9101    1.9748   -0.2743 C   0  0  0  0  0  0  0  0  0  0  0  0
    0.7743    3.0147    0.0259 H   0  0  0  0  0  0  0  0  0  0  0  0
    1.6281    1.5140    0.4041 H   0  0  0  0  0  0  0  0  0  0  0  0
    1.5257    1.9472   -1.6799 C   0  0  0  0  0  0  0  0  0  0  0  0
    0.8962    2.4915   -2.3836 H   0  0  0  0  0  0  0  0  0  0  0  0
    2.5063    2.4229   -1.6523 H   0  0  0  0  0  0  0  0  0  0  0  0
    1.6413    0.9163   -2.0163 H   0  0  0  0  0  0  0  0  0  0  0  0
    0.3833   -0.0008    1.9525 C   0  0  0  0  0  0  0  0  0  0  0  0
    1.5803   -0.2304    2.1189 O   0  0  0  0  0  0  0  0  0  0  0  0
   -0.4170    0.3858    2.9541 N   0  0  0  0  0  0  0  0  0  0  0  0
   -1.3850    0.5669    2.7398 H   0  0  0  0  0  0  0  0  0  0  0  0
    0.0265    0.5600    4.3358 C   0  0  0  0  0  0  0  0  0  0  0  0
    0.8964    1.2200    4.3632 H   0  0  0  0  0  0  0  0  0  0  0  0
   -0.7726    0.9946    4.9382 H   0  0  0  0  0  0  0  0  0  0  0  0
    0.3119   -0.4069    4.7547 H   0  0  0  0  0  0  0  0  0  0  0  0
  5  6  2  0  0  0  0
  5  7  1  0  0  0  0
  2  3  1  0  0  0  0
  2  4  1  0  0  0  0
  2  5  1  0  0  0  0
  1  2  1  0  0  0  0
 24 25  2  0  0  0  0
 24 26  1  0  0  0  0
 20 21  1  0  0  0  0
 20 22  1  0  0  0  0
 20 23  1  0  0  0  0
 17 18  1  0  0  0  0
 17 19  1  0  0  0  0
 17 20  1  0  0  0  0
 13 14  1  0  0  0  0
 13 15  1  0  0  0  0
 13 16  1  0  0  0  0
 11 12  1  0  0  0  0
 11 13  1  0  0  0  0
 11 17  1  0  0  0  0
  9 10  1  0  0  0  0
  9 11  1  0  0  0  0
  9 24  1  0  0  0  0
  7  8  1  0  0  0  0
  7  9  1  0  0  0  0
 28 29  1  0  0  0  0
 28 30  1  0  0  0  0
 28 31  1  0  0  0  0
 26 27  1  0  0  0  0
 26 28  1  0  0  0  0
M  END
$$$$
default_name
  -OEChem-02102213163D

 31 30  0     1  0  0  0  0  0999 V2000
   -3.0760   -3.6390    1.5496 H   0  0  0  0  0  0  0  0  0  0  0  0
   -3.0940   -2.6290    1.1426 C   0  0  0  0  0  0  0  0  0  0  0  0
   -3.7160   -1.9930    1.7706 H   0  0  0  0  0  0  0  0  0  0  0  0
   -3.4880   -2.6500    0.1286 H   0  0  0  0  0  0  0  0  0  0  0  0
   -1.6860   -2.0850    1.1196 C   0  0  0  0  0  0  0  0  0  0  0  0
   -0.7540   -2.7700    1.5226 O   0  0  0  0  0  0  0  0  0  0  0  0
   -1.5320   -0.8490    0.6496 N   0  0  0  0  0  0  0  0  0  0  0  0
   -2.3500   -0.3360    0.3566 H   0  0  0  0  0  0  0  0  0  0  0  0
   -0.2470   -0.1410    0.5576 C   0  0  1  0  0  0  0  0  0  0  0  0
    0.4239   -0.7541   -0.0450 H   0  0  0  0  0  0  0  0  0  0  0  0
   -0.4317    1.2160   -0.1683 C   0  0  1  0  0  0  0  0  0  0  0  0
   -0.7612    0.9944   -1.1853 H   0  0  0  0  0  0  0  0  0  0  0  0
   -1.5104    2.0951    0.4929 C   0  0  0  0  0  0  0  0  0  0  0  0
   -1.1930    2.4079    1.4893 H   0  0  0  0  0  0  0  0  0  0  0  0
   -1.7019    2.9790   -0.1133 H   0  0  0  0  0  0  0  0  0  0  0  0
   -2.4462    1.5417    0.5795 H   0  0  0  0  0  0  0  0  0  0  0  0
    0.9101    1.9748   -0.2743 C   0  0  0  0  0  0  0  0  0  0  0  0
    0.8466    2.9204    0.2658 H   0  0  0  0  0  0  0  0  0  0  0  0
    1.6921    1.3703    0.1853 H   0  0  0  0  0  0  0  0  0  0  0  0
    1.3438    2.2635   -1.7178 C   0  0  0  0  0  0  0  0  0  0  0  0
    0.6491    2.9547   -2.1947 H   0  0  0  0  0  0  0  0  0  0  0  0
    2.3350    2.7174   -1.7115 H   0  0  0  0  0  0  0  0  0  0  0  0
    1.3832    1.3349   -2.2883 H   0  0  0  0  0  0  0  0  0  0  0  0
    0.3833   -0.0008    1.9525 C   0  0  0  0  0  0  0  0  0  0  0  0
    1.5803   -0.2304    2.1189 O   0  0  0  0  0  0  0  0  0  0  0  0
   -0.4170    0.3858    2.9541 N   0  0  0  0  0  0  0  0  0  0  0  0
   -1.3850    0.5669    2.7398 H   0  0  0  0  0  0  0  0  0  0  0  0
    0.0265    0.5600    4.3358 C   0  0  0  0  0  0  0  0  0  0  0  0
    0.8964    1.2200    4.3632 H   0  0  0  0  0  0  0  0  0  0  0  0
   -0.7726    0.9946    4.9382 H   0  0  0  0  0  0  0  0  0  0  0  0
    0.3119   -0.4069    4.7547 H   0  0  0  0  0  0  0  0  0  0  0  0
  5  6  2  0  0  0  0
  5  7  1  0  0  0  0
  2  3  1  0  0  0  0
  2  4  1  0  0  0  0
  2  5  1  0  0  0  0
  1  2  1  0  0  0  0
 24 25  2  0  0  0  0
 24 26  1  0  0  0  0
 20 21  1  0  0  0  0
 20 22  1  0  0  0  0
 20 23  1  0  0  0  0
 17 18  1  0  0  0  0
 17 19  1  0  0  0  0
 17 20  1  0  0  0  0
 13 14  1  0  0  0  0
 13 15  1  0  0  0  0
 13 16  1  0  0  0  0
 11 12  1  0  0  0  0
 11 13  1  0  0  0  0
 11 17  1  0  0  0  0
  9 10  1  0  0  0  0
  9 11  1  0  0  0  0
  9 24  1  0  0  0  0
  7  8  1  0  0  0  0
  7  9  1  0  0  0  0
 28 29  1  0  0  0  0
 28 30  1  0  0  0  0
 28 31  1  0  0  0  0
 26 27  1  0  0  0  0
 26 28  1  0  0  0  0
M  END
$$$$
default_name
  -OEChem-02102213163D

 31 30  0     1  0  0  0  0  0999 V2000
   -3.0760   -3.6390    1.5496 H   0  0  0  0  0  0  0  0  0  0  0  0
   -3.0940   -2.6290    1.1426 C   0  0  0  0  0  0  0  0  0  0  0  0
   -3.7160   -1.9930    1.7706 H   0  0  0  0  0  0  0  0  0  0  0  0
   -3.4880   -2.6500    0.1286 H   0  0  0  0  0  0  0  0  0  0  0  0
   -1.6860   -2.0850    1.1196 C   0  0  0  0  0  0  0  0  0  0  0  0
   -0.7540   -2.7700    1.5226 O   0  0  0  0  0  0  0  0  0  0  0  0
   -1.5320   -0.8490    0.6496 N   0  0  0  0  0  0  0  0  0  0  0  0
   -2.3500   -0.3360    0.3566 H   0  0  0  0  0  0  0  0  0  0  0  0
   -0.2470   -0.1410    0.5576 C   0  0  1  0  0  0  0  0  0  0  0  0
    0.4239   -0.7541   -0.0450 H   0  0  0  0  0  0  0  0  0  0  0  0
   -0.4317    1.2160   -0.1683 C   0  0  1  0  0  0  0  0  0  0  0  0
   -0.7612    0.9944   -1.1853 H   0  0  0  0  0  0  0  0  0  0  0  0
   -1.5104    2.0951    0.4929 C   0  0  0  0  0  0  0  0  0  0  0  0
   -1.1930    2.4079    1.4893 H   0  0  0  0  0  0  0  0  0  0  0  0
   -1.7019    2.9790   -0.1133 H   0  0  0  0  0  0  0  0  0  0  0  0
   -2.4462    1.5417    0.5795 H   0  0  0  0  0  0  0  0  0  0  0  0
    0.9101    1.9748   -0.2743 C   0  0  0  0  0  0  0  0  0  0  0  0
    0.9452    2.7741    0.4671 H   0  0  0  0  0  0  0  0  0  0  0  0
    1.7235    1.2796   -0.0664 H   0  0  0  0  0  0  0  0  0  0  0  0
    1.1689    2.5807   -1.6603 C   0  0  0  0  0  0  0  0  0  0  0  0
    0.4428    3.3641   -1.8767 H   0  0  0  0  0  0  0  0  0  0  0  0
    2.1673    3.0183   -1.6807 H   0  0  0  0  0  0  0  0  0  0  0  0
    1.1066    1.8049   -2.4242 H   0  0  0  0  0  0  0  0  0  0  0  0
    0.3833   -0.0008    1.9525 C   0  0  0  0  0  0  0  0  0  0  0  0
    1.5803   -0.2304    2.1189 O   0  0  0  0  0  0  0  0  0  0  0  0
   -0.4170    0.3858    2.9541 N   0  0  0  0  0  0  0  0  0  0  0  0
   -1.3850    0.5669    2.7398 H   0  0  0  0  0  0  0  0  0  0  0  0
    0.0265    0.5600    4.3358 C   0  0  0  0  0  0  0  0  0  0  0  0
    0.8964    1.2200    4.3632 H   0  0  0  0  0  0  0  0  0  0  0  0
   -0.7726    0.9946    4.9382 H   0  0  0  0  0  0  0  0  0  0  0  0
    0.3119   -0.4069    4.7547 H   0  0  0  0  0  0  0  0  0  0  0  0
  5  6  2  0  0  0  0
  5  7  1  0  0  0  0
  2  3  1  0  0  0  0
  2  4  1  0  0  0  0
  2  5  1  0  0  0  0
  1  2  1  0  0  0  0
 24 25  2  0  0  0  0
 24 26  1  0  0  0  0
 20 21  1  0  0  0  0
 20 22  1  0  0  0  0
 20 23  1  0  0  0  0
 17 18  1  0  0  0  0
 17 19  1  0  0  0  0
 17 20  1  0  0  0  0
 13 14  1  0  0  0  0
 13 15  1  0  0  0  0
 13 16  1  0  0  0  0
 11 12  1  0  0  0  0
 11 13  1  0  0  0  0
 11 17  1  0  0  0  0
  9 10  1  0  0  0  0
  9 11  1  0  0  0  0
  9 24  1  0  0  0  0
  7  8  1  0  0  0  0
  7  9  1  0  0  0  0
 28 29  1  0  0  0  0
 28 30  1  0  0  0  0
 28 31  1  0  0  0  0
 26 27  1  0  0  0  0
 26 28  1  0  0  0  0
M  END
$$$$
default_name
  -OEChem-02102213163D

 31 30  0     1  0  0  0  0  0999 V2000
   -3.0760   -3.6390    1.5496 H   0  0  0  0  0  0  0  0  0  0  0  0
   -3.0940   -2.6290    1.1426 C   0  0  0  0  0  0  0  0  0  0  0  0
   -3.7160   -1.9930    1.7706 H   0  0  0  0  0  0  0  0  0  0  0  0
   -3.4880   -2.6500    0.1286 H   0  0  0  0  0  0  0  0  0  0  0  0
   -1.6860   -2.0850    1.1196 C   0  0  0  0  0  0  0  0  0  0  0  0
   -0.7540   -2.7700    1.5226 O   0  0  0  0  0  0  0  0  0  0  0  0
   -1.5320   -0.8490    0.6496 N   0  0  0  0  0  0  0  0  0  0  0  0
   -2.3500   -0.3360    0.3566 H   0  0  0  0  0  0  0  0  0  0  0  0
   -0.2470   -0.1410    0.5576 C   0  0  1  0  0  0  0  0  0  0  0  0
    0.4239   -0.7541   -0.0450 H   0  0  0  0  0  0  0  0  0  0  0  0
   -0.4317    1.2160   -0.1683 C   0  0  1  0  0  0  0  0  0  0  0  0
   -0.7612    0.9944   -1.1853 H   0  0  0  0  0  0  0  0  0  0  0  0
   -1.5104    2.0951    0.4929 C   0  0  0  0  0  0  0  0  0  0  0  0
   -1.1930    2.4079    1.4893 H   0  0  0  0  0  0  0  0  0  0  0  0
   -1.7019    2.9790   -0.1133 H   0  0  0  0  0  0  0  0  0  0  0  0
   -2.4462    1.5417    0.5795 H   0  0  0  0  0  0  0  0  0  0  0  0
    0.9101    1.9748   -0.2743 C   0  0  0  0  0  0  0  0  0  0  0  0
    1.0634    2.5859    0.6162 H   0  0  0  0  0  0  0  0  0  0  0  0
    1.7202    1.2480   -0.3339 H   0  0  0  0  0  0  0  0  0  0  0  0
    1.0130    2.8773   -1.5113 C   0  0  0  0  0  0  0  0  0  0  0  0
    0.2911    3.6917   -1.4514 H   0  0  0  0  0  0  0  0  0  0  0  0
    2.0145    3.3050   -1.5620 H   0  0  0  0  0  0  0  0  0  0  0  0
    0.8306    2.2943   -2.4147 H   0  0  0  0  0  0  0  0  0  0  0  0
    0.3833   -0.0008    1.9525 C   0  0  0  0  0  0  0  0  0  0  0  0
    1.5803   -0.2304    2.1189 O   0  0  0  0  0  0  0  0  0  0  0  0
   -0.4170    0.3858    2.9541 N   0  0  0  0  0  0  0  0  0  0  0  0
   -1.3850    0.5669    2.7398 H   0  0  0  0  0  0  0  0  0  0  0  0
    0.0265    0.5600    4.3358 C   0  0  0  0  0  0  0  0  0  0  0  0
    0.8964    1.2200    4.3632 H   0  0  0  0  0  0  0  0  0  0  0  0
   -0.7726    0.9946    4.9382 H   0  0  0  0  0  0  0  0  0  0  0  0
    0.3119   -0.4069    4.7547 H   0  0  0  0  0  0  0  0  0  0  0  0
  5  6  2  0  0  0  0
  5  7  1  0  0  0  0
  2  3  1  0  0  0  0
  2  4  1  0  0  0  0
  2  5  1  0  0  0  0
  1  2  1  0  0  0  0
 24 25  2  0  0  0  0
 24 26  1  0  0  0  0
 20 21  1  0  0  0  0
 20 22  1  0  0  0  0
 20 23  1  0  0  0  0
 17 18  1  0  0  0  0
 17 19  1  0  0  0  0
 17 20  1  0  0  0  0
 13 14  1  0  0  0  0
 13 15  1  0  0  0  0
 13 16  1  0  0  0  0
 11 12  1  0  0  0  0
 11 13  1  0  0  0  0
 11 17  1  0  0  0  0
  9 10  1  0  0  0  0
  9 11  1  0  0  0  0
  9 24  1  0  0  0  0
  7  8  1  0  0  0  0
  7  9  1  0  0  0  0
 28 29  1  0  0  0  0
 28 30  1  0  0  0  0
 28 31  1  0  0  0  0
 26 27  1  0  0  0  0
 26 28  1  0  0  0  0
M  END
$$$$
default_name
  -OEChem-02102213163D

 31 30  0     1  0  0  0  0  0999 V2000
   -3.0760   -3.6390    1.5496 H   0  0  0  0  0  0  0  0  0  0  0  0
   -3.0940   -2.6290    1.1426 C   0  0  0  0  0  0  0  0  0  0  0  0
   -3.7160   -1.9930    1.7706 H   0  0  0  0  0  0  0  0  0  0  0  0
   -3.4880   -2.6500    0.1286 H   0  0  0  0  0  0  0  0  0  0  0  0
   -1.6860   -2.0850    1.1196 C   0  0  0  0  0  0  0  0  0  0  0  0
   -0.7540   -2.7700    1.5226 O   0  0  0  0  0  0  0  0  0  0  0  0
   -1.5320   -0.8490    0.6496 N   0  0  0  0  0  0  0  0  0  0  0  0
   -2.3500   -0.3360    0.3566 H   0  0  0  0  0  0  0  0  0  0  0  0
   -0.2470   -0.1410    0.5576 C   0  0  1  0  0  0  0  0  0  0  0  0
    0.4239   -0.7541   -0.0450 H   0  0  0  0  0  0  0  0  0  0  0  0
   -0.4317    1.2160   -0.1683 C   0  0  1  0  0  0  0  0  0  0  0  0
   -0.7612    0.9944   -1.1853 H   0  0  0  0  0  0  0  0  0  0  0  0
   -1.5104    2.0951    0.4929 C   0  0  0  0  0  0  0  0  0  0  0  0
   -1.1930    2.4079    1.4893 H   0  0  0  0  0  0  0  0  0  0  0  0
   -1.7019    2.9790   -0.1133 H   0  0  0  0  0  0  0  0  0  0  0  0
   -2.4462    1.5417    0.5795 H   0  0  0  0  0  0  0  0  0  0  0  0
    0.9101    1.9748   -0.2743 C   0  0  0  0  0  0  0  0  0  0  0  0
    1.1933    2.3684    0.7029 H   0  0  0  0  0  0  0  0  0  0  0  0
    1.6825    1.2777   -0.5990 H   0  0  0  0  0  0  0  0  0  0  0  0
    0.8865    3.1331   -1.2808 C   0  0  0  0  0  0  0  0  0  0  0  0
    0.2045    3.9152   -0.9476 H   0  0  0  0  0  0  0  0  0  0  0  0
    1.8872    3.5580   -1.3634 H   0  0  0  0  0  0  0  0  0  0  0  0
    0.5739    2.7698   -2.2603 H   0  0  0  0  0  0  0  0  0  0  0  0
    0.3833   -0.0008    1.9525 C   0  0  0  0  0  0  0  0  0  0  0  0
    1.5803   -0.2304    2.1189 O   0  0  0  0  0  0  0  0  0  0  0  0
   -0.4170    0.3858    2.9541 N   0  0  0  0  0  0  0  0  0  0  0  0
   -1.3850    0.5669    2.7398 H   0  0  0  0  0  0  0  0  0  0  0  0
    0.0265    0.5600    4.3358 C   0  0  0  0  0  0  0  0  0  0  0  0
    0.8964    1.2200    4.3632 H   0  0  0  0  0  0  0  0  0  0  0  0
   -0.7726    0.9946    4.9382 H   0  0  0  0  0  0  0  0  0  0  0  0
    0.3119   -0.4069    4.7547 H   0  0  0  0  0  0  0  0  0  0  0  0
  5  6  2  0  0  0  0
  5  7  1  0  0  0  0
  2  3  1  0  0  0  0
  2  4  1  0  0  0  0
  2  5  1  0  0  0  0
  1  2  1  0  0  0  0
 24 25  2  0  0  0  0
 24 26  1  0  0  0  0
 20 21  1  0  0  0  0
 20 22  1  0  0  0  0
 20 23  1  0  0  0  0
 17 18  1  0  0  0  0
 17 19  1  0  0  0  0
 17 20  1  0  0  0  0
 13 14  1  0  0  0  0
 13 15  1  0  0  0  0
 13 16  1  0  0  0  0
 11 12  1  0  0  0  0
 11 13  1  0  0  0  0
 11 17  1  0  0  0  0
  9 10  1  0  0  0  0
  9 11  1  0  0  0  0
  9 24  1  0  0  0  0
  7  8  1  0  0  0  0
  7  9  1  0  0  0  0
 28 29  1  0  0  0  0
 28 30  1  0  0  0  0
 28 31  1  0  0  0  0
 26 27  1  0  0  0  0
 26 28  1  0  0  0  0
M  END
$$$$
default_name
  -OEChem-02102213163D

 31 30  0     1  0  0  0  0  0999 V2000
   -3.0760   -3.6390    1.5496 H   0  0  0  0  0  0  0  0  0  0  0  0
   -3.0940   -2.6290    1.1426 C   0  0  0  0  0  0  0  0  0  0  0  0
   -3.7160   -1.9930    1.7706 H   0  0  0  0  0  0  0  0  0  0  0  0
   -3.4880   -2.6500    0.1286 H   0  0  0  0  0  0  0  0  0  0  0  0
   -1.6860   -2.0850    1.1196 C   0  0  0  0  0  0  0  0  0  0  0  0
   -0.7540   -2.7700    1.5226 O   0  0  0  0  0  0  0  0  0  0  0  0
   -1.5320   -0.8490    0.6496 N   0  0  0  0  0  0  0  0  0  0  0  0
   -2.3500   -0.3360    0.3566 H   0  0  0  0  0  0  0  0  0  0  0  0
   -0.2470   -0.1410    0.5576 C   0  0  1  0  0  0  0  0  0  0  0  0
    0.4239   -0.7541   -0.0450 H   0  0  0  0  0  0  0  0  0  0  0  0
   -0.4317    1.2160   -0.1683 C   0  0  1  0  0  0  0  0  0  0  0  0
   -1.0086    1.0202   -1.0742 H   0  0  0  0  0  0  0  0  0  0  0  0
   -1.2196    2.2338    0.6783 C   0  0  0  0  0  0  0  0  0  0  0  0
   -0.6485    2.5214    1.5628 H   0  0  0  0  0  0  0  0  0  0  0  0
   -1.4392    3.1244    0.0916 H   0  0  0  0  0  0  0  0  0  0  0  0
   -2.1693    1.8030    0.9976 H   0  0  0  0  0  0  0  0  0  0  0  0
    0.9302    1.7995   -0.6070 C   0  0  0  0  0  0  0  0  0  0  0  0
    1.5783    1.9250    0.2614 H   0  0  0  0  0  0  0  0  0  0  0  0
    1.4077    1.0989   -1.2918 H   0  0  0  0  0  0  0  0  0  0  0  0
    0.8192    3.1466   -1.3339 C   0  0  0  0  0  0  0  0  0  0  0  0
    0.4450    3.9157   -0.6586 H   0  0  0  0  0  0  0  0  0  0  0  0
    1.8059    3.4463   -1.6879 H   0  0  0  0  0  0  0  0  0  0  0  0
    0.1488    3.0548   -2.1892 H   0  0  0  0  0  0  0  0  0  0  0  0
    0.3833   -0.0008    1.9525 C   0  0  0  0  0  0  0  0  0  0  0  0
    1.5803   -0.2304    2.1189 O   0  0  0  0  0  0  0  0  0  0  0  0
   -0.4170    0.3858    2.9541 N   0  0  0  0  0  0  0  0  0  0  0  0
   -1.3850    0.5669    2.7398 H   0  0  0  0  0  0  0  0  0  0  0  0
    0.0265    0.5600    4.3358 C   0  0  0  0  0  0  0  0  0  0  0  0
    0.8964    1.2200    4.3632 H   0  0  0  0  0  0  0  0  0  0  0  0
   -0.7726    0.9946    4.9382 H   0  0  0  0  0  0  0  0  0  0  0  0
    0.3119   -0.4069    4.7547 H   0  0  0  0  0  0  0  0  0  0  0  0
  5  6  2  0  0  0  0
  5  7  1  0  0  0  0
  2  3  1  0  0  0  0
  2  4  1  0  0  0  0
  2  5  1  0  0  0  0
  1  2  1  0  0  0  0
 24 25  2  0  0  0  0
 24 26  1  0  0  0  0
 20 21  1  0  0  0  0
 20 22  1  0  0  0  0
 20 23  1  0  0  0  0
 17 18  1  0  0  0  0
 17 19  1  0  0  0  0
 17 20  1  0  0  0  0
 13 14  1  0  0  0  0
 13 15  1  0  0  0  0
 13 16  1  0  0  0  0
 11 12  1  0  0  0  0
 11 13  1  0  0  0  0
 11 17  1  0  0  0  0
  9 10  1  0  0  0  0
  9 11  1  0  0  0  0
  9 24  1  0  0  0  0
  7  8  1  0  0  0  0
  7  9  1  0  0  0  0
 28 29  1  0  0  0  0
 28 30  1  0  0  0  0
 28 31  1  0  0  0  0
 26 27  1  0  0  0  0
 26 28  1  0  0  0  0
M  END
$$$$
default_name
  -OEChem-02102213163D

 31 30  0     1  0  0  0  0  0999 V2000
   -3.0760   -3.6390    1.5496 H   0  0  0  0  0  0  0  0  0  0  0  0
   -3.0940   -2.6290    1.1426 C   0  0  0  0  0  0  0  0  0  0  0  0
   -3.7160   -1.9930    1.7706 H   0  0  0  0  0  0  0  0  0  0  0  0
   -3.4880   -2.6500    0.1286 H   0  0  0  0  0  0  0  0  0  0  0  0
   -1.6860   -2.0850    1.1196 C   0  0  0  0  0  0  0  0  0  0  0  0
   -0.7540   -2.7700    1.5226 O   0  0  0  0  0  0  0  0  0  0  0  0
   -1.5320   -0.8490    0.6496 N   0  0  0  0  0  0  0  0  0  0  0  0
   -2.3500   -0.3360    0.3566 H   0  0  0  0  0  0  0  0  0  0  0  0
   -0.2470   -0.1410    0.5576 C   0  0  1  0  0  0  0  0  0  0  0  0
    0.4239   -0.7541   -0.0450 H   0  0  0  0  0  0  0  0  0  0  0  0
   -0.4317    1.2160   -0.1683 C   0  0  1  0  0  0  0  0  0  0  0  0
   -1.0086    1.0202   -1.0742 H   0  0  0  0  0  0  0  0  0  0  0  0
   -1.2196    2.2338    0.6783 C   0  0  0  0  0  0  0  0  0  0  0  0
   -0.6485    2.5214    1.5628 H   0  0  0  0  0  0  0  0  0  0  0  0
   -1.4392    3.1244    0.0916 H   0  0  0  0  0  0  0  0  0  0  0  0
   -2.1693    1.8030    0.9976 H   0  0  0  0  0  0  0  0  0  0  0  0
    0.9302    1.7995   -0.6070 C   0  0  0  0  0  0  0  0  0  0  0  0
    1.6615    1.6798    0.1934 H   0  0  0  0  0  0  0  0  0  0  0  0
    1.2835    1.2484   -1.4784 H   0  0  0  0  0  0  0  0  0  0  0  0
    0.8695    3.2826   -0.9970 C   0  0  0  0  0  0  0  0  0  0  0  0
    0.6235    3.8960   -0.1305 H   0  0  0  0  0  0  0  0  0  0  0  0
    1.8424    3.5943   -1.3775 H   0  0  0  0  0  0  0  0  0  0  0  0
    0.1201    3.4334   -1.7748 H   0  0  0  0  0  0  0  0  0  0  0  0
    0.3833   -0.0008    1.9525 C   0  0  0  0  0  0  0  0  0  0  0  0
    1.5803   -0.2304    2.1189 O   0  0  0  0  0  0  0  0  0  0  0  0
   -0.4170    0.3858    2.9541 N   0  0  0  0  0  0  0  0  0  0  0  0
   -1.3850    0.5669    2.7398 H   0  0  0  0  0  0  0  0  0  0  0  0
    0.0265    0.5600    4.3358 C   0  0  0  0  0  0  0  0  0  0  0  0
    0.8964    1.2200    4.3632 H   0  0  0  0  0  0  0  0  0  0  0  0
   -0.7726    0.9946    4.9382 H   0  0  0  0  0  0  0  0  0  0  0  0
    0.3119   -0.4069    4.7547 H   0  0  0  0  0  0  0  0  0  0  0  0
  5  6  2  0  0  0  0
  5  7  1  0  0  0  0
  2  3  1  0  0  0  0
  2  4  1  0  0  0  0
  2  5  1  0  0  0  0
  1  2  1  0  0  0  0
 24 25  2  0  0  0  0
 24 26  1  0  0  0  0
 20 21  1  0  0  0  0
 20 22  1  0  0  0  0
 20 23  1  0  0  0  0
 17 18  1  0  0  0  0
 17 19  1  0  0  0  0
 17 20  1  0  0  0  0
 13 14  1  0  0  0  0
 13 15  1  0  0  0  0
 13 16  1  0  0  0  0
 11 12  1  0  0  0  0
 11 13  1  0  0  0  0
 11 17  1  0  0  0  0
  9 10  1  0  0  0  0
  9 11  1  0  0  0  0
  9 24  1  0  0  0  0
  7  8  1  0  0  0  0
  7  9  1  0  0  0  0
 28 29  1  0  0  0  0
 28 30  1  0  0  0  0
 28 31  1  0  0  0  0
 26 27  1  0  0  0  0
 26 28  1  0  0  0  0
M  END
$$$$
default_name
  -OEChem-02102213163D

 31 30  0     1  0  0  0  0  0999 V2000
   -3.0760   -3.6390    1.5496 H   0  0  0  0  0  0  0  0  0  0  0  0
   -3.0940   -2.6290    1.1426 C   0  0  0  0  0  0  0  0  0  0  0  0
   -3.7160   -1.9930    1.7706 H   0  0  0  0  0  0  0  0  0  0  0  0
   -3.4880   -2.6500    0.1286 H   0  0  0  0  0  0  0  0  0  0  0  0
   -1.6860   -2.0850    1.1196 C   0  0  0  0  0  0  0  0  0  0  0  0
   -0.7540   -2.7700    1.5226 O   0  0  0  0  0  0  0  0  0  0  0  0
   -1.5320   -0.8490    0.6496 N   0  0  0  0  0  0  0  0  0  0  0  0
   -2.3500   -0.3360    0.3566 H   0  0  0  0  0  0  0  0  0  0  0  0
   -0.2470   -0.1410    0.5576 C   0  0  1  0  0  0  0  0  0  0  0  0
    0.4239   -0.7541   -0.0450 H   0  0  0  0  0  0  0  0  0  0  0  0
   -0.4317    1.2160   -0.1683 C   0  0  1  0  0  0  0  0  0  0  0  0
   -1.0086    1.0202   -1.0742 H   0  0  0  0  0  0  0  0  0  0  0  0
   -1.2196    2.2338    0.6783 C   0  0  0  0  0  0  0  0  0  0  0  0
   -0.6485    2.5214    1.5628 H   0  0  0  0  0  0  0  0  0  0  0  0
   -1.4392    3.1244    0.0916 H   0  0  0  0  0  0  0  0  0  0  0  0
   -2.1693    1.8030    0.9976 H   0  0  0  0  0  0  0  0  0  0  0  0
    0.9302    1.7995   -0.6070 C   0  0  0  0  0  0  0  0  0  0  0  0
    1.7172    1.4523    0.0638 H   0  0  0  0  0  0  0  0  0  0  0  0
    1.1563    1.4445   -1.6124 H   0  0  0  0  0  0  0  0  0  0  0  0
    0.9609    3.3334   -0.6455 C   0  0  0  0  0  0  0  0  0  0  0  0
    0.8462    3.7434    0.3578 H   0  0  0  0  0  0  0  0  0  0  0  0
    1.9189    3.6638   -1.0475 H   0  0  0  0  0  0  0  0  0  0  0  0
    0.1606    3.7067   -1.2854 H   0  0  0  0  0  0  0  0  0  0  0  0
    0.3833   -0.0008    1.9525 C   0  0  0  0  0  0  0  0  0  0  0  0
    1.5803   -0.2304    2.1189 O   0  0  0  0  0  0  0  0  0  0  0  0
   -0.4170    0.3858    2.9541 N   0  0  0  0  0  0  0  0  0  0  0  0
   -1.3850    0.5669    2.7398 H   0  0  0  0  0  0  0  0  0  0  0  0
    0.0265    0.5600    4.3358 C   0  0  0  0  0  0  0  0  0  0  0  0
    0.8964    1.2200    4.3632 H   0  0  0  0  0  0  0  0  0  0  0  0
   -0.7726    0.9946    4.9382 H   0  0  0  0  0  0  0  0  0  0  0  0
    0.3119   -0.4069    4.7547 H   0  0  0  0  0  0  0  0  0  0  0  0
  5  6  2  0  0  0  0
  5  7  1  0  0  0  0
  2  3  1  0  0  0  0
  2  4  1  0  0  0  0
  2  5  1  0  0  0  0
  1  2  1  0  0  0  0
 24 25  2  0  0  0  0
 24 26  1  0  0  0  0
 20 21  1  0  0  0  0
 20 22  1  0  0  0  0
 20 23  1  0  0  0  0
 17 18  1  0  0  0  0
 17 19  1  0  0  0  0
 17 20  1  0  0  0  0
 13 14  1  0  0  0  0
 13 15  1  0  0  0  0
 13 16  1  0  0  0  0
 11 12  1  0  0  0  0
 11 13  1  0  0  0  0
 11 17  1  0  0  0  0
  9 10  1  0  0  0  0
  9 11  1  0  0  0  0
  9 24  1  0  0  0  0
  7  8  1  0  0  0  0
  7  9  1  0  0  0  0
 28 29  1  0  0  0  0
 28 30  1  0  0  0  0
 28 31  1  0  0  0  0
 26 27  1  0  0  0  0
 26 28  1  0  0  0  0
M  END
$$$$
default_name
  -OEChem-02102213163D

 31 30  0     1  0  0  0  0  0999 V2000
   -3.0760   -3.6390    1.5496 H   0  0  0  0  0  0  0  0  0  0  0  0
   -3.0940   -2.6290    1.1426 C   0  0  0  0  0  0  0  0  0  0  0  0
   -3.7160   -1.9930    1.7706 H   0  0  0  0  0  0  0  0  0  0  0  0
   -3.4880   -2.6500    0.1286 H   0  0  0  0  0  0  0  0  0  0  0  0
   -1.6860   -2.0850    1.1196 C   0  0  0  0  0  0  0  0  0  0  0  0
   -0.7540   -2.7700    1.5226 O   0  0  0  0  0  0  0  0  0  0  0  0
   -1.5320   -0.8490    0.6496 N   0  0  0  0  0  0  0  0  0  0  0  0
   -2.3500   -0.3360    0.3566 H   0  0  0  0  0  0  0  0  0  0  0  0
   -0.2470   -0.1410    0.5576 C   0  0  1  0  0  0  0  0  0  0  0  0
    0.4239   -0.7541   -0.0450 H   0  0  0  0  0  0  0  0  0  0  0  0
   -0.4317    1.2160   -0.1683 C   0  0  1  0  0  0  0  0  0  0  0  0
   -1.0086    1.0202   -1.0742 H   0  0  0  0  0  0  0  0  0  0  0  0
   -1.2196    2.2338    0.6783 C   0  0  0  0  0  0  0  0  0  0  0  0
   -0.6485    2.5214    1.5628 H   0  0  0  0  0  0  0  0  0  0  0  0
   -1.4392    3.1244    0.0916 H   0  0  0  0  0  0  0  0  0  0  0  0
   -2.1693    1.8030    0.9976 H   0  0  0  0  0  0  0  0  0  0  0  0
    0.9302    1.7995   -0.6070 C   0  0  0  0  0  0  0  0  0  0  0  0
    1.7416    1.2581   -0.1188 H   0  0  0  0  0  0  0  0  0  0  0  0
    1.0348    1.6739   -1.6846 H   0  0  0  0  0  0  0  0  0  0  0  0
    1.0873    3.2956   -0.3032 C   0  0  0  0  0  0  0  0  0  0  0  0
    1.0978    3.4683    0.7728 H   0  0  0  0  0  0  0  0  0  0  0  0
    2.0302    3.6500   -0.7203 H   0  0  0  0  0  0  0  0  0  0  0  0
    0.2676    3.8560   -0.7543 H   0  0  0  0  0  0  0  0  0  0  0  0
    0.3833   -0.0008    1.9525 C   0  0  0  0  0  0  0  0  0  0  0  0
    1.5803   -0.2304    2.1189 O   0  0  0  0  0  0  0  0  0  0  0  0
   -0.4170    0.3858    2.9541 N   0  0  0  0  0  0  0  0  0  0  0  0
   -1.3850    0.5669    2.7398 H   0  0  0  0  0  0  0  0  0  0  0  0
    0.0265    0.5600    4.3358 C   0  0  0  0  0  0  0  0  0  0  0  0
    0.8964    1.2200    4.3632 H   0  0  0  0  0  0  0  0  0  0  0  0
   -0.7726    0.9946    4.9382 H   0  0  0  0  0  0  0  0  0  0  0  0
    0.3119   -0.4069    4.7547 H   0  0  0  0  0  0  0  0  0  0  0  0
  5  6  2  0  0  0  0
  5  7  1  0  0  0  0
  2  3  1  0  0  0  0
  2  4  1  0  0  0  0
  2  5  1  0  0  0  0
  1  2  1  0  0  0  0
 24 25  2  0  0  0  0
 24 26  1  0  0  0  0
 20 21  1  0  0  0  0
 20 22  1  0  0  0  0
 20 23  1  0  0  0  0
 17 18  1  0  0  0  0
 17 19  1  0  0  0  0
 17 20  1  0  0  0  0
 13 14  1  0  0  0  0
 13 15  1  0  0  0  0
 13 16  1  0  0  0  0
 11 12  1  0  0  0  0
 11 13  1  0  0  0  0
 11 17  1  0  0  0  0
  9 10  1  0  0  0  0
  9 11  1  0  0  0  0
  9 24  1  0  0  0  0
  7  8  1  0  0  0  0
  7  9  1  0  0  0  0
 28 29  1  0  0  0  0
 28 30  1  0  0  0  0
 28 31  1  0  0  0  0
 26 27  1  0  0  0  0
 26 28  1  0  0  0  0
M  END
$$$$
default_name
  -OEChem-02102213163D

 31 30  0     1  0  0  0  0  0999 V2000
   -3.0760   -3.6390    1.5496 H   0  0  0  0  0  0  0  0  0  0  0  0
   -3.0940   -2.6290    1.1426 C   0  0  0  0  0  0  0  0  0  0  0  0
   -3.7160   -1.9930    1.7706 H   0  0  0  0  0  0  0  0  0  0  0  0
   -3.4880   -2.6500    0.1286 H   0  0  0  0  0  0  0  0  0  0  0  0
   -1.6860   -2.0850    1.1196 C   0  0  0  0  0  0  0  0  0  0  0  0
   -0.7540   -2.7700    1.5226 O   0  0  0  0  0  0  0  0  0  0  0  0
   -1.5320   -0.8490    0.6496 N   0  0  0  0  0  0  0  0  0  0  0  0
   -2.3500   -0.3360    0.3566 H   0  0  0  0  0  0  0  0  0  0  0  0
   -0.2470   -0.1410    0.5576 C   0  0  1  0  0  0  0  0  0  0  0  0
    0.4239   -0.7541   -0.0450 H   0  0  0  0  0  0  0  0  0  0  0  0
   -0.4317    1.2160   -0.1683 C   0  0  1  0  0  0  0  0  0  0  0  0
   -1.0086    1.0202   -1.0742 H   0  0  0  0  0  0  0  0  0  0  0  0
   -1.2196    2.2338    0.6783 C   0  0  0  0  0  0  0  0  0  0  0  0
   -0.6485    2.5214    1.5628 H   0  0  0  0  0  0  0  0  0  0  0  0
   -1.4392    3.1244    0.0916 H   0  0  0  0  0  0  0  0  0  0  0  0
   -2.1693    1.8030    0.9976 H   0  0  0  0  0  0  0  0  0  0  0  0
    0.9302    1.7995   -0.6070 C   0  0  0  0  0  0  0  0  0  0  0  0
    1.7331    1.1104   -0.3419 H   0  0  0  0  0  0  0  0  0  0  0  0
    0.9272    1.9208   -1.6902 H   0  0  0  0  0  0  0  0  0  0  0  0
    1.2401    3.1718    0.0064 C   0  0  0  0  0  0  0  0  0  0  0  0
    1.3611    3.0893    1.0863 H   0  0  0  0  0  0  0  0  0  0  0  0
    2.1687    3.5539   -0.4183 H   0  0  0  0  0  0  0  0  0  0  0  0
    0.4340    3.8712   -0.2177 H   0  0  0  0  0  0  0  0  0  0  0  0
    0.3833   -0.0008    1.9525 C   0  0  0  0  0  0  0  0  0  0  0  0
    1.5803   -0.2304    2.1189 O   0  0  0  0  0  0  0  0  0  0  0  0
   -0.4170    0.3858    2.9541 N   0  0  0  0  0  0  0  0  0  0  0  0
   -1.3850    0.5669    2.7398 H   0  0  0  0  0  0  0  0  0  0  0  0
    0.0265    0.5600    4.3358 C   0  0  0  0  0  0  0  0  0  0  0  0
    0.8964    1.2200    4.3632 H   0  0  0  0  0  0  0  0  0  0  0  0
   -0.7726    0.9946    4.9382 H   0  0  0  0  0  0  0  0  0  0  0  0
    0.3119   -0.4069    4.7547 H   0  0  0  0  0  0  0  0  0  0  0  0
  5  6  2  0  0  0  0
  5  7  1  0  0  0  0
  2  3  1  0  0  0  0
  2  4  1  0  0  0  0
  2  5  1  0  0  0  0
  1  2  1  0  0  0  0
 24 25  2  0  0  0  0
 24 26  1  0  0  0  0
 20 21  1  0  0  0  0
 20 22  1  0  0  0  0
 20 23  1  0  0  0  0
 17 18  1  0  0  0  0
 17 19  1  0  0  0  0
 17 20  1  0  0  0  0
 13 14  1  0  0  0  0
 13 15  1  0  0  0  0
 13 16  1  0  0  0  0
 11 12  1  0  0  0  0
 11 13  1  0  0  0  0
 11 17  1  0  0  0  0
  9 10  1  0  0  0  0
  9 11  1  0  0  0  0
  9 24  1  0  0  0  0
  7  8  1  0  0  0  0
  7  9  1  0  0  0  0
 28 29  1  0  0  0  0
 28 30  1  0  0  0  0
 28 31  1  0  0  0  0
 26 27  1  0  0  0  0
 26 28  1  0  0  0  0
M  END
$$$$
default_name
  -OEChem-02102213163D

 31 30  0     1  0  0  0  0  0999 V2000
   -3.0760   -3.6390    1.5496 H   0  0  0  0  0  0  0  0  0  0  0  0
   -3.0940   -2.6290    1.1426 C   0  0  0  0  0  0  0  0  0  0  0  0
   -3.7160   -1.9930    1.7706 H   0  0  0  0  0  0  0  0  0  0  0  0
   -3.4880   -2.6500    0.1286 H   0  0  0  0  0  0  0  0  0  0  0  0
   -1.6860   -2.0850    1.1196 C   0  0  0  0  0  0  0  0  0  0  0  0
   -0.7540   -2.7700    1.5226 O   0  0  0  0  0  0  0  0  0  0  0  0
   -1.5320   -0.8490    0.6496 N   0  0  0  0  0  0  0  0  0  0  0  0
   -2.3500   -0.3360    0.3566 H   0  0  0  0  0  0  0  0  0  0  0  0
   -0.2470   -0.1410    0.5576 C   0  0  1  0  0  0  0  0  0  0  0  0
    0.4239   -0.7541   -0.0450 H   0  0  0  0  0  0  0  0  0  0  0  0
   -0.4317    1.2160   -0.1683 C   0  0  1  0  0  0  0  0  0  0  0  0
   -1.0086    1.0202   -1.0742 H   0  0  0  0  0  0  0  0  0  0  0  0
   -1.2196    2.2338    0.6783 C   0  0  0  0  0  0  0  0  0  0  0  0
   -0.6485    2.5214    1.5628 H   0  0  0  0  0  0  0  0  0  0  0  0
   -1.4392    3.1244    0.0916 H   0  0  0  0  0  0  0  0  0  0  0  0
   -2.1693    1.8030    0.9976 H   0  0  0  0  0  0  0  0  0  0  0  0
    0.9302    1.7995   -0.6070 C   0  0  0  0  0  0  0  0  0  0  0  0
    1.6922    1.0192   -0.5902 H   0  0  0  0  0  0  0  0  0  0  0  0
    0.8408    2.1685   -1.6287 H   0  0  0  0  0  0  0  0  0  0  0  0
    1.4089    2.9703    0.2622 C   0  0  0  0  0  0  0  0  0  0  0  0
    1.6183    2.6324    1.2770 H   0  0  0  0  0  0  0  0  0  0  0  0
    2.3249    3.3820   -0.1621 H   0  0  0  0  0  0  0  0  0  0  0  0
    0.6482    3.7513    0.2878 H   0  0  0  0  0  0  0  0  0  0  0  0
    0.3833   -0.0008    1.9525 C   0  0  0  0  0  0  0  0  0  0  0  0
    1.5803   -0.2304    2.1189 O   0  0  0  0  0  0  0  0  0  0  0  0
   -0.4170    0.3858    2.9541 N   0  0  0  0  0  0  0  0  0  0  0  0
   -1.3850    0.5669    2.7398 H   0  0  0  0  0  0  0  0  0  0  0  0
    0.0265    0.5600    4.3358 C   0  0  0  0  0  0  0  0  0  0  0  0
    0.8964    1.2200    4.3632 H   0  0  0  0  0  0  0  0  0  0  0  0
   -0.7726    0.9946    4.9382 H   0  0  0  0  0  0  0  0  0  0  0  0
    0.3119   -0.4069    4.7547 H   0  0  0  0  0  0  0  0  0  0  0  0
  5  6  2  0  0  0  0
  5  7  1  0  0  0  0
  2  3  1  0  0  0  0
  2  4  1  0  0  0  0
  2  5  1  0  0  0  0
  1  2  1  0  0  0  0
 24 25  2  0  0  0  0
 24 26  1  0  0  0  0
 20 21  1  0  0  0  0
 20 22  1  0  0  0  0
 20 23  1  0  0  0  0
 17 18  1  0  0  0  0
 17 19  1  0  0  0  0
 17 20  1  0  0  0  0
 13 14  1  0  0  0  0
 13 15  1  0  0  0  0
 13 16  1  0  0  0  0
 11 12  1  0  0  0  0
 11 13  1  0  0  0  0
 11 17  1  0  0  0  0
  9 10  1  0  0  0  0
  9 11  1  0  0  0  0
  9 24  1  0  0  0  0
  7  8  1  0  0  0  0
  7  9  1  0  0  0  0
 28 29  1  0  0  0  0
 28 30  1  0  0  0  0
 28 31  1  0  0  0  0
 26 27  1  0  0  0  0
 26 28  1  0  0  0  0
M  END
$$$$
default_name
  -OEChem-02102213163D

 31 30  0     1  0  0  0  0  0999 V2000
   -3.0760   -3.6390    1.5496 H   0  0  0  0  0  0  0  0  0  0  0  0
   -3.0940   -2.6290    1.1426 C   0  0  0  0  0  0  0  0  0  0  0  0
   -3.7160   -1.9930    1.7706 H   0  0  0  0  0  0  0  0  0  0  0  0
   -3.4880   -2.6500    0.1286 H   0  0  0  0  0  0  0  0  0  0  0  0
   -1.6860   -2.0850    1.1196 C   0  0  0  0  0  0  0  0  0  0  0  0
   -0.7540   -2.7700    1.5226 O   0  0  0  0  0  0  0  0  0  0  0  0
   -1.5320   -0.8490    0.6496 N   0  0  0  0  0  0  0  0  0  0  0  0
   -2.3500   -0.3360    0.3566 H   0  0  0  0  0  0  0  0  0  0  0  0
   -0.2470   -0.1410    0.5576 C   0  0  1  0  0  0  0  0  0  0  0  0
    0.4239   -0.7541   -0.0450 H   0  0  0  0  0  0  0  0  0  0  0  0
   -0.4317    1.2160   -0.1683 C   0  0  1  0  0  0  0  0  0  0  0  0
   -1.0086    1.0202   -1.0742 H   0  0  0  0  0  0  0  0  0  0  0  0
   -1.2196    2.2338    0.6783 C   0  0  0  0  0  0  0  0  0  0  0  0
   -0.6485    2.5214    1.5628 H   0  0  0  0  0  0  0  0  0  0  0  0
   -1.4392    3.1244    0.0916 H   0  0  0  0  0  0  0  0  0  0  0  0
   -2.1693    1.8030    0.9976 H   0  0  0  0  0  0  0  0  0  0  0  0
    0.9302    1.7995   -0.6070 C   0  0  0  0  0  0  0  0  0  0  0  0
    1.6217    0.9908   -0.8469 H   0  0  0  0  0  0  0  0  0  0  0  0
    0.7816    2.4000   -1.5044 H   0  0  0  0  0  0  0  0  0  0  0  0
    1.5821    2.7049    0.4469 C   0  0  0  0  0  0  0  0  0  0  0  0
    1.8518    2.1287    1.3318 H   0  0  0  0  0  0  0  0  0  0  0  0
    2.4882    3.1460    0.0309 H   0  0  0  0  0  0  0  0  0  0  0  0
    0.8957    3.5044    0.7279 H   0  0  0  0  0  0  0  0  0  0  0  0
    0.3833   -0.0008    1.9525 C   0  0  0  0  0  0  0  0  0  0  0  0
    1.5803   -0.2304    2.1189 O   0  0  0  0  0  0  0  0  0  0  0  0
   -0.4170    0.3858    2.9541 N   0  0  0  0  0  0  0  0  0  0  0  0
   -1.3850    0.5669    2.7398 H   0  0  0  0  0  0  0  0  0  0  0  0
    0.0265    0.5600    4.3358 C   0  0  0  0  0  0  0  0  0  0  0  0
    0.8964    1.2200    4.3632 H   0  0  0  0  0  0  0  0  0  0  0  0
   -0.7726    0.9946    4.9382 H   0  0  0  0  0  0  0  0  0  0  0  0
    0.3119   -0.4069    4.7547 H   0  0  0  0  0  0  0  0  0  0  0  0
  5  6  2  0  0  0  0
  5  7  1  0  0  0  0
  2  3  1  0  0  0  0
  2  4  1  0  0  0  0
  2  5  1  0  0  0  0
  1  2  1  0  0  0  0
 24 25  2  0  0  0  0
 24 26  1  0  0  0  0
 20 21  1  0  0  0  0
 20 22  1  0  0  0  0
 20 23  1  0  0  0  0
 17 18  1  0  0  0  0
 17 19  1  0  0  0  0
 17 20  1  0  0  0  0
 13 14  1  0  0  0  0
 13 15  1  0  0  0  0
 13 16  1  0  0  0  0
 11 12  1  0  0  0  0
 11 13  1  0  0  0  0
 11 17  1  0  0  0  0
  9 10  1  0  0  0  0
  9 11  1  0  0  0  0
  9 24  1  0  0  0  0
  7  8  1  0  0  0  0
  7  9  1  0  0  0  0
 28 29  1  0  0  0  0
 28 30  1  0  0  0  0
 28 31  1  0  0  0  0
 26 27  1  0  0  0  0
 26 28  1  0  0  0  0
M  END
$$$$
default_name
  -OEChem-02102213163D

 31 30  0     1  0  0  0  0  0999 V2000
   -3.0760   -3.6390    1.5496 H   0  0  0  0  0  0  0  0  0  0  0  0
   -3.0940   -2.6290    1.1426 C   0  0  0  0  0  0  0  0  0  0  0  0
   -3.7160   -1.9930    1.7706 H   0  0  0  0  0  0  0  0  0  0  0  0
   -3.4880   -2.6500    0.1286 H   0  0  0  0  0  0  0  0  0  0  0  0
   -1.6860   -2.0850    1.1196 C   0  0  0  0  0  0  0  0  0  0  0  0
   -0.7540   -2.7700    1.5226 O   0  0  0  0  0  0  0  0  0  0  0  0
   -1.5320   -0.8490    0.6496 N   0  0  0  0  0  0  0  0  0  0  0  0
   -2.3500   -0.3360    0.3566 H   0  0  0  0  0  0  0  0  0  0  0  0
   -0.2470   -0.1410    0.5576 C   0  0  1  0  0  0  0  0  0  0  0  0
    0.4239   -0.7541   -0.0450 H   0  0  0  0  0  0  0  0  0  0  0  0
   -0.4317    1.2160   -0.1683 C   0  0  1  0  0  0  0  0  0  0  0  0
   -1.0086    1.0202   -1.0742 H   0  0  0  0  0  0  0  0  0  0  0  0
   -1.2196    2.2338    0.6783 C   0  0  0  0  0  0  0  0  0  0  0  0
   -0.6485    2.5214    1.5628 H   0  0  0  0  0  0  0  0  0  0  0  0
   -1.4392    3.1244    0.0916 H   0  0  0  0  0  0  0  0  0  0  0  0
   -2.1693    1.8030    0.9976 H   0  0  0  0  0  0  0  0  0  0  0  0
    0.9302    1.7995   -0.6070 C   0  0  0  0  0  0  0  0  0  0  0  0
    1.5264    1.0271   -1.0944 H   0  0  0  0  0  0  0  0  0  0  0  0
    0.7536    2.5997   -1.3257 H   0  0  0  0  0  0  0  0  0  0  0  0
    1.7479    2.3937    0.5478 C   0  0  0  0  0  0  0  0  0  0  0  0
    2.0457    1.6125    1.2470 H   0  0  0  0  0  0  0  0  0  0  0  0
    2.6475    2.8620    0.1476 H   0  0  0  0  0  0  0  0  0  0  0  0
    1.1596    3.1474    1.0724 H   0  0  0  0  0  0  0  0  0  0  0  0
    0.3833   -0.0008    1.9525 C   0  0  0  0  0  0  0  0  0  0  0  0
    1.5803   -0.2304    2.1189 O   0  0  0  0  0  0  0  0  0  0  0  0
   -0.4170    0.3858    2.9541 N   0  0  0  0  0  0  0  0  0  0  0  0
   -1.3850    0.5669    2.7398 H   0  0  0  0  0  0  0  0  0  0  0  0
    0.0265    0.5600    4.3358 C   0  0  0  0  0  0  0  0  0  0  0  0
    0.8964    1.2200    4.3632 H   0  0  0  0  0  0  0  0  0  0  0  0
   -0.7726    0.9946    4.9382 H   0  0  0  0  0  0  0  0  0  0  0  0
    0.3119   -0.4069    4.7547 H   0  0  0  0  0  0  0  0  0  0  0  0
  5  6  2  0  0  0  0
  5  7  1  0  0  0  0
  2  3  1  0  0  0  0
  2  4  1  0  0  0  0
  2  5  1  0  0  0  0
  1  2  1  0  0  0  0
 24 25  2  0  0  0  0
 24 26  1  0  0  0  0
 20 21  1  0  0  0  0
 20 22  1  0  0  0  0
 20 23  1  0  0  0  0
 17 18  1  0  0  0  0
 17 19  1  0  0  0  0
 17 20  1  0  0  0  0
 13 14  1  0  0  0  0
 13 15  1  0  0  0  0
 13 16  1  0  0  0  0
 11 12  1  0  0  0  0
 11 13  1  0  0  0  0
 11 17  1  0  0  0  0
  9 10  1  0  0  0  0
  9 11  1  0  0  0  0
  9 24  1  0  0  0  0
  7  8  1  0  0  0  0
  7  9  1  0  0  0  0
 28 29  1  0  0  0  0
 28 30  1  0  0  0  0
 28 31  1  0  0  0  0
 26 27  1  0  0  0  0
 26 28  1  0  0  0  0
M  END
$$$$
default_name
  -OEChem-02102213163D

 31 30  0     1  0  0  0  0  0999 V2000
   -3.0760   -3.6390    1.5496 H   0  0  0  0  0  0  0  0  0  0  0  0
   -3.0940   -2.6290    1.1426 C   0  0  0  0  0  0  0  0  0  0  0  0
   -3.7160   -1.9930    1.7706 H   0  0  0  0  0  0  0  0  0  0  0  0
   -3.4880   -2.6500    0.1286 H   0  0  0  0  0  0  0  0  0  0  0  0
   -1.6860   -2.0850    1.1196 C   0  0  0  0  0  0  0  0  0  0  0  0
   -0.7540   -2.7700    1.5226 O   0  0  0  0  0  0  0  0  0  0  0  0
   -1.5320   -0.8490    0.6496 N   0  0  0  0  0  0  0  0  0  0  0  0
   -2.3500   -0.3360    0.3566 H   0  0  0  0  0  0  0  0  0  0  0  0
   -0.2470   -0.1410    0.5576 C   0  0  1  0  0  0  0  0  0  0  0  0
    0.4239   -0.7541   -0.0450 H   0  0  0  0  0  0  0  0  0  0  0  0
   -0.4317    1.2160   -0.1683 C   0  0  1  0  0  0  0  0  0  0  0  0
   -1.0086    1.0202   -1.0742 H   0  0  0  0  0  0  0  0  0  0  0  0
   -1.2196    2.2338    0.6783 C   0  0  0  0  0  0  0  0  0  0  0  0
   -0.6485    2.5214    1.5628 H   0  0  0  0  0  0  0  0  0  0  0  0
   -1.4392    3.1244    0.0916 H   0  0  0  0  0  0  0  0  0  0  0  0
   -2.1693    1.8030    0.9976 H   0  0  0  0  0  0  0  0  0  0  0  0
    0.9302    1.7995   -0.6070 C   0  0  0  0  0  0  0  0  0  0  0  0
    1.4129    1.1255   -1.3159 H   0  0  0  0  0  0  0  0  0  0  0  0
    0.7587    2.7539   -1.1048 H   0  0  0  0  0  0  0  0  0  0  0  0
    1.8951    2.0579    0.5581 C   0  0  0  0  0  0  0  0  0  0  0  0
    2.1868    1.1190    1.0283 H   0  0  0  0  0  0  0  0  0  0  0  0
    2.7918    2.5494    0.1799 H   0  0  0  0  0  0  0  0  0  0  0  0
    1.4221    2.7046    1.2979 H   0  0  0  0  0  0  0  0  0  0  0  0
    0.3833   -0.0008    1.9525 C   0  0  0  0  0  0  0  0  0  0  0  0
    1.5803   -0.2304    2.1189 O   0  0  0  0  0  0  0  0  0  0  0  0
   -0.4170    0.3858    2.9541 N   0  0  0  0  0  0  0  0  0  0  0  0
   -1.3850    0.5669    2.7398 H   0  0  0  0  0  0  0  0  0  0  0  0
    0.0265    0.5600    4.3358 C   0  0  0  0  0  0  0  0  0  0  0  0
    0.8964    1.2200    4.3632 H   0  0  0  0  0  0  0  0  0  0  0  0
   -0.7726    0.9946    4.9382 H   0  0  0  0  0  0  0  0  0  0  0  0
    0.3119   -0.4069    4.7547 H   0  0  0  0  0  0  0  0  0  0  0  0
  5  6  2  0  0  0  0
  5  7  1  0  0  0  0
  2  3  1  0  0  0  0
  2  4  1  0  0  0  0
  2  5  1  0  0  0  0
  1  2  1  0  0  0  0
 24 25  2  0  0  0  0
 24 26  1  0  0  0  0
 20 21  1  0  0  0  0
 20 22  1  0  0  0  0
 20 23  1  0  0  0  0
 17 18  1  0  0  0  0
 17 19  1  0  0  0  0
 17 20  1  0  0  0  0
 13 14  1  0  0  0  0
 13 15  1  0  0  0  0
 13 16  1  0  0  0  0
 11 12  1  0  0  0  0
 11 13  1  0  0  0  0
 11 17  1  0  0  0  0
  9 10  1  0  0  0  0
  9 11  1  0  0  0  0
  9 24  1  0  0  0  0
  7  8  1  0  0  0  0
  7  9  1  0  0  0  0
 28 29  1  0  0  0  0
 28 30  1  0  0  0  0
 28 31  1  0  0  0  0
 26 27  1  0  0  0  0
 26 28  1  0  0  0  0
M  END
$$$$
default_name
  -OEChem-02102213163D

 31 30  0     1  0  0  0  0  0999 V2000
   -3.0760   -3.6390    1.5496 H   0  0  0  0  0  0  0  0  0  0  0  0
   -3.0940   -2.6290    1.1426 C   0  0  0  0  0  0  0  0  0  0  0  0
   -3.7160   -1.9930    1.7706 H   0  0  0  0  0  0  0  0  0  0  0  0
   -3.4880   -2.6500    0.1286 H   0  0  0  0  0  0  0  0  0  0  0  0
   -1.6860   -2.0850    1.1196 C   0  0  0  0  0  0  0  0  0  0  0  0
   -0.7540   -2.7700    1.5226 O   0  0  0  0  0  0  0  0  0  0  0  0
   -1.5320   -0.8490    0.6496 N   0  0  0  0  0  0  0  0  0  0  0  0
   -2.3500   -0.3360    0.3566 H   0  0  0  0  0  0  0  0  0  0  0  0
   -0.2470   -0.1410    0.5576 C   0  0  1  0  0  0  0  0  0  0  0  0
    0.4239   -0.7541   -0.0450 H   0  0  0  0  0  0  0  0  0  0  0  0
   -0.4317    1.2160   -0.1683 C   0  0  1  0  0  0  0  0  0  0  0  0
   -1.0086    1.0202   -1.0742 H   0  0  0  0  0  0  0  0  0  0  0  0
   -1.2196    2.2338    0.6783 C   0  0  0  0  0  0  0  0  0  0  0  0
   -0.6485    2.5214    1.5628 H   0  0  0  0  0  0  0  0  0  0  0  0
   -1.4392    3.1244    0.0916 H   0  0  0  0  0  0  0  0  0  0  0  0
   -2.1693    1.8030    0.9976 H   0  0  0  0  0  0  0  0  0  0  0  0
    0.9302    1.7995   -0.6070 C   0  0  0  0  0  0  0  0  0  0  0  0
    1.2888    1.2795   -1.4962 H   0  0  0  0  0  0  0  0  0  0  0  0
    0.7965    2.8520   -0.8568 H   0  0  0  0  0  0  0  0  0  0  0  0
    2.0137    1.7204    0.4770 C   0  0  0  0  0  0  0  0  0  0  0  0
    2.2654    0.6818    0.6908 H   0  0  0  0  0  0  0  0  0  0  0  0
    2.9115    2.2294    0.1257 H   0  0  0  0  0  0  0  0  0  0  0  0
    1.6650    2.2061    1.3891 H   0  0  0  0  0  0  0  0  0  0  0  0
    0.3833   -0.0008    1.9525 C   0  0  0  0  0  0  0  0  0  0  0  0
    1.5803   -0.2304    2.1189 O   0  0  0  0  0  0  0  0  0  0  0  0
   -0.4170    0.3858    2.9541 N   0  0  0  0  0  0  0  0  0  0  0  0
   -1.3850    0.5669    2.7398 H   0  0  0  0  0  0  0  0  0  0  0  0
    0.0265    0.5600    4.3358 C   0  0  0  0  0  0  0  0  0  0  0  0
    0.8964    1.2200    4.3632 H   0  0  0  0  0  0  0  0  0  0  0  0
   -0.7726    0.9946    4.9382 H   0  0  0  0  0  0  0  0  0  0  0  0
    0.3119   -0.4069    4.7547 H   0  0  0  0  0  0  0  0  0  0  0  0
  5  6  2  0  0  0  0
  5  7  1  0  0  0  0
  2  3  1  0  0  0  0
  2  4  1  0  0  0  0
  2  5  1  0  0  0  0
  1  2  1  0  0  0  0
 24 25  2  0  0  0  0
 24 26  1  0  0  0  0
 20 21  1  0  0  0  0
 20 22  1  0  0  0  0
 20 23  1  0  0  0  0
 17 18  1  0  0  0  0
 17 19  1  0  0  0  0
 17 20  1  0  0  0  0
 13 14  1  0  0  0  0
 13 15  1  0  0  0  0
 13 16  1  0  0  0  0
 11 12  1  0  0  0  0
 11 13  1  0  0  0  0
 11 17  1  0  0  0  0
  9 10  1  0  0  0  0
  9 11  1  0  0  0  0
  9 24  1  0  0  0  0
  7  8  1  0  0  0  0
  7  9  1  0  0  0  0
 28 29  1  0  0  0  0
 28 30  1  0  0  0  0
 28 31  1  0  0  0  0
 26 27  1  0  0  0  0
 26 28  1  0  0  0  0
M  END
$$$$
default_name
  -OEChem-02102213163D

 31 30  0     1  0  0  0  0  0999 V2000
   -3.0760   -3.6390    1.5496 H   0  0  0  0  0  0  0  0  0  0  0  0
   -3.0940   -2.6290    1.1426 C   0  0  0  0  0  0  0  0  0  0  0  0
   -3.7160   -1.9930    1.7706 H   0  0  0  0  0  0  0  0  0  0  0  0
   -3.4880   -2.6500    0.1286 H   0  0  0  0  0  0  0  0  0  0  0  0
   -1.6860   -2.0850    1.1196 C   0  0  0  0  0  0  0  0  0  0  0  0
   -0.7540   -2.7700    1.5226 O   0  0  0  0  0  0  0  0  0  0  0  0
   -1.5320   -0.8490    0.6496 N   0  0  0  0  0  0  0  0  0  0  0  0
   -2.3500   -0.3360    0.3566 H   0  0  0  0  0  0  0  0  0  0  0  0
   -0.2470   -0.1410    0.5576 C   0  0  1  0  0  0  0  0  0  0  0  0
    0.4239   -0.7541   -0.0450 H   0  0  0  0  0  0  0  0  0  0  0  0
   -0.4317    1.2160   -0.1683 C   0  0  1  0  0  0  0  0  0  0  0  0
   -1.0086    1.0202   -1.0742 H   0  0  0  0  0  0  0  0  0  0  0  0
   -1.2196    2.2338    0.6783 C   0  0  0  0  0  0  0  0  0  0  0  0
   -0.6485    2.5214    1.5628 H   0  0  0  0  0  0  0  0  0  0  0  0
   -1.4392    3.1244    0.0916 H   0  0  0  0  0  0  0  0  0  0  0  0
   -2.1693    1.8030    0.9976 H   0  0  0  0  0  0  0  0  0  0  0  0
    0.9302    1.7995   -0.6070 C   0  0  0  0  0  0  0  0  0  0  0  0
    1.1626    1.4786   -1.6232 H   0  0  0  0  0  0  0  0  0  0  0  0
    0.8645    2.8875   -0.5985 H   0  0  0  0  0  0  0  0  0  0  0  0
    2.0954    1.4042    0.3102 C   0  0  0  0  0  0  0  0  0  0  0  0
    2.2762    0.3307    0.2574 H   0  0  0  0  0  0  0  0  0  0  0  0
    2.9982    1.9240   -0.0113 H   0  0  0  0  0  0  0  0  0  0  0  0
    1.8720    1.6859    1.3397 H   0  0  0  0  0  0  0  0  0  0  0  0
    0.3833   -0.0008    1.9525 C   0  0  0  0  0  0  0  0  0  0  0  0
    1.5803   -0.2304    2.1189 O   0  0  0  0  0  0  0  0  0  0  0  0
   -0.4170    0.3858    2.9541 N   0  0  0  0  0  0  0  0  0  0  0  0
   -1.3850    0.5669    2.7398 H   0  0  0  0  0  0  0  0  0  0  0  0
    0.0265    0.5600    4.3358 C   0  0  0  0  0  0  0  0  0  0  0  0
    0.8964    1.2200    4.3632 H   0  0  0  0  0  0  0  0  0  0  0  0
   -0.7726    0.9946    4.9382 H   0  0  0  0  0  0  0  0  0  0  0  0
    0.3119   -0.4069    4.7547 H   0  0  0  0  0  0  0  0  0  0  0  0
  5  6  2  0  0  0  0
  5  7  1  0  0  0  0
  2  3  1  0  0  0  0
  2  4  1  0  0  0  0
  2  5  1  0  0  0  0
  1  2  1  0  0  0  0
 24 25  2  0  0  0  0
 24 26  1  0  0  0  0
 20 21  1  0  0  0  0
 20 22  1  0  0  0  0
 20 23  1  0  0  0  0
 17 18  1  0  0  0  0
 17 19  1  0  0  0  0
 17 20  1  0  0  0  0
 13 14  1  0  0  0  0
 13 15  1  0  0  0  0
 13 16  1  0  0  0  0
 11 12  1  0  0  0  0
 11 13  1  0  0  0  0
 11 17  1  0  0  0  0
  9 10  1  0  0  0  0
  9 11  1  0  0  0  0
  9 24  1  0  0  0  0
  7  8  1  0  0  0  0
  7  9  1  0  0  0  0
 28 29  1  0  0  0  0
 28 30  1  0  0  0  0
 28 31  1  0  0  0  0
 26 27  1  0  0  0  0
 26 28  1  0  0  0  0
M  END
$$$$
default_name
  -OEChem-02102213163D

 31 30  0     1  0  0  0  0  0999 V2000
   -3.0760   -3.6390    1.5496 H   0  0  0  0  0  0  0  0  0  0  0  0
   -3.0940   -2.6290    1.1426 C   0  0  0  0  0  0  0  0  0  0  0  0
   -3.7160   -1.9930    1.7706 H   0  0  0  0  0  0  0  0  0  0  0  0
   -3.4880   -2.6500    0.1286 H   0  0  0  0  0  0  0  0  0  0  0  0
   -1.6860   -2.0850    1.1196 C   0  0  0  0  0  0  0  0  0  0  0  0
   -0.7540   -2.7700    1.5226 O   0  0  0  0  0  0  0  0  0  0  0  0
   -1.5320   -0.8490    0.6496 N   0  0  0  0  0  0  0  0  0  0  0  0
   -2.3500   -0.3360    0.3566 H   0  0  0  0  0  0  0  0  0  0  0  0
   -0.2470   -0.1410    0.5576 C   0  0  1  0  0  0  0  0  0  0  0  0
    0.4239   -0.7541   -0.0450 H   0  0  0  0  0  0  0  0  0  0  0  0
   -0.4317    1.2160   -0.1683 C   0  0  1  0  0  0  0  0  0  0  0  0
   -1.0086    1.0202   -1.0742 H   0  0  0  0  0  0  0  0  0  0  0  0
   -1.2196    2.2338    0.6783 C   0  0  0  0  0  0  0  0  0  0  0  0
   -0.6485    2.5214    1.5628 H   0  0  0  0  0  0  0  0  0  0  0  0
   -1.4392    3.1244    0.0916 H   0  0  0  0  0  0  0  0  0  0  0  0
   -2.1693    1.8030    0.9976 H   0  0  0  0  0  0  0  0  0  0  0  0
    0.9302    1.7995   -0.6070 C   0  0  0  0  0  0  0  0  0  0  0  0
    1.0430    1.7090   -1.6881 H   0  0  0  0  0  0  0  0  0  0  0  0
    0.9580    2.8578   -0.3476 H   0  0  0  0  0  0  0  0  0  0  0  0
    2.1349    1.1308    0.0688 C   0  0  0  0  0  0  0  0  0  0  0  0
    2.2185    0.0897   -0.2425 H   0  0  0  0  0  0  0  0  0  0  0  0
    3.0462    1.6538   -0.2218 H   0  0  0  0  0  0  0  0  0  0  0  0
    2.0289    1.1796    1.1531 H   0  0  0  0  0  0  0  0  0  0  0  0
    0.3833   -0.0008    1.9525 C   0  0  0  0  0  0  0  0  0  0  0  0
    1.5803   -0.2304    2.1189 O   0  0  0  0  0  0  0  0  0  0  0  0
   -0.4170    0.3858    2.9541 N   0  0  0  0  0  0  0  0  0  0  0  0
   -1.3850    0.5669    2.7398 H   0  0  0  0  0  0  0  0  0  0  0  0
    0.0265    0.5600    4.3358 C   0  0  0  0  0  0  0  0  0  0  0  0
    0.8964    1.2200    4.3632 H   0  0  0  0  0  0  0  0  0  0  0  0
   -0.7726    0.9946    4.9382 H   0  0  0  0  0  0  0  0  0  0  0  0
    0.3119   -0.4069    4.7547 H   0  0  0  0  0  0  0  0  0  0  0  0
  5  6  2  0  0  0  0
  5  7  1  0  0  0  0
  2  3  1  0  0  0  0
  2  4  1  0  0  0  0
  2  5  1  0  0  0  0
  1  2  1  0  0  0  0
 24 25  2  0  0  0  0
 24 26  1  0  0  0  0
 20 21  1  0  0  0  0
 20 22  1  0  0  0  0
 20 23  1  0  0  0  0
 17 18  1  0  0  0  0
 17 19  1  0  0  0  0
 17 20  1  0  0  0  0
 13 14  1  0  0  0  0
 13 15  1  0  0  0  0
 13 16  1  0  0  0  0
 11 12  1  0  0  0  0
 11 13  1  0  0  0  0
 11 17  1  0  0  0  0
  9 10  1  0  0  0  0
  9 11  1  0  0  0  0
  9 24  1  0  0  0  0
  7  8  1  0  0  0  0
  7  9  1  0  0  0  0
 28 29  1  0  0  0  0
 28 30  1  0  0  0  0
 28 31  1  0  0  0  0
 26 27  1  0  0  0  0
 26 28  1  0  0  0  0
M  END
$$$$
default_name
  -OEChem-02102213163D

 31 30  0     1  0  0  0  0  0999 V2000
   -3.0760   -3.6390    1.5496 H   0  0  0  0  0  0  0  0  0  0  0  0
   -3.0940   -2.6290    1.1426 C   0  0  0  0  0  0  0  0  0  0  0  0
   -3.7160   -1.9930    1.7706 H   0  0  0  0  0  0  0  0  0  0  0  0
   -3.4880   -2.6500    0.1286 H   0  0  0  0  0  0  0  0  0  0  0  0
   -1.6860   -2.0850    1.1196 C   0  0  0  0  0  0  0  0  0  0  0  0
   -0.7540   -2.7700    1.5226 O   0  0  0  0  0  0  0  0  0  0  0  0
   -1.5320   -0.8490    0.6496 N   0  0  0  0  0  0  0  0  0  0  0  0
   -2.3500   -0.3360    0.3566 H   0  0  0  0  0  0  0  0  0  0  0  0
   -0.2470   -0.1410    0.5576 C   0  0  1  0  0  0  0  0  0  0  0  0
    0.4239   -0.7541   -0.0450 H   0  0  0  0  0  0  0  0  0  0  0  0
   -0.4317    1.2160   -0.1683 C   0  0  1  0  0  0  0  0  0  0  0  0
   -1.0086    1.0202   -1.0742 H   0  0  0  0  0  0  0  0  0  0  0  0
   -1.2196    2.2338    0.6783 C   0  0  0  0  0  0  0  0  0  0  0  0
   -0.6485    2.5214    1.5628 H   0  0  0  0  0  0  0  0  0  0  0  0
   -1.4392    3.1244    0.0916 H   0  0  0  0  0  0  0  0  0  0  0  0
   -2.1693    1.8030    0.9976 H   0  0  0  0  0  0  0  0  0  0  0  0
    0.9302    1.7995   -0.6070 C   0  0  0  0  0  0  0  0  0  0  0  0
    0.9380    1.9552   -1.6866 H   0  0  0  0  0  0  0  0  0  0  0  0
    1.0707    2.7651   -0.1211 H   0  0  0  0  0  0  0  0  0  0  0  0
    2.1293    0.9188   -0.2305 C   0  0  0  0  0  0  0  0  0  0  0  0
    2.0963   -0.0249   -0.7746 H   0  0  0  0  0  0  0  0  0  0  0  0
    3.0521    1.4373   -0.4915 H   0  0  0  0  0  0  0  0  0  0  0  0
    2.1250    0.7215    0.8421 H   0  0  0  0  0  0  0  0  0  0  0  0
    0.3833   -0.0008    1.9525 C   0  0  0  0  0  0  0  0  0  0  0  0
    1.5803   -0.2304    2.1189 O   0  0  0  0  0  0  0  0  0  0  0  0
   -0.4170    0.3858    2.9541 N   0  0  0  0  0  0  0  0  0  0  0  0
   -1.3850    0.5669    2.7398 H   0  0  0  0  0  0  0  0  0  0  0  0
    0.0265    0.5600    4.3358 C   0  0  0  0  0  0  0  0  0  0  0  0
    0.8964    1.2200    4.3632 H   0  0  0  0  0  0  0  0  0  0  0  0
   -0.7726    0.9946    4.9382 H   0  0  0  0  0  0  0  0  0  0  0  0
    0.3119   -0.4069    4.7547 H   0  0  0  0  0  0  0  0  0  0  0  0
  5  6  2  0  0  0  0
  5  7  1  0  0  0  0
  2  3  1  0  0  0  0
  2  4  1  0  0  0  0
  2  5  1  0  0  0  0
  1  2  1  0  0  0  0
 24 25  2  0  0  0  0
 24 26  1  0  0  0  0
 20 21  1  0  0  0  0
 20 22  1  0  0  0  0
 20 23  1  0  0  0  0
 17 18  1  0  0  0  0
 17 19  1  0  0  0  0
 17 20  1  0  0  0  0
 13 14  1  0  0  0  0
 13 15  1  0  0  0  0
 13 16  1  0  0  0  0
 11 12  1  0  0  0  0
 11 13  1  0  0  0  0
 11 17  1  0  0  0  0
  9 10  1  0  0  0  0
  9 11  1  0  0  0  0
  9 24  1  0  0  0  0
  7  8  1  0  0  0  0
  7  9  1  0  0  0  0
 28 29  1  0  0  0  0
 28 30  1  0  0  0  0
 28 31  1  0  0  0  0
 26 27  1  0  0  0  0
 26 28  1  0  0  0  0
M  END
$$$$
default_name
  -OEChem-02102213163D

 31 30  0     1  0  0  0  0  0999 V2000
   -3.0760   -3.6390    1.5496 H   0  0  0  0  0  0  0  0  0  0  0  0
   -3.0940   -2.6290    1.1426 C   0  0  0  0  0  0  0  0  0  0  0  0
   -3.7160   -1.9930    1.7706 H   0  0  0  0  0  0  0  0  0  0  0  0
   -3.4880   -2.6500    0.1286 H   0  0  0  0  0  0  0  0  0  0  0  0
   -1.6860   -2.0850    1.1196 C   0  0  0  0  0  0  0  0  0  0  0  0
   -0.7540   -2.7700    1.5226 O   0  0  0  0  0  0  0  0  0  0  0  0
   -1.5320   -0.8490    0.6496 N   0  0  0  0  0  0  0  0  0  0  0  0
   -2.3500   -0.3360    0.3566 H   0  0  0  0  0  0  0  0  0  0  0  0
   -0.2470   -0.1410    0.5576 C   0  0  1  0  0  0  0  0  0  0  0  0
    0.4239   -0.7541   -0.0450 H   0  0  0  0  0  0  0  0  0  0  0  0
   -0.4317    1.2160   -0.1683 C   0  0  1  0  0  0  0  0  0  0  0  0
   -1.0086    1.0202   -1.0742 H   0  0  0  0  0  0  0  0  0  0  0  0
   -1.2196    2.2338    0.6783 C   0  0  0  0  0  0  0  0  0  0  0  0
   -0.6485    2.5214    1.5628 H   0  0  0  0  0  0  0  0  0  0  0  0
   -1.4392    3.1244    0.0916 H   0  0  0  0  0  0  0  0  0  0  0  0
   -2.1693    1.8030    0.9976 H   0  0  0  0  0  0  0  0  0  0  0  0
    0.9302    1.7995   -0.6070 C   0  0  0  0  0  0  0  0  0  0  0  0
    0.8548    2.2004   -1.6186 H   0  0  0  0  0  0  0  0  0  0  0  0
    1.1949    2.6155    0.0654 H   0  0  0  0  0  0  0  0  0  0  0  0
    2.0791    0.7828   -0.5674 C   0  0  0  0  0  0  0  0  0  0  0  0
    1.9177   -0.0052   -1.3028 H   0  0  0  0  0  0  0  0  0  0  0  0
    3.0156    1.2893   -0.8019 H   0  0  0  0  0  0  0  0  0  0  0  0
    2.1538    0.3429    0.4277 H   0  0  0  0  0  0  0  0  0  0  0  0
    0.3833   -0.0008    1.9525 C   0  0  0  0  0  0  0  0  0  0  0  0
    1.5803   -0.2304    2.1189 O   0  0  0  0  0  0  0  0  0  0  0  0
   -0.4170    0.3858    2.9541 N   0  0  0  0  0  0  0  0  0  0  0  0
   -1.3850    0.5669    2.7398 H   0  0  0  0  0  0  0  0  0  0  0  0
    0.0265    0.5600    4.3358 C   0  0  0  0  0  0  0  0  0  0  0  0
    0.8964    1.2200    4.3632 H   0  0  0  0  0  0  0  0  0  0  0  0
   -0.7726    0.9946    4.9382 H   0  0  0  0  0  0  0  0  0  0  0  0
    0.3119   -0.4069    4.7547 H   0  0  0  0  0  0  0  0  0  0  0  0
  5  6  2  0  0  0  0
  5  7  1  0  0  0  0
  2  3  1  0  0  0  0
  2  4  1  0  0  0  0
  2  5  1  0  0  0  0
  1  2  1  0  0  0  0
 24 25  2  0  0  0  0
 24 26  1  0  0  0  0
 20 21  1  0  0  0  0
 20 22  1  0  0  0  0
 20 23  1  0  0  0  0
 17 18  1  0  0  0  0
 17 19  1  0  0  0  0
 17 20  1  0  0  0  0
 13 14  1  0  0  0  0
 13 15  1  0  0  0  0
 13 16  1  0  0  0  0
 11 12  1  0  0  0  0
 11 13  1  0  0  0  0
 11 17  1  0  0  0  0
  9 10  1  0  0  0  0
  9 11  1  0  0  0  0
  9 24  1  0  0  0  0
  7  8  1  0  0  0  0
  7  9  1  0  0  0  0
 28 29  1  0  0  0  0
 28 30  1  0  0  0  0
 28 31  1  0  0  0  0
 26 27  1  0  0  0  0
 26 28  1  0  0  0  0
M  END
$$$$
default_name
  -OEChem-02102213163D

 31 30  0     1  0  0  0  0  0999 V2000
   -3.0760   -3.6390    1.5496 H   0  0  0  0  0  0  0  0  0  0  0  0
   -3.0940   -2.6290    1.1426 C   0  0  0  0  0  0  0  0  0  0  0  0
   -3.7160   -1.9930    1.7706 H   0  0  0  0  0  0  0  0  0  0  0  0
   -3.4880   -2.6500    0.1286 H   0  0  0  0  0  0  0  0  0  0  0  0
   -1.6860   -2.0850    1.1196 C   0  0  0  0  0  0  0  0  0  0  0  0
   -0.7540   -2.7700    1.5226 O   0  0  0  0  0  0  0  0  0  0  0  0
   -1.5320   -0.8490    0.6496 N   0  0  0  0  0  0  0  0  0  0  0  0
   -2.3500   -0.3360    0.3566 H   0  0  0  0  0  0  0  0  0  0  0  0
   -0.2470   -0.1410    0.5576 C   0  0  1  0  0  0  0  0  0  0  0  0
    0.4239   -0.7541   -0.0450 H   0  0  0  0  0  0  0  0  0  0  0  0
   -0.4317    1.2160   -0.1683 C   0  0  1  0  0  0  0  0  0  0  0  0
   -1.0086    1.0202   -1.0742 H   0  0  0  0  0  0  0  0  0  0  0  0
   -1.2196    2.2338    0.6783 C   0  0  0  0  0  0  0  0  0  0  0  0
   -0.6485    2.5214    1.5628 H   0  0  0  0  0  0  0  0  0  0  0  0
   -1.4392    3.1244    0.0916 H   0  0  0  0  0  0  0  0  0  0  0  0
   -2.1693    1.8030    0.9976 H   0  0  0  0  0  0  0  0  0  0  0  0
    0.9302    1.7995   -0.6070 C   0  0  0  0  0  0  0  0  0  0  0  0
    0.7991    2.4279   -1.4889 H   0  0  0  0  0  0  0  0  0  0  0  0
    1.3221    2.4194    0.1994 H   0  0  0  0  0  0  0  0  0  0  0  0
    1.9876    0.7320   -0.9189 C   0  0  0  0  0  0  0  0  0  0  0  0
    1.6950    0.1474   -1.7910 H   0  0  0  0  0  0  0  0  0  0  0  0
    2.9390    1.2198   -1.1319 H   0  0  0  0  0  0  0  0  0  0  0  0
    2.1133    0.0696   -0.0617 H   0  0  0  0  0  0  0  0  0  0  0  0
    0.3833   -0.0008    1.9525 C   0  0  0  0  0  0  0  0  0  0  0  0
    1.5803   -0.2304    2.1189 O   0  0  0  0  0  0  0  0  0  0  0  0
   -0.4170    0.3858    2.9541 N   0  0  0  0  0  0  0  0  0  0  0  0
   -1.3850    0.5669    2.7398 H   0  0  0  0  0  0  0  0  0  0  0  0
    0.0265    0.5600    4.3358 C   0  0  0  0  0  0  0  0  0  0  0  0
    0.8964    1.2200    4.3632 H   0  0  0  0  0  0  0  0  0  0  0  0
   -0.7726    0.9946    4.9382 H   0  0  0  0  0  0  0  0  0  0  0  0
    0.3119   -0.4069    4.7547 H   0  0  0  0  0  0  0  0  0  0  0  0
  5  6  2  0  0  0  0
  5  7  1  0  0  0  0
  2  3  1  0  0  0  0
  2  4  1  0  0  0  0
  2  5  1  0  0  0  0
  1  2  1  0  0  0  0
 24 25  2  0  0  0  0
 24 26  1  0  0  0  0
 20 21  1  0  0  0  0
 20 22  1  0  0  0  0
 20 23  1  0  0  0  0
 17 18  1  0  0  0  0
 17 19  1  0  0  0  0
 17 20  1  0  0  0  0
 13 14  1  0  0  0  0
 13 15  1  0  0  0  0
 13 16  1  0  0  0  0
 11 12  1  0  0  0  0
 11 13  1  0  0  0  0
 11 17  1  0  0  0  0
  9 10  1  0  0  0  0
  9 11  1  0  0  0  0
  9 24  1  0  0  0  0
  7  8  1  0  0  0  0
  7  9  1  0  0  0  0
 28 29  1  0  0  0  0
 28 30  1  0  0  0  0
 28 31  1  0  0  0  0
 26 27  1  0  0  0  0
 26 28  1  0  0  0  0
M  END
$$$$
default_name
  -OEChem-02102213163D

 31 30  0     1  0  0  0  0  0999 V2000
   -3.0760   -3.6390    1.5496 H   0  0  0  0  0  0  0  0  0  0  0  0
   -3.0940   -2.6290    1.1426 C   0  0  0  0  0  0  0  0  0  0  0  0
   -3.7160   -1.9930    1.7706 H   0  0  0  0  0  0  0  0  0  0  0  0
   -3.4880   -2.6500    0.1286 H   0  0  0  0  0  0  0  0  0  0  0  0
   -1.6860   -2.0850    1.1196 C   0  0  0  0  0  0  0  0  0  0  0  0
   -0.7540   -2.7700    1.5226 O   0  0  0  0  0  0  0  0  0  0  0  0
   -1.5320   -0.8490    0.6496 N   0  0  0  0  0  0  0  0  0  0  0  0
   -2.3500   -0.3360    0.3566 H   0  0  0  0  0  0  0  0  0  0  0  0
   -0.2470   -0.1410    0.5576 C   0  0  1  0  0  0  0  0  0  0  0  0
    0.4239   -0.7541   -0.0450 H   0  0  0  0  0  0  0  0  0  0  0  0
   -0.4317    1.2160   -0.1683 C   0  0  1  0  0  0  0  0  0  0  0  0
   -1.0086    1.0202   -1.0742 H   0  0  0  0  0  0  0  0  0  0  0  0
   -1.2196    2.2338    0.6783 C   0  0  0  0  0  0  0  0  0  0  0  0
   -0.6485    2.5214    1.5628 H   0  0  0  0  0  0  0  0  0  0  0  0
   -1.4392    3.1244    0.0916 H   0  0  0  0  0  0  0  0  0  0  0  0
   -2.1693    1.8030    0.9976 H   0  0  0  0  0  0  0  0  0  0  0  0
    0.9302    1.7995   -0.6070 C   0  0  0  0  0  0  0  0  0  0  0  0
    0.7747    2.6221   -1.3064 H   0  0  0  0  0  0  0  0  0  0  0  0
    1.4436    2.1901    0.2716 H   0  0  0  0  0  0  0  0  0  0  0  0
    1.8612    0.7697   -1.2612 C   0  0  0  0  0  0  0  0  0  0  0  0
    1.4434    0.4226   -2.2060 H   0  0  0  0  0  0  0  0  0  0  0  0
    2.8277    1.2336   -1.4591 H   0  0  0  0  0  0  0  0  0  0  0  0
    2.0062   -0.0797   -0.5928 H   0  0  0  0  0  0  0  0  0  0  0  0
    0.3833   -0.0008    1.9525 C   0  0  0  0  0  0  0  0  0  0  0  0
    1.5803   -0.2304    2.1189 O   0  0  0  0  0  0  0  0  0  0  0  0
   -0.4170    0.3858    2.9541 N   0  0  0  0  0  0  0  0  0  0  0  0
   -1.3850    0.5669    2.7398 H   0  0  0  0  0  0  0  0  0  0  0  0
    0.0265    0.5600    4.3358 C   0  0  0  0  0  0  0  0  0  0  0  0
    0.8964    1.2200    4.3632 H   0  0  0  0  0  0  0  0  0  0  0  0
   -0.7726    0.9946    4.9382 H   0  0  0  0  0  0  0  0  0  0  0  0
    0.3119   -0.4069    4.7547 H   0  0  0  0  0  0  0  0  0  0  0  0
  5  6  2  0  0  0  0
  5  7  1  0  0  0  0
  2  3  1  0  0  0  0
  2  4  1  0  0  0  0
  2  5  1  0  0  0  0
  1  2  1  0  0  0  0
 24 25  2  0  0  0  0
 24 26  1  0  0  0  0
 20 21  1  0  0  0  0
 20 22  1  0  0  0  0
 20 23  1  0  0  0  0
 17 18  1  0  0  0  0
 17 19  1  0  0  0  0
 17 20  1  0  0  0  0
 13 14  1  0  0  0  0
 13 15  1  0  0  0  0
 13 16  1  0  0  0  0
 11 12  1  0  0  0  0
 11 13  1  0  0  0  0
 11 17  1  0  0  0  0
  9 10  1  0  0  0  0
  9 11  1  0  0  0  0
  9 24  1  0  0  0  0
  7  8  1  0  0  0  0
  7  9  1  0  0  0  0
 28 29  1  0  0  0  0
 28 30  1  0  0  0  0
 28 31  1  0  0  0  0
 26 27  1  0  0  0  0
 26 28  1  0  0  0  0
M  END
$$$$
default_name
  -OEChem-02102213163D

 31 30  0     1  0  0  0  0  0999 V2000
   -3.0760   -3.6390    1.5496 H   0  0  0  0  0  0  0  0  0  0  0  0
   -3.0940   -2.6290    1.1426 C   0  0  0  0  0  0  0  0  0  0  0  0
   -3.7160   -1.9930    1.7706 H   0  0  0  0  0  0  0  0  0  0  0  0
   -3.4880   -2.6500    0.1286 H   0  0  0  0  0  0  0  0  0  0  0  0
   -1.6860   -2.0850    1.1196 C   0  0  0  0  0  0  0  0  0  0  0  0
   -0.7540   -2.7700    1.5226 O   0  0  0  0  0  0  0  0  0  0  0  0
   -1.5320   -0.8490    0.6496 N   0  0  0  0  0  0  0  0  0  0  0  0
   -2.3500   -0.3360    0.3566 H   0  0  0  0  0  0  0  0  0  0  0  0
   -0.2470   -0.1410    0.5576 C   0  0  1  0  0  0  0  0  0  0  0  0
    0.4239   -0.7541   -0.0450 H   0  0  0  0  0  0  0  0  0  0  0  0
   -0.4317    1.2160   -0.1683 C   0  0  1  0  0  0  0  0  0  0  0  0
   -1.0086    1.0202   -1.0742 H   0  0  0  0  0  0  0  0  0  0  0  0
   -1.2196    2.2338    0.6783 C   0  0  0  0  0  0  0  0  0  0  0  0
   -0.6485    2.5214    1.5628 H   0  0  0  0  0  0  0  0  0  0  0  0
   -1.4392    3.1244    0.0916 H   0  0  0  0  0  0  0  0  0  0  0  0
   -2.1693    1.8030    0.9976 H   0  0  0  0  0  0  0  0  0  0  0  0
    0.9302    1.7995   -0.6070 C   0  0  0  0  0  0  0  0  0  0  0  0
    0.7832    2.7698   -1.0833 H   0  0  0  0  0  0  0  0  0  0  0  0
    1.5512    1.9432    0.2772 H   0  0  0  0  0  0  0  0  0  0  0  0
    1.7084    0.8936   -1.5708 C   0  0  0  0  0  0  0  0  0  0  0  0
    1.1801    0.8015   -2.5195 H   0  0  0  0  0  0  0  0  0  0  0  0
    2.6893    1.3298   -1.7611 H   0  0  0  0  0  0  0  0  0  0  0  0
    1.8399   -0.0949   -1.1294 H   0  0  0  0  0  0  0  0  0  0  0  0
    0.3833   -0.0008    1.9525 C   0  0  0  0  0  0  0  0  0  0  0  0
    1.5803   -0.2304    2.1189 O   0  0  0  0  0  0  0  0  0  0  0  0
   -0.4170    0.3858    2.9541 N   0  0  0  0  0  0  0  0  0  0  0  0
   -1.3850    0.5669    2.7398 H   0  0  0  0  0  0  0  0  0  0  0  0
    0.0265    0.5600    4.3358 C   0  0  0  0  0  0  0  0  0  0  0  0
    0.8964    1.2200    4.3632 H   0  0  0  0  0  0  0  0  0  0  0  0
   -0.7726    0.9946    4.9382 H   0  0  0  0  0  0  0  0  0  0  0  0
    0.3119   -0.4069    4.7547 H   0  0  0  0  0  0  0  0  0  0  0  0
  5  6  2  0  0  0  0
  5  7  1  0  0  0  0
  2  3  1  0  0  0  0
  2  4  1  0  0  0  0
  2  5  1  0  0  0  0
  1  2  1  0  0  0  0
 24 25  2  0  0  0  0
 24 26  1  0  0  0  0
 20 21  1  0  0  0  0
 20 22  1  0  0  0  0
 20 23  1  0  0  0  0
 17 18  1  0  0  0  0
 17 19  1  0  0  0  0
 17 20  1  0  0  0  0
 13 14  1  0  0  0  0
 13 15  1  0  0  0  0
 13 16  1  0  0  0  0
 11 12  1  0  0  0  0
 11 13  1  0  0  0  0
 11 17  1  0  0  0  0
  9 10  1  0  0  0  0
  9 11  1  0  0  0  0
  9 24  1  0  0  0  0
  7  8  1  0  0  0  0
  7  9  1  0  0  0  0
 28 29  1  0  0  0  0
 28 30  1  0  0  0  0
 28 31  1  0  0  0  0
 26 27  1  0  0  0  0
 26 28  1  0  0  0  0
M  END
$$$$
default_name
  -OEChem-02102213163D

 31 30  0     1  0  0  0  0  0999 V2000
   -3.0760   -3.6390    1.5496 H   0  0  0  0  0  0  0  0  0  0  0  0
   -3.0940   -2.6290    1.1426 C   0  0  0  0  0  0  0  0  0  0  0  0
   -3.7160   -1.9930    1.7706 H   0  0  0  0  0  0  0  0  0  0  0  0
   -3.4880   -2.6500    0.1286 H   0  0  0  0  0  0  0  0  0  0  0  0
   -1.6860   -2.0850    1.1196 C   0  0  0  0  0  0  0  0  0  0  0  0
   -0.7540   -2.7700    1.5226 O   0  0  0  0  0  0  0  0  0  0  0  0
   -1.5320   -0.8490    0.6496 N   0  0  0  0  0  0  0  0  0  0  0  0
   -2.3500   -0.3360    0.3566 H   0  0  0  0  0  0  0  0  0  0  0  0
   -0.2470   -0.1410    0.5576 C   0  0  1  0  0  0  0  0  0  0  0  0
    0.4239   -0.7541   -0.0450 H   0  0  0  0  0  0  0  0  0  0  0  0
   -0.4317    1.2160   -0.1683 C   0  0  1  0  0  0  0  0  0  0  0  0
   -1.0086    1.0202   -1.0742 H   0  0  0  0  0  0  0  0  0  0  0  0
   -1.2196    2.2338    0.6783 C   0  0  0  0  0  0  0  0  0  0  0  0
   -0.6485    2.5214    1.5628 H   0  0  0  0  0  0  0  0  0  0  0  0
   -1.4392    3.1244    0.0916 H   0  0  0  0  0  0  0  0  0  0  0  0
   -2.1693    1.8030    0.9976 H   0  0  0  0  0  0  0  0  0  0  0  0
    0.9302    1.7995   -0.6070 C   0  0  0  0  0  0  0  0  0  0  0  0
    0.8241    2.8610   -0.8350 H   0  0  0  0  0  0  0  0  0  0  0  0
    1.6376    1.6955    0.2157 H   0  0  0  0  0  0  0  0  0  0  0  0
    1.5396    1.0951   -1.8266 C   0  0  0  0  0  0  0  0  0  0  0  0
    0.9229    1.2584   -2.7102 H   0  0  0  0  0  0  0  0  0  0  0  0
    2.5331    1.5017   -2.0173 H   0  0  0  0  0  0  0  0  0  0  0  0
    1.6257    0.0250   -1.6349 H   0  0  0  0  0  0  0  0  0  0  0  0
    0.3833   -0.0008    1.9525 C   0  0  0  0  0  0  0  0  0  0  0  0
    1.5803   -0.2304    2.1189 O   0  0  0  0  0  0  0  0  0  0  0  0
   -0.4170    0.3858    2.9541 N   0  0  0  0  0  0  0  0  0  0  0  0
   -1.3850    0.5669    2.7398 H   0  0  0  0  0  0  0  0  0  0  0  0
    0.0265    0.5600    4.3358 C   0  0  0  0  0  0  0  0  0  0  0  0
    0.8964    1.2200    4.3632 H   0  0  0  0  0  0  0  0  0  0  0  0
   -0.7726    0.9946    4.9382 H   0  0  0  0  0  0  0  0  0  0  0  0
    0.3119   -0.4069    4.7547 H   0  0  0  0  0  0  0  0  0  0  0  0
  5  6  2  0  0  0  0
  5  7  1  0  0  0  0
  2  3  1  0  0  0  0
  2  4  1  0  0  0  0
  2  5  1  0  0  0  0
  1  2  1  0  0  0  0
 24 25  2  0  0  0  0
 24 26  1  0  0  0  0
 20 21  1  0  0  0  0
 20 22  1  0  0  0  0
 20 23  1  0  0  0  0
 17 18  1  0  0  0  0
 17 19  1  0  0  0  0
 17 20  1  0  0  0  0
 13 14  1  0  0  0  0
 13 15  1  0  0  0  0
 13 16  1  0  0  0  0
 11 12  1  0  0  0  0
 11 13  1  0  0  0  0
 11 17  1  0  0  0  0
  9 10  1  0  0  0  0
  9 11  1  0  0  0  0
  9 24  1  0  0  0  0
  7  8  1  0  0  0  0
  7  9  1  0  0  0  0
 28 29  1  0  0  0  0
 28 30  1  0  0  0  0
 28 31  1  0  0  0  0
 26 27  1  0  0  0  0
 26 28  1  0  0  0  0
M  END
$$$$
default_name
  -OEChem-02102213163D

 31 30  0     1  0  0  0  0  0999 V2000
   -3.0760   -3.6390    1.5496 H   0  0  0  0  0  0  0  0  0  0  0  0
   -3.0940   -2.6290    1.1426 C   0  0  0  0  0  0  0  0  0  0  0  0
   -3.7160   -1.9930    1.7706 H   0  0  0  0  0  0  0  0  0  0  0  0
   -3.4880   -2.6500    0.1286 H   0  0  0  0  0  0  0  0  0  0  0  0
   -1.6860   -2.0850    1.1196 C   0  0  0  0  0  0  0  0  0  0  0  0
   -0.7540   -2.7700    1.5226 O   0  0  0  0  0  0  0  0  0  0  0  0
   -1.5320   -0.8490    0.6496 N   0  0  0  0  0  0  0  0  0  0  0  0
   -2.3500   -0.3360    0.3566 H   0  0  0  0  0  0  0  0  0  0  0  0
   -0.2470   -0.1410    0.5576 C   0  0  1  0  0  0  0  0  0  0  0  0
    0.4239   -0.7541   -0.0450 H   0  0  0  0  0  0  0  0  0  0  0  0
   -0.4317    1.2160   -0.1683 C   0  0  1  0  0  0  0  0  0  0  0  0
   -1.0086    1.0202   -1.0742 H   0  0  0  0  0  0  0  0  0  0  0  0
   -1.2196    2.2338    0.6783 C   0  0  0  0  0  0  0  0  0  0  0  0
   -0.6485    2.5214    1.5628 H   0  0  0  0  0  0  0  0  0  0  0  0
   -1.4392    3.1244    0.0916 H   0  0  0  0  0  0  0  0  0  0  0  0
   -2.1693    1.8030    0.9976 H   0  0  0  0  0  0  0  0  0  0  0  0
    0.9302    1.7995   -0.6070 C   0  0  0  0  0  0  0  0  0  0  0  0
    0.8946    2.8894   -0.5783 H   0  0  0  0  0  0  0  0  0  0  0  0
    1.6968    1.4639    0.0914 H   0  0  0  0  0  0  0  0  0  0  0  0
    1.3664    1.3605   -2.0113 C   0  0  0  0  0  0  0  0  0  0  0  0
    0.6894    1.7621   -2.7650 H   0  0  0  0  0  0  0  0  0  0  0  0
    2.3698    1.7377   -2.2104 H   0  0  0  0  0  0  0  0  0  0  0  0
    1.3782    0.2718   -2.0750 H   0  0  0  0  0  0  0  0  0  0  0  0
    0.3833   -0.0008    1.9525 C   0  0  0  0  0  0  0  0  0  0  0  0
    1.5803   -0.2304    2.1189 O   0  0  0  0  0  0  0  0  0  0  0  0
   -0.4170    0.3858    2.9541 N   0  0  0  0  0  0  0  0  0  0  0  0
   -1.3850    0.5669    2.7398 H   0  0  0  0  0  0  0  0  0  0  0  0
    0.0265    0.5600    4.3358 C   0  0  0  0  0  0  0  0  0  0  0  0
    0.8964    1.2200    4.3632 H   0  0  0  0  0  0  0  0  0  0  0  0
   -0.7726    0.9946    4.9382 H   0  0  0  0  0  0  0  0  0  0  0  0
    0.3119   -0.4069    4.7547 H   0  0  0  0  0  0  0  0  0  0  0  0
  5  6  2  0  0  0  0
  5  7  1  0  0  0  0
  2  3  1  0  0  0  0
  2  4  1  0  0  0  0
  2  5  1  0  0  0  0
  1  2  1  0  0  0  0
 24 25  2  0  0  0  0
 24 26  1  0  0  0  0
 20 21  1  0  0  0  0
 20 22  1  0  0  0  0
 20 23  1  0  0  0  0
 17 18  1  0  0  0  0
 17 19  1  0  0  0  0
 17 20  1  0  0  0  0
 13 14  1  0  0  0  0
 13 15  1  0  0  0  0
 13 16  1  0  0  0  0
 11 12  1  0  0  0  0
 11 13  1  0  0  0  0
 11 17  1  0  0  0  0
  9 10  1  0  0  0  0
  9 11  1  0  0  0  0
  9 24  1  0  0  0  0
  7  8  1  0  0  0  0
  7  9  1  0  0  0  0
 28 29  1  0  0  0  0
 28 30  1  0  0  0  0
 28 31  1  0  0  0  0
 26 27  1  0  0  0  0
 26 28  1  0  0  0  0
M  END
$$$$
default_name
  -OEChem-02102213163D

 31 30  0     1  0  0  0  0  0999 V2000
   -3.0760   -3.6390    1.5496 H   0  0  0  0  0  0  0  0  0  0  0  0
   -3.0940   -2.6290    1.1426 C   0  0  0  0  0  0  0  0  0  0  0  0
   -3.7160   -1.9930    1.7706 H   0  0  0  0  0  0  0  0  0  0  0  0
   -3.4880   -2.6500    0.1286 H   0  0  0  0  0  0  0  0  0  0  0  0
   -1.6860   -2.0850    1.1196 C   0  0  0  0  0  0  0  0  0  0  0  0
   -0.7540   -2.7700    1.5226 O   0  0  0  0  0  0  0  0  0  0  0  0
   -1.5320   -0.8490    0.6496 N   0  0  0  0  0  0  0  0  0  0  0  0
   -2.3500   -0.3360    0.3566 H   0  0  0  0  0  0  0  0  0  0  0  0
   -0.2470   -0.1410    0.5576 C   0  0  1  0  0  0  0  0  0  0  0  0
    0.4239   -0.7541   -0.0450 H   0  0  0  0  0  0  0  0  0  0  0  0
   -0.4317    1.2160   -0.1683 C   0  0  1  0  0  0  0  0  0  0  0  0
   -1.0086    1.0202   -1.0742 H   0  0  0  0  0  0  0  0  0  0  0  0
   -1.2196    2.2338    0.6783 C   0  0  0  0  0  0  0  0  0  0  0  0
   -0.6485    2.5214    1.5628 H   0  0  0  0  0  0  0  0  0  0  0  0
   -1.4392    3.1244    0.0916 H   0  0  0  0  0  0  0  0  0  0  0  0
   -2.1693    1.8030    0.9976 H   0  0  0  0  0  0  0  0  0  0  0  0
    0.9302    1.7995   -0.6070 C   0  0  0  0  0  0  0  0  0  0  0  0
    0.9899    2.8531   -0.3308 H   0  0  0  0  0  0  0  0  0  0  0  0
    1.7248    1.2642   -0.0873 H   0  0  0  0  0  0  0  0  0  0  0  0
    1.2006    1.6717   -2.1122 C   0  0  0  0  0  0  0  0  0  0  0  0
    0.4955    2.2783   -2.6802 H   0  0  0  0  0  0  0  0  0  0  0  0
    2.2105    2.0217   -2.3270 H   0  0  0  0  0  0  0  0  0  0  0  0
    1.1142    0.6289   -2.4195 H   0  0  0  0  0  0  0  0  0  0  0  0
    0.3833   -0.0008    1.9525 C   0  0  0  0  0  0  0  0  0  0  0  0
    1.5803   -0.2304    2.1189 O   0  0  0  0  0  0  0  0  0  0  0  0
   -0.4170    0.3858    2.9541 N   0  0  0  0  0  0  0  0  0  0  0  0
   -1.3850    0.5669    2.7398 H   0  0  0  0  0  0  0  0  0  0  0  0
    0.0265    0.5600    4.3358 C   0  0  0  0  0  0  0  0  0  0  0  0
    0.8964    1.2200    4.3632 H   0  0  0  0  0  0  0  0  0  0  0  0
   -0.7726    0.9946    4.9382 H   0  0  0  0  0  0  0  0  0  0  0  0
    0.3119   -0.4069    4.7547 H   0  0  0  0  0  0  0  0  0  0  0  0
  5  6  2  0  0  0  0
  5  7  1  0  0  0  0
  2  3  1  0  0  0  0
  2  4  1  0  0  0  0
  2  5  1  0  0  0  0
  1  2  1  0  0  0  0
 24 25  2  0  0  0  0
 24 26  1  0  0  0  0
 20 21  1  0  0  0  0
 20 22  1  0  0  0  0
 20 23  1  0  0  0  0
 17 18  1  0  0  0  0
 17 19  1  0  0  0  0
 17 20  1  0  0  0  0
 13 14  1  0  0  0  0
 13 15  1  0  0  0  0
 13 16  1  0  0  0  0
 11 12  1  0  0  0  0
 11 13  1  0  0  0  0
 11 17  1  0  0  0  0
  9 10  1  0  0  0  0
  9 11  1  0  0  0  0
  9 24  1  0  0  0  0
  7  8  1  0  0  0  0
  7  9  1  0  0  0  0
 28 29  1  0  0  0  0
 28 30  1  0  0  0  0
 28 31  1  0  0  0  0
 26 27  1  0  0  0  0
 26 28  1  0  0  0  0
M  END
$$$$
default_name
  -OEChem-02102213163D

 31 30  0     1  0  0  0  0  0999 V2000
   -3.0760   -3.6390    1.5496 H   0  0  0  0  0  0  0  0  0  0  0  0
   -3.0940   -2.6290    1.1426 C   0  0  0  0  0  0  0  0  0  0  0  0
   -3.7160   -1.9930    1.7706 H   0  0  0  0  0  0  0  0  0  0  0  0
   -3.4880   -2.6500    0.1286 H   0  0  0  0  0  0  0  0  0  0  0  0
   -1.6860   -2.0850    1.1196 C   0  0  0  0  0  0  0  0  0  0  0  0
   -0.7540   -2.7700    1.5226 O   0  0  0  0  0  0  0  0  0  0  0  0
   -1.5320   -0.8490    0.6496 N   0  0  0  0  0  0  0  0  0  0  0  0
   -2.3500   -0.3360    0.3566 H   0  0  0  0  0  0  0  0  0  0  0  0
   -0.2470   -0.1410    0.5576 C   0  0  1  0  0  0  0  0  0  0  0  0
    0.4239   -0.7541   -0.0450 H   0  0  0  0  0  0  0  0  0  0  0  0
   -0.4317    1.2160   -0.1683 C   0  0  1  0  0  0  0  0  0  0  0  0
   -1.0086    1.0202   -1.0742 H   0  0  0  0  0  0  0  0  0  0  0  0
   -1.2196    2.2338    0.6783 C   0  0  0  0  0  0  0  0  0  0  0  0
   -0.6485    2.5214    1.5628 H   0  0  0  0  0  0  0  0  0  0  0  0
   -1.4392    3.1244    0.0916 H   0  0  0  0  0  0  0  0  0  0  0  0
   -2.1693    1.8030    0.9976 H   0  0  0  0  0  0  0  0  0  0  0  0
    0.9302    1.7995   -0.6070 C   0  0  0  0  0  0  0  0  0  0  0  0
    1.1034    2.7546   -0.1093 H   0  0  0  0  0  0  0  0  0  0  0  0
    1.7197    1.1101   -0.3082 H   0  0  0  0  0  0  0  0  0  0  0  0
    1.0534    2.0075   -2.1225 C   0  0  0  0  0  0  0  0  0  0  0  0
    0.3544    2.7719   -2.4616 H   0  0  0  0  0  0  0  0  0  0  0  0
    2.0661    2.3343   -2.3593 H   0  0  0  0  0  0  0  0  0  0  0  0
    0.8518    1.0717   -2.6450 H   0  0  0  0  0  0  0  0  0  0  0  0
    0.3833   -0.0008    1.9525 C   0  0  0  0  0  0  0  0  0  0  0  0
    1.5803   -0.2304    2.1189 O   0  0  0  0  0  0  0  0  0  0  0  0
   -0.4170    0.3858    2.9541 N   0  0  0  0  0  0  0  0  0  0  0  0
   -1.3850    0.5669    2.7398 H   0  0  0  0  0  0  0  0  0  0  0  0
    0.0265    0.5600    4.3358 C   0  0  0  0  0  0  0  0  0  0  0  0
    0.8964    1.2200    4.3632 H   0  0  0  0  0  0  0  0  0  0  0  0
   -0.7726    0.9946    4.9382 H   0  0  0  0  0  0  0  0  0  0  0  0
    0.3119   -0.4069    4.7547 H   0  0  0  0  0  0  0  0  0  0  0  0
  5  6  2  0  0  0  0
  5  7  1  0  0  0  0
  2  3  1  0  0  0  0
  2  4  1  0  0  0  0
  2  5  1  0  0  0  0
  1  2  1  0  0  0  0
 24 25  2  0  0  0  0
 24 26  1  0  0  0  0
 20 21  1  0  0  0  0
 20 22  1  0  0  0  0
 20 23  1  0  0  0  0
 17 18  1  0  0  0  0
 17 19  1  0  0  0  0
 17 20  1  0  0  0  0
 13 14  1  0  0  0  0
 13 15  1  0  0  0  0
 13 16  1  0  0  0  0
 11 12  1  0  0  0  0
 11 13  1  0  0  0  0
 11 17  1  0  0  0  0
  9 10  1  0  0  0  0
  9 11  1  0  0  0  0
  9 24  1  0  0  0  0
  7  8  1  0  0  0  0
  7  9  1  0  0  0  0
 28 29  1  0  0  0  0
 28 30  1  0  0  0  0
 28 31  1  0  0  0  0
 26 27  1  0  0  0  0
 26 28  1  0  0  0  0
M  END
$$$$
default_name
  -OEChem-02102213163D

 31 30  0     1  0  0  0  0  0999 V2000
   -3.0760   -3.6390    1.5496 H   0  0  0  0  0  0  0  0  0  0  0  0
   -3.0940   -2.6290    1.1426 C   0  0  0  0  0  0  0  0  0  0  0  0
   -3.7160   -1.9930    1.7706 H   0  0  0  0  0  0  0  0  0  0  0  0
   -3.4880   -2.6500    0.1286 H   0  0  0  0  0  0  0  0  0  0  0  0
   -1.6860   -2.0850    1.1196 C   0  0  0  0  0  0  0  0  0  0  0  0
   -0.7540   -2.7700    1.5226 O   0  0  0  0  0  0  0  0  0  0  0  0
   -1.5320   -0.8490    0.6496 N   0  0  0  0  0  0  0  0  0  0  0  0
   -2.3500   -0.3360    0.3566 H   0  0  0  0  0  0  0  0  0  0  0  0
   -0.2470   -0.1410    0.5576 C   0  0  1  0  0  0  0  0  0  0  0  0
    0.4239   -0.7541   -0.0450 H   0  0  0  0  0  0  0  0  0  0  0  0
   -0.4317    1.2160   -0.1683 C   0  0  1  0  0  0  0  0  0  0  0  0
   -1.0086    1.0202   -1.0742 H   0  0  0  0  0  0  0  0  0  0  0  0
   -1.2196    2.2338    0.6783 C   0  0  0  0  0  0  0  0  0  0  0  0
   -0.6485    2.5214    1.5628 H   0  0  0  0  0  0  0  0  0  0  0  0
   -1.4392    3.1244    0.0916 H   0  0  0  0  0  0  0  0  0  0  0  0
   -2.1693    1.8030    0.9976 H   0  0  0  0  0  0  0  0  0  0  0  0
    0.9302    1.7995   -0.6070 C   0  0  0  0  0  0  0  0  0  0  0  0
    1.2275    2.6006    0.0711 H   0  0  0  0  0  0  0  0  0  0  0  0
    1.6819    1.0119   -0.5562 H   0  0  0  0  0  0  0  0  0  0  0  0
    0.9348    2.3450   -2.0414 C   0  0  0  0  0  0  0  0  0  0  0  0
    0.2758    3.2091   -2.1240 H   0  0  0  0  0  0  0  0  0  0  0  0
    1.9465    2.6542   -2.3051 H   0  0  0  0  0  0  0  0  0  0  0  0
    0.6088    1.5702   -2.7362 H   0  0  0  0  0  0  0  0  0  0  0  0
    0.3833   -0.0008    1.9525 C   0  0  0  0  0  0  0  0  0  0  0  0
    1.5803   -0.2304    2.1189 O   0  0  0  0  0  0  0  0  0  0  0  0
   -0.4170    0.3858    2.9541 N   0  0  0  0  0  0  0  0  0  0  0  0
   -1.3850    0.5669    2.7398 H   0  0  0  0  0  0  0  0  0  0  0  0
    0.0265    0.5600    4.3358 C   0  0  0  0  0  0  0  0  0  0  0  0
    0.8964    1.2200    4.3632 H   0  0  0  0  0  0  0  0  0  0  0  0
   -0.7726    0.9946    4.9382 H   0  0  0  0  0  0  0  0  0  0  0  0
    0.3119   -0.4069    4.7547 H   0  0  0  0  0  0  0  0  0  0  0  0
  5  6  2  0  0  0  0
  5  7  1  0  0  0  0
  2  3  1  0  0  0  0
  2  4  1  0  0  0  0
  2  5  1  0  0  0  0
  1  2  1  0  0  0  0
 24 25  2  0  0  0  0
 24 26  1  0  0  0  0
 20 21  1  0  0  0  0
 20 22  1  0  0  0  0
 20 23  1  0  0  0  0
 17 18  1  0  0  0  0
 17 19  1  0  0  0  0
 17 20  1  0  0  0  0
 13 14  1  0  0  0  0
 13 15  1  0  0  0  0
 13 16  1  0  0  0  0
 11 12  1  0  0  0  0
 11 13  1  0  0  0  0
 11 17  1  0  0  0  0
  9 10  1  0  0  0  0
  9 11  1  0  0  0  0
  9 24  1  0  0  0  0
  7  8  1  0  0  0  0
  7  9  1  0  0  0  0
 28 29  1  0  0  0  0
 28 30  1  0  0  0  0
 28 31  1  0  0  0  0
 26 27  1  0  0  0  0
 26 28  1  0  0  0  0
M  END
$$$$
default_name
  -OEChem-02102213163D

 31 30  0     1  0  0  0  0  0999 V2000
   -3.0760   -3.6390    1.5496 H   0  0  0  0  0  0  0  0  0  0  0  0
   -3.0940   -2.6290    1.1426 C   0  0  0  0  0  0  0  0  0  0  0  0
   -3.7160   -1.9930    1.7706 H   0  0  0  0  0  0  0  0  0  0  0  0
   -3.4880   -2.6500    0.1286 H   0  0  0  0  0  0  0  0  0  0  0  0
   -1.6860   -2.0850    1.1196 C   0  0  0  0  0  0  0  0  0  0  0  0
   -0.7540   -2.7700    1.5226 O   0  0  0  0  0  0  0  0  0  0  0  0
   -1.5320   -0.8490    0.6496 N   0  0  0  0  0  0  0  0  0  0  0  0
   -2.3500   -0.3360    0.3566 H   0  0  0  0  0  0  0  0  0  0  0  0
   -0.2470   -0.1410    0.5576 C   0  0  1  0  0  0  0  0  0  0  0  0
    0.4239   -0.7541   -0.0450 H   0  0  0  0  0  0  0  0  0  0  0  0
   -0.4317    1.2160   -0.1683 C   0  0  1  0  0  0  0  0  0  0  0  0
   -1.0086    1.0202   -1.0742 H   0  0  0  0  0  0  0  0  0  0  0  0
   -1.2196    2.2338    0.6783 C   0  0  0  0  0  0  0  0  0  0  0  0
   -0.6485    2.5214    1.5628 H   0  0  0  0  0  0  0  0  0  0  0  0
   -1.4392    3.1244    0.0916 H   0  0  0  0  0  0  0  0  0  0  0  0
   -2.1693    1.8030    0.9976 H   0  0  0  0  0  0  0  0  0  0  0  0
    0.9302    1.7995   -0.6070 C   0  0  0  0  0  0  0  0  0  0  0  0
    1.3537    2.4016    0.1980 H   0  0  0  0  0  0  0  0  0  0  0  0
    1.6139    0.9764   -0.8145 H   0  0  0  0  0  0  0  0  0  0  0  0
    0.8531    2.6612   -1.8746 C   0  0  0  0  0  0  0  0  0  0  0  0
    0.2650    3.5601   -1.6906 H   0  0  0  0  0  0  0  0  0  0  0  0
    1.8597    2.9597   -2.1681 H   0  0  0  0  0  0  0  0  0  0  0  0
    0.4018    2.0904   -2.6868 H   0  0  0  0  0  0  0  0  0  0  0  0
    0.3833   -0.0008    1.9525 C   0  0  0  0  0  0  0  0  0  0  0  0
    1.5803   -0.2304    2.1189 O   0  0  0  0  0  0  0  0  0  0  0  0
   -0.4170    0.3858    2.9541 N   0  0  0  0  0  0  0  0  0  0  0  0
   -1.3850    0.5669    2.7398 H   0  0  0  0  0  0  0  0  0  0  0  0
    0.0265    0.5600    4.3358 C   0  0  0  0  0  0  0  0  0  0  0  0
    0.8964    1.2200    4.3632 H   0  0  0  0  0  0  0  0  0  0  0  0
   -0.7726    0.9946    4.9382 H   0  0  0  0  0  0  0  0  0  0  0  0
    0.3119   -0.4069    4.7547 H   0  0  0  0  0  0  0  0  0  0  0  0
  5  6  2  0  0  0  0
  5  7  1  0  0  0  0
  2  3  1  0  0  0  0
  2  4  1  0  0  0  0
  2  5  1  0  0  0  0
  1  2  1  0  0  0  0
 24 25  2  0  0  0  0
 24 26  1  0  0  0  0
 20 21  1  0  0  0  0
 20 22  1  0  0  0  0
 20 23  1  0  0  0  0
 17 18  1  0  0  0  0
 17 19  1  0  0  0  0
 17 20  1  0  0  0  0
 13 14  1  0  0  0  0
 13 15  1  0  0  0  0
 13 16  1  0  0  0  0
 11 12  1  0  0  0  0
 11 13  1  0  0  0  0
 11 17  1  0  0  0  0
  9 10  1  0  0  0  0
  9 11  1  0  0  0  0
  9 24  1  0  0  0  0
  7  8  1  0  0  0  0
  7  9  1  0  0  0  0
 28 29  1  0  0  0  0
 28 30  1  0  0  0  0
 28 31  1  0  0  0  0
 26 27  1  0  0  0  0
 26 28  1  0  0  0  0
M  END
$$$$
default_name
  -OEChem-02102213163D

 31 30  0     1  0  0  0  0  0999 V2000
   -3.0760   -3.6390    1.5496 H   0  0  0  0  0  0  0  0  0  0  0  0
   -3.0940   -2.6290    1.1426 C   0  0  0  0  0  0  0  0  0  0  0  0
   -3.7160   -1.9930    1.7706 H   0  0  0  0  0  0  0  0  0  0  0  0
   -3.4880   -2.6500    0.1286 H   0  0  0  0  0  0  0  0  0  0  0  0
   -1.6860   -2.0850    1.1196 C   0  0  0  0  0  0  0  0  0  0  0  0
   -0.7540   -2.7700    1.5226 O   0  0  0  0  0  0  0  0  0  0  0  0
   -1.5320   -0.8490    0.6496 N   0  0  0  0  0  0  0  0  0  0  0  0
   -2.3500   -0.3360    0.3566 H   0  0  0  0  0  0  0  0  0  0  0  0
   -0.2470   -0.1410    0.5576 C   0  0  1  0  0  0  0  0  0  0  0  0
    0.4239   -0.7541   -0.0450 H   0  0  0  0  0  0  0  0  0  0  0  0
   -0.4317    1.2160   -0.1683 C   0  0  1  0  0  0  0  0  0  0  0  0
   -1.0086    1.0202   -1.0742 H   0  0  0  0  0  0  0  0  0  0  0  0
   -1.2196    2.2338    0.6783 C   0  0  0  0  0  0  0  0  0  0  0  0
   -0.6485    2.5214    1.5628 H   0  0  0  0  0  0  0  0  0  0  0  0
   -1.4392    3.1244    0.0916 H   0  0  0  0  0  0  0  0  0  0  0  0
   -2.1693    1.8030    0.9976 H   0  0  0  0  0  0  0  0  0  0  0  0
    0.9302    1.7995   -0.6070 C   0  0  0  0  0  0  0  0  0  0  0  0
    1.4733    2.1712    0.2629 H   0  0  0  0  0  0  0  0  0  0  0  0
    1.5203    1.0061   -1.0654 H   0  0  0  0  0  0  0  0  0  0  0  0
    0.8136    2.9346   -1.6333 C   0  0  0  0  0  0  0  0  0  0  0  0
    0.3227    3.8012   -1.1908 H   0  0  0  0  0  0  0  0  0  0  0  0
    1.8118    3.2298   -1.9576 H   0  0  0  0  0  0  0  0  0  0  0  0
    0.2449    2.5967   -2.5003 H   0  0  0  0  0  0  0  0  0  0  0  0
    0.3833   -0.0008    1.9525 C   0  0  0  0  0  0  0  0  0  0  0  0
    1.5803   -0.2304    2.1189 O   0  0  0  0  0  0  0  0  0  0  0  0
   -0.4170    0.3858    2.9541 N   0  0  0  0  0  0  0  0  0  0  0  0
   -1.3850    0.5669    2.7398 H   0  0  0  0  0  0  0  0  0  0  0  0
    0.0265    0.5600    4.3358 C   0  0  0  0  0  0  0  0  0  0  0  0
    0.8964    1.2200    4.3632 H   0  0  0  0  0  0  0  0  0  0  0  0
   -0.7726    0.9946    4.9382 H   0  0  0  0  0  0  0  0  0  0  0  0
    0.3119   -0.4069    4.7547 H   0  0  0  0  0  0  0  0  0  0  0  0
  5  6  2  0  0  0  0
  5  7  1  0  0  0  0
  2  3  1  0  0  0  0
  2  4  1  0  0  0  0
  2  5  1  0  0  0  0
  1  2  1  0  0  0  0
 24 25  2  0  0  0  0
 24 26  1  0  0  0  0
 20 21  1  0  0  0  0
 20 22  1  0  0  0  0
 20 23  1  0  0  0  0
 17 18  1  0  0  0  0
 17 19  1  0  0  0  0
 17 20  1  0  0  0  0
 13 14  1  0  0  0  0
 13 15  1  0  0  0  0
 13 16  1  0  0  0  0
 11 12  1  0  0  0  0
 11 13  1  0  0  0  0
 11 17  1  0  0  0  0
  9 10  1  0  0  0  0
  9 11  1  0  0  0  0
  9 24  1  0  0  0  0
  7  8  1  0  0  0  0
  7  9  1  0  0  0  0
 28 29  1  0  0  0  0
 28 30  1  0  0  0  0
 28 31  1  0  0  0  0
 26 27  1  0  0  0  0
 26 28  1  0  0  0  0
M  END
$$$$
default_name
  -OEChem-02102213163D

 31 30  0     1  0  0  0  0  0999 V2000
   -3.0760   -3.6390    1.5496 H   0  0  0  0  0  0  0  0  0  0  0  0
   -3.0940   -2.6290    1.1426 C   0  0  0  0  0  0  0  0  0  0  0  0
   -3.7160   -1.9930    1.7706 H   0  0  0  0  0  0  0  0  0  0  0  0
   -3.4880   -2.6500    0.1286 H   0  0  0  0  0  0  0  0  0  0  0  0
   -1.6860   -2.0850    1.1196 C   0  0  0  0  0  0  0  0  0  0  0  0
   -0.7540   -2.7700    1.5226 O   0  0  0  0  0  0  0  0  0  0  0  0
   -1.5320   -0.8490    0.6496 N   0  0  0  0  0  0  0  0  0  0  0  0
   -2.3500   -0.3360    0.3566 H   0  0  0  0  0  0  0  0  0  0  0  0
   -0.2470   -0.1410    0.5576 C   0  0  1  0  0  0  0  0  0  0  0  0
    0.4239   -0.7541   -0.0450 H   0  0  0  0  0  0  0  0  0  0  0  0
   -0.4317    1.2160   -0.1683 C   0  0  1  0  0  0  0  0  0  0  0  0
   -1.2192    1.0784   -0.9118 H   0  0  0  0  0  0  0  0  0  0  0  0
   -0.8799    2.3383    0.7872 C   0  0  0  0  0  0  0  0  0  0  0  0
   -0.0920    2.5673    1.5070 H   0  0  0  0  0  0  0  0  0  0  0  0
   -1.1214    3.2393    0.2256 H   0  0  0  0  0  0  0  0  0  0  0  0
   -1.7754    2.0348    1.3307 H   0  0  0  0  0  0  0  0  0  0  0  0
    0.8529    1.6176   -0.9274 C   0  0  0  0  0  0  0  0  0  0  0  0
    1.6924    1.6758   -0.2334 H   0  0  0  0  0  0  0  0  0  0  0  0
    1.0754    0.8513   -1.6700 H   0  0  0  0  0  0  0  0  0  0  0  0
    0.7380    2.9555   -1.6705 C   0  0  0  0  0  0  0  0  0  0  0  0
    0.6211    3.7766   -0.9635 H   0  0  0  0  0  0  0  0  0  0  0  0
    1.6459    3.1237   -2.2502 H   0  0  0  0  0  0  0  0  0  0  0  0
   -0.1161    2.9337   -2.3483 H   0  0  0  0  0  0  0  0  0  0  0  0
    0.3833   -0.0008    1.9525 C   0  0  0  0  0  0  0  0  0  0  0  0
    1.5803   -0.2304    2.1189 O   0  0  0  0  0  0  0  0  0  0  0  0
   -0.4170    0.3858    2.9541 N   0  0  0  0  0  0  0  0  0  0  0  0
   -1.3850    0.5669    2.7398 H   0  0  0  0  0  0  0  0  0  0  0  0
    0.0265    0.5600    4.3358 C   0  0  0  0  0  0  0  0  0  0  0  0
    0.8964    1.2200    4.3632 H   0  0  0  0  0  0  0  0  0  0  0  0
   -0.7726    0.9946    4.9382 H   0  0  0  0  0  0  0  0  0  0  0  0
    0.3119   -0.4069    4.7547 H   0  0  0  0  0  0  0  0  0  0  0  0
  5  6  2  0  0  0  0
  5  7  1  0  0  0  0
  2  3  1  0  0  0  0
  2  4  1  0  0  0  0
  2  5  1  0  0  0  0
  1  2  1  0  0  0  0
 24 25  2  0  0  0  0
 24 26  1  0  0  0  0
 20 21  1  0  0  0  0
 20 22  1  0  0  0  0
 20 23  1  0  0  0  0
 17 18  1  0  0  0  0
 17 19  1  0  0  0  0
 17 20  1  0  0  0  0
 13 14  1  0  0  0  0
 13 15  1  0  0  0  0
 13 16  1  0  0  0  0
 11 12  1  0  0  0  0
 11 13  1  0  0  0  0
 11 17  1  0  0  0  0
  9 10  1  0  0  0  0
  9 11  1  0  0  0  0
  9 24  1  0  0  0  0
  7  8  1  0  0  0  0
  7  9  1  0  0  0  0
 28 29  1  0  0  0  0
 28 30  1  0  0  0  0
 28 31  1  0  0  0  0
 26 27  1  0  0  0  0
 26 28  1  0  0  0  0
M  END
$$$$
default_name
  -OEChem-02102213163D

 31 30  0     1  0  0  0  0  0999 V2000
   -3.0760   -3.6390    1.5496 H   0  0  0  0  0  0  0  0  0  0  0  0
   -3.0940   -2.6290    1.1426 C   0  0  0  0  0  0  0  0  0  0  0  0
   -3.7160   -1.9930    1.7706 H   0  0  0  0  0  0  0  0  0  0  0  0
   -3.4880   -2.6500    0.1286 H   0  0  0  0  0  0  0  0  0  0  0  0
   -1.6860   -2.0850    1.1196 C   0  0  0  0  0  0  0  0  0  0  0  0
   -0.7540   -2.7700    1.5226 O   0  0  0  0  0  0  0  0  0  0  0  0
   -1.5320   -0.8490    0.6496 N   0  0  0  0  0  0  0  0  0  0  0  0
   -2.3500   -0.3360    0.3566 H   0  0  0  0  0  0  0  0  0  0  0  0
   -0.2470   -0.1410    0.5576 C   0  0  1  0  0  0  0  0  0  0  0  0
    0.4239   -0.7541   -0.0450 H   0  0  0  0  0  0  0  0  0  0  0  0
   -0.4317    1.2160   -0.1683 C   0  0  1  0  0  0  0  0  0  0  0  0
   -1.2192    1.0784   -0.9118 H   0  0  0  0  0  0  0  0  0  0  0  0
   -0.8799    2.3383    0.7872 C   0  0  0  0  0  0  0  0  0  0  0  0
   -0.0920    2.5673    1.5070 H   0  0  0  0  0  0  0  0  0  0  0  0
   -1.1214    3.2393    0.2256 H   0  0  0  0  0  0  0  0  0  0  0  0
   -1.7754    2.0348    1.3307 H   0  0  0  0  0  0  0  0  0  0  0  0
    0.8529    1.6176   -0.9274 C   0  0  0  0  0  0  0  0  0  0  0  0
    1.7284    1.4210   -0.3073 H   0  0  0  0  0  0  0  0  0  0  0  0
    0.9304    1.0120   -1.8304 H   0  0  0  0  0  0  0  0  0  0  0  0
    0.8796    3.0898   -1.3599 C   0  0  0  0  0  0  0  0  0  0  0  0
    0.9121    3.7437   -0.4886 H   0  0  0  0  0  0  0  0  0  0  0  0
    1.7696    3.2713   -1.9629 H   0  0  0  0  0  0  0  0  0  0  0  0
   -0.0046    3.3198   -1.9554 H   0  0  0  0  0  0  0  0  0  0  0  0
    0.3833   -0.0008    1.9525 C   0  0  0  0  0  0  0  0  0  0  0  0
    1.5803   -0.2304    2.1189 O   0  0  0  0  0  0  0  0  0  0  0  0
   -0.4170    0.3858    2.9541 N   0  0  0  0  0  0  0  0  0  0  0  0
   -1.3850    0.5669    2.7398 H   0  0  0  0  0  0  0  0  0  0  0  0
    0.0265    0.5600    4.3358 C   0  0  0  0  0  0  0  0  0  0  0  0
    0.8964    1.2200    4.3632 H   0  0  0  0  0  0  0  0  0  0  0  0
   -0.7726    0.9946    4.9382 H   0  0  0  0  0  0  0  0  0  0  0  0
    0.3119   -0.4069    4.7547 H   0  0  0  0  0  0  0  0  0  0  0  0
  5  6  2  0  0  0  0
  5  7  1  0  0  0  0
  2  3  1  0  0  0  0
  2  4  1  0  0  0  0
  2  5  1  0  0  0  0
  1  2  1  0  0  0  0
 24 25  2  0  0  0  0
 24 26  1  0  0  0  0
 20 21  1  0  0  0  0
 20 22  1  0  0  0  0
 20 23  1  0  0  0  0
 17 18  1  0  0  0  0
 17 19  1  0  0  0  0
 17 20  1  0  0  0  0
 13 14  1  0  0  0  0
 13 15  1  0  0  0  0
 13 16  1  0  0  0  0
 11 12  1  0  0  0  0
 11 13  1  0  0  0  0
 11 17  1  0  0  0  0
  9 10  1  0  0  0  0
  9 11  1  0  0  0  0
  9 24  1  0  0  0  0
  7  8  1  0  0  0  0
  7  9  1  0  0  0  0
 28 29  1  0  0  0  0
 28 30  1  0  0  0  0
 28 31  1  0  0  0  0
 26 27  1  0  0  0  0
 26 28  1  0  0  0  0
M  END
$$$$
default_name
  -OEChem-02102213163D

 31 30  0     1  0  0  0  0  0999 V2000
   -3.0760   -3.6390    1.5496 H   0  0  0  0  0  0  0  0  0  0  0  0
   -3.0940   -2.6290    1.1426 C   0  0  0  0  0  0  0  0  0  0  0  0
   -3.7160   -1.9930    1.7706 H   0  0  0  0  0  0  0  0  0  0  0  0
   -3.4880   -2.6500    0.1286 H   0  0  0  0  0  0  0  0  0  0  0  0
   -1.6860   -2.0850    1.1196 C   0  0  0  0  0  0  0  0  0  0  0  0
   -0.7540   -2.7700    1.5226 O   0  0  0  0  0  0  0  0  0  0  0  0
   -1.5320   -0.8490    0.6496 N   0  0  0  0  0  0  0  0  0  0  0  0
   -2.3500   -0.3360    0.3566 H   0  0  0  0  0  0  0  0  0  0  0  0
   -0.2470   -0.1410    0.5576 C   0  0  1  0  0  0  0  0  0  0  0  0
    0.4239   -0.7541   -0.0450 H   0  0  0  0  0  0  0  0  0  0  0  0
   -0.4317    1.2160   -0.1683 C   0  0  1  0  0  0  0  0  0  0  0  0
   -1.2192    1.0784   -0.9118 H   0  0  0  0  0  0  0  0  0  0  0  0
   -0.8799    2.3383    0.7872 C   0  0  0  0  0  0  0  0  0  0  0  0
   -0.0920    2.5673    1.5070 H   0  0  0  0  0  0  0  0  0  0  0  0
   -1.1214    3.2393    0.2256 H   0  0  0  0  0  0  0  0  0  0  0  0
   -1.7754    2.0348    1.3307 H   0  0  0  0  0  0  0  0  0  0  0  0
    0.8529    1.6176   -0.9274 C   0  0  0  0  0  0  0  0  0  0  0  0
    1.7259    1.1862   -0.4358 H   0  0  0  0  0  0  0  0  0  0  0  0
    0.7999    1.2202   -1.9410 H   0  0  0  0  0  0  0  0  0  0  0  0
    1.0543    3.1348   -1.0406 C   0  0  0  0  0  0  0  0  0  0  0  0
    1.2209    3.5727   -0.0566 H   0  0  0  0  0  0  0  0  0  0  0  0
    1.9271    3.3362   -1.6619 H   0  0  0  0  0  0  0  0  0  0  0  0
    0.1785    3.5941   -1.5004 H   0  0  0  0  0  0  0  0  0  0  0  0
    0.3833   -0.0008    1.9525 C   0  0  0  0  0  0  0  0  0  0  0  0
    1.5803   -0.2304    2.1189 O   0  0  0  0  0  0  0  0  0  0  0  0
   -0.4170    0.3858    2.9541 N   0  0  0  0  0  0  0  0  0  0  0  0
   -1.3850    0.5669    2.7398 H   0  0  0  0  0  0  0  0  0  0  0  0
    0.0265    0.5600    4.3358 C   0  0  0  0  0  0  0  0  0  0  0  0
    0.8964    1.2200    4.3632 H   0  0  0  0  0  0  0  0  0  0  0  0
   -0.7726    0.9946    4.9382 H   0  0  0  0  0  0  0  0  0  0  0  0
    0.3119   -0.4069    4.7547 H   0  0  0  0  0  0  0  0  0  0  0  0
  5  6  2  0  0  0  0
  5  7  1  0  0  0  0
  2  3  1  0  0  0  0
  2  4  1  0  0  0  0
  2  5  1  0  0  0  0
  1  2  1  0  0  0  0
 24 25  2  0  0  0  0
 24 26  1  0  0  0  0
 20 21  1  0  0  0  0
 20 22  1  0  0  0  0
 20 23  1  0  0  0  0
 17 18  1  0  0  0  0
 17 19  1  0  0  0  0
 17 20  1  0  0  0  0
 13 14  1  0  0  0  0
 13 15  1  0  0  0  0
 13 16  1  0  0  0  0
 11 12  1  0  0  0  0
 11 13  1  0  0  0  0
 11 17  1  0  0  0  0
  9 10  1  0  0  0  0
  9 11  1  0  0  0  0
  9 24  1  0  0  0  0
  7  8  1  0  0  0  0
  7  9  1  0  0  0  0
 28 29  1  0  0  0  0
 28 30  1  0  0  0  0
 28 31  1  0  0  0  0
 26 27  1  0  0  0  0
 26 28  1  0  0  0  0
M  END
$$$$
default_name
  -OEChem-02102213163D

 31 30  0     1  0  0  0  0  0999 V2000
   -3.0760   -3.6390    1.5496 H   0  0  0  0  0  0  0  0  0  0  0  0
   -3.0940   -2.6290    1.1426 C   0  0  0  0  0  0  0  0  0  0  0  0
   -3.7160   -1.9930    1.7706 H   0  0  0  0  0  0  0  0  0  0  0  0
   -3.4880   -2.6500    0.1286 H   0  0  0  0  0  0  0  0  0  0  0  0
   -1.6860   -2.0850    1.1196 C   0  0  0  0  0  0  0  0  0  0  0  0
   -0.7540   -2.7700    1.5226 O   0  0  0  0  0  0  0  0  0  0  0  0
   -1.5320   -0.8490    0.6496 N   0  0  0  0  0  0  0  0  0  0  0  0
   -2.3500   -0.3360    0.3566 H   0  0  0  0  0  0  0  0  0  0  0  0
   -0.2470   -0.1410    0.5576 C   0  0  1  0  0  0  0  0  0  0  0  0
    0.4239   -0.7541   -0.0450 H   0  0  0  0  0  0  0  0  0  0  0  0
   -0.4317    1.2160   -0.1683 C   0  0  1  0  0  0  0  0  0  0  0  0
   -1.2192    1.0784   -0.9118 H   0  0  0  0  0  0  0  0  0  0  0  0
   -0.8799    2.3383    0.7872 C   0  0  0  0  0  0  0  0  0  0  0  0
   -0.0920    2.5673    1.5070 H   0  0  0  0  0  0  0  0  0  0  0  0
   -1.1214    3.2393    0.2256 H   0  0  0  0  0  0  0  0  0  0  0  0
   -1.7754    2.0348    1.3307 H   0  0  0  0  0  0  0  0  0  0  0  0
    0.8529    1.6176   -0.9274 C   0  0  0  0  0  0  0  0  0  0  0  0
    1.6849    0.9875   -0.6104 H   0  0  0  0  0  0  0  0  0  0  0  0
    0.6929    1.4617   -1.9943 H   0  0  0  0  0  0  0  0  0  0  0  0
    1.2502    3.0873   -0.7341 C   0  0  0  0  0  0  0  0  0  0  0  0
    1.5264    3.2754    0.3032 H   0  0  0  0  0  0  0  0  0  0  0  0
    2.1078    3.3141   -1.3678 H   0  0  0  0  0  0  0  0  0  0  0  0
    0.4209    3.7378   -1.0141 H   0  0  0  0  0  0  0  0  0  0  0  0
    0.3833   -0.0008    1.9525 C   0  0  0  0  0  0  0  0  0  0  0  0
    1.5803   -0.2304    2.1189 O   0  0  0  0  0  0  0  0  0  0  0  0
   -0.4170    0.3858    2.9541 N   0  0  0  0  0  0  0  0  0  0  0  0
   -1.3850    0.5669    2.7398 H   0  0  0  0  0  0  0  0  0  0  0  0
    0.0265    0.5600    4.3358 C   0  0  0  0  0  0  0  0  0  0  0  0
    0.8964    1.2200    4.3632 H   0  0  0  0  0  0  0  0  0  0  0  0
   -0.7726    0.9946    4.9382 H   0  0  0  0  0  0  0  0  0  0  0  0
    0.3119   -0.4069    4.7547 H   0  0  0  0  0  0  0  0  0  0  0  0
  5  6  2  0  0  0  0
  5  7  1  0  0  0  0
  2  3  1  0  0  0  0
  2  4  1  0  0  0  0
  2  5  1  0  0  0  0
  1  2  1  0  0  0  0
 24 25  2  0  0  0  0
 24 26  1  0  0  0  0
 20 21  1  0  0  0  0
 20 22  1  0  0  0  0
 20 23  1  0  0  0  0
 17 18  1  0  0  0  0
 17 19  1  0  0  0  0
 17 20  1  0  0  0  0
 13 14  1  0  0  0  0
 13 15  1  0  0  0  0
 13 16  1  0  0  0  0
 11 12  1  0  0  0  0
 11 13  1  0  0  0  0
 11 17  1  0  0  0  0
  9 10  1  0  0  0  0
  9 11  1  0  0  0  0
  9 24  1  0  0  0  0
  7  8  1  0  0  0  0
  7  9  1  0  0  0  0
 28 29  1  0  0  0  0
 28 30  1  0  0  0  0
 28 31  1  0  0  0  0
 26 27  1  0  0  0  0
 26 28  1  0  0  0  0
M  END
$$$$
default_name
  -OEChem-02102213163D

 31 30  0     1  0  0  0  0  0999 V2000
   -3.0760   -3.6390    1.5496 H   0  0  0  0  0  0  0  0  0  0  0  0
   -3.0940   -2.6290    1.1426 C   0  0  0  0  0  0  0  0  0  0  0  0
   -3.7160   -1.9930    1.7706 H   0  0  0  0  0  0  0  0  0  0  0  0
   -3.4880   -2.6500    0.1286 H   0  0  0  0  0  0  0  0  0  0  0  0
   -1.6860   -2.0850    1.1196 C   0  0  0  0  0  0  0  0  0  0  0  0
   -0.7540   -2.7700    1.5226 O   0  0  0  0  0  0  0  0  0  0  0  0
   -1.5320   -0.8490    0.6496 N   0  0  0  0  0  0  0  0  0  0  0  0
   -2.3500   -0.3360    0.3566 H   0  0  0  0  0  0  0  0  0  0  0  0
   -0.2470   -0.1410    0.5576 C   0  0  1  0  0  0  0  0  0  0  0  0
    0.4239   -0.7541   -0.0450 H   0  0  0  0  0  0  0  0  0  0  0  0
   -0.4317    1.2160   -0.1683 C   0  0  1  0  0  0  0  0  0  0  0  0
   -1.2192    1.0784   -0.9118 H   0  0  0  0  0  0  0  0  0  0  0  0
   -0.8799    2.3383    0.7872 C   0  0  0  0  0  0  0  0  0  0  0  0
   -0.0920    2.5673    1.5070 H   0  0  0  0  0  0  0  0  0  0  0  0
   -1.1214    3.2393    0.2256 H   0  0  0  0  0  0  0  0  0  0  0  0
   -1.7754    2.0348    1.3307 H   0  0  0  0  0  0  0  0  0  0  0  0
    0.8529    1.6176   -0.9274 C   0  0  0  0  0  0  0  0  0  0  0  0
    1.6083    0.8382   -0.8189 H   0  0  0  0  0  0  0  0  0  0  0  0
    0.6167    1.7200   -1.9866 H   0  0  0  0  0  0  0  0  0  0  0  0
    1.4540    2.9506   -0.4616 C   0  0  0  0  0  0  0  0  0  0  0  0
    1.8080    2.8719    0.5662 H   0  0  0  0  0  0  0  0  0  0  0  0
    2.2993    3.2066   -1.1007 H   0  0  0  0  0  0  0  0  0  0  0  0
    0.7060    3.7413   -0.5299 H   0  0  0  0  0  0  0  0  0  0  0  0
    0.3833   -0.0008    1.9525 C   0  0  0  0  0  0  0  0  0  0  0  0
    1.5803   -0.2304    2.1189 O   0  0  0  0  0  0  0  0  0  0  0  0
   -0.4170    0.3858    2.9541 N   0  0  0  0  0  0  0  0  0  0  0  0
   -1.3850    0.5669    2.7398 H   0  0  0  0  0  0  0  0  0  0  0  0
    0.0265    0.5600    4.3358 C   0  0  0  0  0  0  0  0  0  0  0  0
    0.8964    1.2200    4.3632 H   0  0  0  0  0  0  0  0  0  0  0  0
   -0.7726    0.9946    4.9382 H   0  0  0  0  0  0  0  0  0  0  0  0
    0.3119   -0.4069    4.7547 H   0  0  0  0  0  0  0  0  0  0  0  0
  5  6  2  0  0  0  0
  5  7  1  0  0  0  0
  2  3  1  0  0  0  0
  2  4  1  0  0  0  0
  2  5  1  0  0  0  0
  1  2  1  0  0  0  0
 24 25  2  0  0  0  0
 24 26  1  0  0  0  0
 20 21  1  0  0  0  0
 20 22  1  0  0  0  0
 20 23  1  0  0  0  0
 17 18  1  0  0  0  0
 17 19  1  0  0  0  0
 17 20  1  0  0  0  0
 13 14  1  0  0  0  0
 13 15  1  0  0  0  0
 13 16  1  0  0  0  0
 11 12  1  0  0  0  0
 11 13  1  0  0  0  0
 11 17  1  0  0  0  0
  9 10  1  0  0  0  0
  9 11  1  0  0  0  0
  9 24  1  0  0  0  0
  7  8  1  0  0  0  0
  7  9  1  0  0  0  0
 28 29  1  0  0  0  0
 28 30  1  0  0  0  0
 28 31  1  0  0  0  0
 26 27  1  0  0  0  0
 26 28  1  0  0  0  0
M  END
$$$$
default_name
  -OEChem-02102213163D

 31 30  0     1  0  0  0  0  0999 V2000
   -3.0760   -3.6390    1.5496 H   0  0  0  0  0  0  0  0  0  0  0  0
   -3.0940   -2.6290    1.1426 C   0  0  0  0  0  0  0  0  0  0  0  0
   -3.7160   -1.9930    1.7706 H   0  0  0  0  0  0  0  0  0  0  0  0
   -3.4880   -2.6500    0.1286 H   0  0  0  0  0  0  0  0  0  0  0  0
   -1.6860   -2.0850    1.1196 C   0  0  0  0  0  0  0  0  0  0  0  0
   -0.7540   -2.7700    1.5226 O   0  0  0  0  0  0  0  0  0  0  0  0
   -1.5320   -0.8490    0.6496 N   0  0  0  0  0  0  0  0  0  0  0  0
   -2.3500   -0.3360    0.3566 H   0  0  0  0  0  0  0  0  0  0  0  0
   -0.2470   -0.1410    0.5576 C   0  0  1  0  0  0  0  0  0  0  0  0
    0.4239   -0.7541   -0.0450 H   0  0  0  0  0  0  0  0  0  0  0  0
   -0.4317    1.2160   -0.1683 C   0  0  1  0  0  0  0  0  0  0  0  0
   -1.2192    1.0784   -0.9118 H   0  0  0  0  0  0  0  0  0  0  0  0
   -0.8799    2.3383    0.7872 C   0  0  0  0  0  0  0  0  0  0  0  0
   -0.0920    2.5673    1.5070 H   0  0  0  0  0  0  0  0  0  0  0  0
   -1.1214    3.2393    0.2256 H   0  0  0  0  0  0  0  0  0  0  0  0
   -1.7754    2.0348    1.3307 H   0  0  0  0  0  0  0  0  0  0  0  0
    0.8529    1.6176   -0.9274 C   0  0  0  0  0  0  0  0  0  0  0  0
    1.5013    0.7487   -1.0474 H   0  0  0  0  0  0  0  0  0  0  0  0
    0.5765    1.9775   -1.9184 H   0  0  0  0  0  0  0  0  0  0  0  0
    1.6518    2.7339   -0.2414 C   0  0  0  0  0  0  0  0  0  0  0  0
    2.0464    2.3897    0.7144 H   0  0  0  0  0  0  0  0  0  0  0  0
    2.4886    3.0209   -0.8787 H   0  0  0  0  0  0  0  0  0  0  0  0
    1.0145    3.6041   -0.0805 H   0  0  0  0  0  0  0  0  0  0  0  0
    0.3833   -0.0008    1.9525 C   0  0  0  0  0  0  0  0  0  0  0  0
    1.5803   -0.2304    2.1189 O   0  0  0  0  0  0  0  0  0  0  0  0
   -0.4170    0.3858    2.9541 N   0  0  0  0  0  0  0  0  0  0  0  0
   -1.3850    0.5669    2.7398 H   0  0  0  0  0  0  0  0  0  0  0  0
    0.0265    0.5600    4.3358 C   0  0  0  0  0  0  0  0  0  0  0  0
    0.8964    1.2200    4.3632 H   0  0  0  0  0  0  0  0  0  0  0  0
   -0.7726    0.9946    4.9382 H   0  0  0  0  0  0  0  0  0  0  0  0
    0.3119   -0.4069    4.7547 H   0  0  0  0  0  0  0  0  0  0  0  0
  5  6  2  0  0  0  0
  5  7  1  0  0  0  0
  2  3  1  0  0  0  0
  2  4  1  0  0  0  0
  2  5  1  0  0  0  0
  1  2  1  0  0  0  0
 24 25  2  0  0  0  0
 24 26  1  0  0  0  0
 20 21  1  0  0  0  0
 20 22  1  0  0  0  0
 20 23  1  0  0  0  0
 17 18  1  0  0  0  0
 17 19  1  0  0  0  0
 17 20  1  0  0  0  0
 13 14  1  0  0  0  0
 13 15  1  0  0  0  0
 13 16  1  0  0  0  0
 11 12  1  0  0  0  0
 11 13  1  0  0  0  0
 11 17  1  0  0  0  0
  9 10  1  0  0  0  0
  9 11  1  0  0  0  0
  9 24  1  0  0  0  0
  7  8  1  0  0  0  0
  7  9  1  0  0  0  0
 28 29  1  0  0  0  0
 28 30  1  0  0  0  0
 28 31  1  0  0  0  0
 26 27  1  0  0  0  0
 26 28  1  0  0  0  0
M  END
$$$$
default_name
  -OEChem-02102213163D

 31 30  0     1  0  0  0  0  0999 V2000
   -3.0760   -3.6390    1.5496 H   0  0  0  0  0  0  0  0  0  0  0  0
   -3.0940   -2.6290    1.1426 C   0  0  0  0  0  0  0  0  0  0  0  0
   -3.7160   -1.9930    1.7706 H   0  0  0  0  0  0  0  0  0  0  0  0
   -3.4880   -2.6500    0.1286 H   0  0  0  0  0  0  0  0  0  0  0  0
   -1.6860   -2.0850    1.1196 C   0  0  0  0  0  0  0  0  0  0  0  0
   -0.7540   -2.7700    1.5226 O   0  0  0  0  0  0  0  0  0  0  0  0
   -1.5320   -0.8490    0.6496 N   0  0  0  0  0  0  0  0  0  0  0  0
   -2.3500   -0.3360    0.3566 H   0  0  0  0  0  0  0  0  0  0  0  0
   -0.2470   -0.1410    0.5576 C   0  0  1  0  0  0  0  0  0  0  0  0
    0.4239   -0.7541   -0.0450 H   0  0  0  0  0  0  0  0  0  0  0  0
   -0.4317    1.2160   -0.1683 C   0  0  1  0  0  0  0  0  0  0  0  0
   -1.2192    1.0784   -0.9118 H   0  0  0  0  0  0  0  0  0  0  0  0
   -0.8799    2.3383    0.7872 C   0  0  0  0  0  0  0  0  0  0  0  0
   -0.0920    2.5673    1.5070 H   0  0  0  0  0  0  0  0  0  0  0  0
   -1.1214    3.2393    0.2256 H   0  0  0  0  0  0  0  0  0  0  0  0
   -1.7754    2.0348    1.3307 H   0  0  0  0  0  0  0  0  0  0  0  0
    0.8529    1.6176   -0.9274 C   0  0  0  0  0  0  0  0  0  0  0  0
    1.3712    0.7249   -1.2801 H   0  0  0  0  0  0  0  0  0  0  0  0
    0.5749    2.2167   -1.7945 H   0  0  0  0  0  0  0  0  0  0  0  0
    1.8302    2.4522   -0.0887 C   0  0  0  0  0  0  0  0  0  0  0  0
    2.2253    1.8618    0.7379 H   0  0  0  0  0  0  0  0  0  0  0  0
    2.6627    2.7696   -0.7169 H   0  0  0  0  0  0  0  0  0  0  0  0
    1.3251    3.3357    0.3032 H   0  0  0  0  0  0  0  0  0  0  0  0
    0.3833   -0.0008    1.9525 C   0  0  0  0  0  0  0  0  0  0  0  0
    1.5803   -0.2304    2.1189 O   0  0  0  0  0  0  0  0  0  0  0  0
   -0.4170    0.3858    2.9541 N   0  0  0  0  0  0  0  0  0  0  0  0
   -1.3850    0.5669    2.7398 H   0  0  0  0  0  0  0  0  0  0  0  0
    0.0265    0.5600    4.3358 C   0  0  0  0  0  0  0  0  0  0  0  0
    0.8964    1.2200    4.3632 H   0  0  0  0  0  0  0  0  0  0  0  0
   -0.7726    0.9946    4.9382 H   0  0  0  0  0  0  0  0  0  0  0  0
    0.3119   -0.4069    4.7547 H   0  0  0  0  0  0  0  0  0  0  0  0
  5  6  2  0  0  0  0
  5  7  1  0  0  0  0
  2  3  1  0  0  0  0
  2  4  1  0  0  0  0
  2  5  1  0  0  0  0
  1  2  1  0  0  0  0
 24 25  2  0  0  0  0
 24 26  1  0  0  0  0
 20 21  1  0  0  0  0
 20 22  1  0  0  0  0
 20 23  1  0  0  0  0
 17 18  1  0  0  0  0
 17 19  1  0  0  0  0
 17 20  1  0  0  0  0
 13 14  1  0  0  0  0
 13 15  1  0  0  0  0
 13 16  1  0  0  0  0
 11 12  1  0  0  0  0
 11 13  1  0  0  0  0
 11 17  1  0  0  0  0
  9 10  1  0  0  0  0
  9 11  1  0  0  0  0
  9 24  1  0  0  0  0
  7  8  1  0  0  0  0
  7  9  1  0  0  0  0
 28 29  1  0  0  0  0
 28 30  1  0  0  0  0
 28 31  1  0  0  0  0
 26 27  1  0  0  0  0
 26 28  1  0  0  0  0
M  END
$$$$
default_name
  -OEChem-02102213163D

 31 30  0     1  0  0  0  0  0999 V2000
   -3.0760   -3.6390    1.5496 H   0  0  0  0  0  0  0  0  0  0  0  0
   -3.0940   -2.6290    1.1426 C   0  0  0  0  0  0  0  0  0  0  0  0
   -3.7160   -1.9930    1.7706 H   0  0  0  0  0  0  0  0  0  0  0  0
   -3.4880   -2.6500    0.1286 H   0  0  0  0  0  0  0  0  0  0  0  0
   -1.6860   -2.0850    1.1196 C   0  0  0  0  0  0  0  0  0  0  0  0
   -0.7540   -2.7700    1.5226 O   0  0  0  0  0  0  0  0  0  0  0  0
   -1.5320   -0.8490    0.6496 N   0  0  0  0  0  0  0  0  0  0  0  0
   -2.3500   -0.3360    0.3566 H   0  0  0  0  0  0  0  0  0  0  0  0
   -0.2470   -0.1410    0.5576 C   0  0  1  0  0  0  0  0  0  0  0  0
    0.4239   -0.7541   -0.0450 H   0  0  0  0  0  0  0  0  0  0  0  0
   -0.4317    1.2160   -0.1683 C   0  0  1  0  0  0  0  0  0  0  0  0
   -1.2192    1.0784   -0.9118 H   0  0  0  0  0  0  0  0  0  0  0  0
   -0.8799    2.3383    0.7872 C   0  0  0  0  0  0  0  0  0  0  0  0
   -0.0920    2.5673    1.5070 H   0  0  0  0  0  0  0  0  0  0  0  0
   -1.1214    3.2393    0.2256 H   0  0  0  0  0  0  0  0  0  0  0  0
   -1.7754    2.0348    1.3307 H   0  0  0  0  0  0  0  0  0  0  0  0
    0.8529    1.6176   -0.9274 C   0  0  0  0  0  0  0  0  0  0  0  0
    1.2268    0.7686   -1.5012 H   0  0  0  0  0  0  0  0  0  0  0  0
    0.6122    2.4213   -1.6232 H   0  0  0  0  0  0  0  0  0  0  0  0
    1.9769    2.1245   -0.0137 C   0  0  0  0  0  0  0  0  0  0  0  0
    2.3325    1.3241    0.6349 H   0  0  0  0  0  0  0  0  0  0  0  0
    2.8099    2.4700   -0.6264 H   0  0  0  0  0  0  0  0  0  0  0  0
    1.6170    2.9544    0.5953 H   0  0  0  0  0  0  0  0  0  0  0  0
    0.3833   -0.0008    1.9525 C   0  0  0  0  0  0  0  0  0  0  0  0
    1.5803   -0.2304    2.1189 O   0  0  0  0  0  0  0  0  0  0  0  0
   -0.4170    0.3858    2.9541 N   0  0  0  0  0  0  0  0  0  0  0  0
   -1.3850    0.5669    2.7398 H   0  0  0  0  0  0  0  0  0  0  0  0
    0.0265    0.5600    4.3358 C   0  0  0  0  0  0  0  0  0  0  0  0
    0.8964    1.2200    4.3632 H   0  0  0  0  0  0  0  0  0  0  0  0
   -0.7726    0.9946    4.9382 H   0  0  0  0  0  0  0  0  0  0  0  0
    0.3119   -0.4069    4.7547 H   0  0  0  0  0  0  0  0  0  0  0  0
  5  6  2  0  0  0  0
  5  7  1  0  0  0  0
  2  3  1  0  0  0  0
  2  4  1  0  0  0  0
  2  5  1  0  0  0  0
  1  2  1  0  0  0  0
 24 25  2  0  0  0  0
 24 26  1  0  0  0  0
 20 21  1  0  0  0  0
 20 22  1  0  0  0  0
 20 23  1  0  0  0  0
 17 18  1  0  0  0  0
 17 19  1  0  0  0  0
 17 20  1  0  0  0  0
 13 14  1  0  0  0  0
 13 15  1  0  0  0  0
 13 16  1  0  0  0  0
 11 12  1  0  0  0  0
 11 13  1  0  0  0  0
 11 17  1  0  0  0  0
  9 10  1  0  0  0  0
  9 11  1  0  0  0  0
  9 24  1  0  0  0  0
  7  8  1  0  0  0  0
  7  9  1  0  0  0  0
 28 29  1  0  0  0  0
 28 30  1  0  0  0  0
 28 31  1  0  0  0  0
 26 27  1  0  0  0  0
 26 28  1  0  0  0  0
M  END
$$$$
default_name
  -OEChem-02102213163D

 31 30  0     1  0  0  0  0  0999 V2000
   -3.0760   -3.6390    1.5496 H   0  0  0  0  0  0  0  0  0  0  0  0
   -3.0940   -2.6290    1.1426 C   0  0  0  0  0  0  0  0  0  0  0  0
   -3.7160   -1.9930    1.7706 H   0  0  0  0  0  0  0  0  0  0  0  0
   -3.4880   -2.6500    0.1286 H   0  0  0  0  0  0  0  0  0  0  0  0
   -1.6860   -2.0850    1.1196 C   0  0  0  0  0  0  0  0  0  0  0  0
   -0.7540   -2.7700    1.5226 O   0  0  0  0  0  0  0  0  0  0  0  0
   -1.5320   -0.8490    0.6496 N   0  0  0  0  0  0  0  0  0  0  0  0
   -2.3500   -0.3360    0.3566 H   0  0  0  0  0  0  0  0  0  0  0  0
   -0.2470   -0.1410    0.5576 C   0  0  1  0  0  0  0  0  0  0  0  0
    0.4239   -0.7541   -0.0450 H   0  0  0  0  0  0  0  0  0  0  0  0
   -0.4317    1.2160   -0.1683 C   0  0  1  0  0  0  0  0  0  0  0  0
   -1.2192    1.0784   -0.9118 H   0  0  0  0  0  0  0  0  0  0  0  0
   -0.8799    2.3383    0.7872 C   0  0  0  0  0  0  0  0  0  0  0  0
   -0.0920    2.5673    1.5070 H   0  0  0  0  0  0  0  0  0  0  0  0
   -1.1214    3.2393    0.2256 H   0  0  0  0  0  0  0  0  0  0  0  0
   -1.7754    2.0348    1.3307 H   0  0  0  0  0  0  0  0  0  0  0  0
    0.8529    1.6176   -0.9274 C   0  0  0  0  0  0  0  0  0  0  0  0
    1.0781    0.8768   -1.6957 H   0  0  0  0  0  0  0  0  0  0  0  0
    0.6857    2.5773   -1.4163 H   0  0  0  0  0  0  0  0  0  0  0  0
    2.0820    1.7731   -0.0218 C   0  0  0  0  0  0  0  0  0  0  0  0
    2.3608    0.8132    0.4125 H   0  0  0  0  0  0  0  0  0  0  0  0
    2.9200    2.1424   -0.6134 H   0  0  0  0  0  0  0  0  0  0  0  0
    1.8700    2.4861    0.7757 H   0  0  0  0  0  0  0  0  0  0  0  0
    0.3833   -0.0008    1.9525 C   0  0  0  0  0  0  0  0  0  0  0  0
    1.5803   -0.2304    2.1189 O   0  0  0  0  0  0  0  0  0  0  0  0
   -0.4170    0.3858    2.9541 N   0  0  0  0  0  0  0  0  0  0  0  0
   -1.3850    0.5669    2.7398 H   0  0  0  0  0  0  0  0  0  0  0  0
    0.0265    0.5600    4.3358 C   0  0  0  0  0  0  0  0  0  0  0  0
    0.8964    1.2200    4.3632 H   0  0  0  0  0  0  0  0  0  0  0  0
   -0.7726    0.9946    4.9382 H   0  0  0  0  0  0  0  0  0  0  0  0
    0.3119   -0.4069    4.7547 H   0  0  0  0  0  0  0  0  0  0  0  0
  5  6  2  0  0  0  0
  5  7  1  0  0  0  0
  2  3  1  0  0  0  0
  2  4  1  0  0  0  0
  2  5  1  0  0  0  0
  1  2  1  0  0  0  0
 24 25  2  0  0  0  0
 24 26  1  0  0  0  0
 20 21  1  0  0  0  0
 20 22  1  0  0  0  0
 20 23  1  0  0  0  0
 17 18  1  0  0  0  0
 17 19  1  0  0  0  0
 17 20  1  0  0  0  0
 13 14  1  0  0  0  0
 13 15  1  0  0  0  0
 13 16  1  0  0  0  0
 11 12  1  0  0  0  0
 11 13  1  0  0  0  0
 11 17  1  0  0  0  0
  9 10  1  0  0  0  0
  9 11  1  0  0  0  0
  9 24  1  0  0  0  0
  7  8  1  0  0  0  0
  7  9  1  0  0  0  0
 28 29  1  0  0  0  0
 28 30  1  0  0  0  0
 28 31  1  0  0  0  0
 26 27  1  0  0  0  0
 26 28  1  0  0  0  0
M  END
$$$$
default_name
  -OEChem-02102213163D

 31 30  0     1  0  0  0  0  0999 V2000
   -3.0760   -3.6390    1.5496 H   0  0  0  0  0  0  0  0  0  0  0  0
   -3.0940   -2.6290    1.1426 C   0  0  0  0  0  0  0  0  0  0  0  0
   -3.7160   -1.9930    1.7706 H   0  0  0  0  0  0  0  0  0  0  0  0
   -3.4880   -2.6500    0.1286 H   0  0  0  0  0  0  0  0  0  0  0  0
   -1.6860   -2.0850    1.1196 C   0  0  0  0  0  0  0  0  0  0  0  0
   -0.7540   -2.7700    1.5226 O   0  0  0  0  0  0  0  0  0  0  0  0
   -1.5320   -0.8490    0.6496 N   0  0  0  0  0  0  0  0  0  0  0  0
   -2.3500   -0.3360    0.3566 H   0  0  0  0  0  0  0  0  0  0  0  0
   -0.2470   -0.1410    0.5576 C   0  0  1  0  0  0  0  0  0  0  0  0
    0.4239   -0.7541   -0.0450 H   0  0  0  0  0  0  0  0  0  0  0  0
   -0.4317    1.2160   -0.1683 C   0  0  1  0  0  0  0  0  0  0  0  0
   -1.2192    1.0784   -0.9118 H   0  0  0  0  0  0  0  0  0  0  0  0
   -0.8799    2.3383    0.7872 C   0  0  0  0  0  0  0  0  0  0  0  0
   -0.0920    2.5673    1.5070 H   0  0  0  0  0  0  0  0  0  0  0  0
   -1.1214    3.2393    0.2256 H   0  0  0  0  0  0  0  0  0  0  0  0
   -1.7754    2.0348    1.3307 H   0  0  0  0  0  0  0  0  0  0  0  0
    0.8529    1.6176   -0.9274 C   0  0  0  0  0  0  0  0  0  0  0  0
    0.9351    1.0420   -1.8503 H   0  0  0  0  0  0  0  0  0  0  0  0
    0.7905    2.6742   -1.1877 H   0  0  0  0  0  0  0  0  0  0  0  0
    2.1383    1.4222   -0.1122 C   0  0  0  0  0  0  0  0  0  0  0  0
    2.3083    0.3640    0.0859 H   0  0  0  0  0  0  0  0  0  0  0  0
    2.9856    1.8092   -0.6787 H   0  0  0  0  0  0  0  0  0  0  0  0
    2.0670    1.9628    0.8322 H   0  0  0  0  0  0  0  0  0  0  0  0
    0.3833   -0.0008    1.9525 C   0  0  0  0  0  0  0  0  0  0  0  0
    1.5803   -0.2304    2.1189 O   0  0  0  0  0  0  0  0  0  0  0  0
   -0.4170    0.3858    2.9541 N   0  0  0  0  0  0  0  0  0  0  0  0
   -1.3850    0.5669    2.7398 H   0  0  0  0  0  0  0  0  0  0  0  0
    0.0265    0.5600    4.3358 C   0  0  0  0  0  0  0  0  0  0  0  0
    0.8964    1.2200    4.3632 H   0  0  0  0  0  0  0  0  0  0  0  0
   -0.7726    0.9946    4.9382 H   0  0  0  0  0  0  0  0  0  0  0  0
    0.3119   -0.4069    4.7547 H   0  0  0  0  0  0  0  0  0  0  0  0
  5  6  2  0  0  0  0
  5  7  1  0  0  0  0
  2  3  1  0  0  0  0
  2  4  1  0  0  0  0
  2  5  1  0  0  0  0
  1  2  1  0  0  0  0
 24 25  2  0  0  0  0
 24 26  1  0  0  0  0
 20 21  1  0  0  0  0
 20 22  1  0  0  0  0
 20 23  1  0  0  0  0
 17 18  1  0  0  0  0
 17 19  1  0  0  0  0
 17 20  1  0  0  0  0
 13 14  1  0  0  0  0
 13 15  1  0  0  0  0
 13 16  1  0  0  0  0
 11 12  1  0  0  0  0
 11 13  1  0  0  0  0
 11 17  1  0  0  0  0
  9 10  1  0  0  0  0
  9 11  1  0  0  0  0
  9 24  1  0  0  0  0
  7  8  1  0  0  0  0
  7  9  1  0  0  0  0
 28 29  1  0  0  0  0
 28 30  1  0  0  0  0
 28 31  1  0  0  0  0
 26 27  1  0  0  0  0
 26 28  1  0  0  0  0
M  END
$$$$
default_name
  -OEChem-02102213163D

 31 30  0     1  0  0  0  0  0999 V2000
   -3.0760   -3.6390    1.5496 H   0  0  0  0  0  0  0  0  0  0  0  0
   -3.0940   -2.6290    1.1426 C   0  0  0  0  0  0  0  0  0  0  0  0
   -3.7160   -1.9930    1.7706 H   0  0  0  0  0  0  0  0  0  0  0  0
   -3.4880   -2.6500    0.1286 H   0  0  0  0  0  0  0  0  0  0  0  0
   -1.6860   -2.0850    1.1196 C   0  0  0  0  0  0  0  0  0  0  0  0
   -0.7540   -2.7700    1.5226 O   0  0  0  0  0  0  0  0  0  0  0  0
   -1.5320   -0.8490    0.6496 N   0  0  0  0  0  0  0  0  0  0  0  0
   -2.3500   -0.3360    0.3566 H   0  0  0  0  0  0  0  0  0  0  0  0
   -0.2470   -0.1410    0.5576 C   0  0  1  0  0  0  0  0  0  0  0  0
    0.4239   -0.7541   -0.0450 H   0  0  0  0  0  0  0  0  0  0  0  0
   -0.4317    1.2160   -0.1683 C   0  0  1  0  0  0  0  0  0  0  0  0
   -1.2192    1.0784   -0.9118 H   0  0  0  0  0  0  0  0  0  0  0  0
   -0.8799    2.3383    0.7872 C   0  0  0  0  0  0  0  0  0  0  0  0
   -0.0920    2.5673    1.5070 H   0  0  0  0  0  0  0  0  0  0  0  0
   -1.1214    3.2393    0.2256 H   0  0  0  0  0  0  0  0  0  0  0  0
   -1.7754    2.0348    1.3307 H   0  0  0  0  0  0  0  0  0  0  0  0
    0.8529    1.6176   -0.9274 C   0  0  0  0  0  0  0  0  0  0  0  0
    0.8075    1.2530   -1.9545 H   0  0  0  0  0  0  0  0  0  0  0  0
    0.9194    2.7052   -0.9532 H   0  0  0  0  0  0  0  0  0  0  0  0
    2.1420    1.0954   -0.2788 C   0  0  0  0  0  0  0  0  0  0  0  0
    2.1784    0.0071   -0.3227 H   0  0  0  0  0  0  0  0  0  0  0  0
    3.0022    1.4930   -0.8179 H   0  0  0  0  0  0  0  0  0  0  0  0
    2.1945    1.4202    0.7609 H   0  0  0  0  0  0  0  0  0  0  0  0
    0.3833   -0.0008    1.9525 C   0  0  0  0  0  0  0  0  0  0  0  0
    1.5803   -0.2304    2.1189 O   0  0  0  0  0  0  0  0  0  0  0  0
   -0.4170    0.3858    2.9541 N   0  0  0  0  0  0  0  0  0  0  0  0
   -1.3850    0.5669    2.7398 H   0  0  0  0  0  0  0  0  0  0  0  0
    0.0265    0.5600    4.3358 C   0  0  0  0  0  0  0  0  0  0  0  0
    0.8964    1.2200    4.3632 H   0  0  0  0  0  0  0  0  0  0  0  0
   -0.7726    0.9946    4.9382 H   0  0  0  0  0  0  0  0  0  0  0  0
    0.3119   -0.4069    4.7547 H   0  0  0  0  0  0  0  0  0  0  0  0
  5  6  2  0  0  0  0
  5  7  1  0  0  0  0
  2  3  1  0  0  0  0
  2  4  1  0  0  0  0
  2  5  1  0  0  0  0
  1  2  1  0  0  0  0
 24 25  2  0  0  0  0
 24 26  1  0  0  0  0
 20 21  1  0  0  0  0
 20 22  1  0  0  0  0
 20 23  1  0  0  0  0
 17 18  1  0  0  0  0
 17 19  1  0  0  0  0
 17 20  1  0  0  0  0
 13 14  1  0  0  0  0
 13 15  1  0  0  0  0
 13 16  1  0  0  0  0
 11 12  1  0  0  0  0
 11 13  1  0  0  0  0
 11 17  1  0  0  0  0
  9 10  1  0  0  0  0
  9 11  1  0  0  0  0
  9 24  1  0  0  0  0
  7  8  1  0  0  0  0
  7  9  1  0  0  0  0
 28 29  1  0  0  0  0
 28 30  1  0  0  0  0
 28 31  1  0  0  0  0
 26 27  1  0  0  0  0
 26 28  1  0  0  0  0
M  END
$$$$
default_name
  -OEChem-02102213163D

 31 30  0     1  0  0  0  0  0999 V2000
   -3.0760   -3.6390    1.5496 H   0  0  0  0  0  0  0  0  0  0  0  0
   -3.0940   -2.6290    1.1426 C   0  0  0  0  0  0  0  0  0  0  0  0
   -3.7160   -1.9930    1.7706 H   0  0  0  0  0  0  0  0  0  0  0  0
   -3.4880   -2.6500    0.1286 H   0  0  0  0  0  0  0  0  0  0  0  0
   -1.6860   -2.0850    1.1196 C   0  0  0  0  0  0  0  0  0  0  0  0
   -0.7540   -2.7700    1.5226 O   0  0  0  0  0  0  0  0  0  0  0  0
   -1.5320   -0.8490    0.6496 N   0  0  0  0  0  0  0  0  0  0  0  0
   -2.3500   -0.3360    0.3566 H   0  0  0  0  0  0  0  0  0  0  0  0
   -0.2470   -0.1410    0.5576 C   0  0  1  0  0  0  0  0  0  0  0  0
    0.4239   -0.7541   -0.0450 H   0  0  0  0  0  0  0  0  0  0  0  0
   -0.4317    1.2160   -0.1683 C   0  0  1  0  0  0  0  0  0  0  0  0
   -1.2192    1.0784   -0.9118 H   0  0  0  0  0  0  0  0  0  0  0  0
   -0.8799    2.3383    0.7872 C   0  0  0  0  0  0  0  0  0  0  0  0
   -0.0920    2.5673    1.5070 H   0  0  0  0  0  0  0  0  0  0  0  0
   -1.1214    3.2393    0.2256 H   0  0  0  0  0  0  0  0  0  0  0  0
   -1.7754    2.0348    1.3307 H   0  0  0  0  0  0  0  0  0  0  0  0
    0.8529    1.6176   -0.9274 C   0  0  0  0  0  0  0  0  0  0  0  0
    0.7042    1.4955   -2.0011 H   0  0  0  0  0  0  0  0  0  0  0  0
    1.0636    2.6683   -0.7286 H   0  0  0  0  0  0  0  0  0  0  0  0
    2.0928    0.8152   -0.5103 C   0  0  0  0  0  0  0  0  0  0  0  0
    1.9801   -0.2333   -0.7855 H   0  0  0  0  0  0  0  0  0  0  0  0
    2.9687    1.2155   -1.0214 H   0  0  0  0  0  0  0  0  0  0  0  0
    2.2439    0.8951    0.5668 H   0  0  0  0  0  0  0  0  0  0  0  0
    0.3833   -0.0008    1.9525 C   0  0  0  0  0  0  0  0  0  0  0  0
    1.5803   -0.2304    2.1189 O   0  0  0  0  0  0  0  0  0  0  0  0
   -0.4170    0.3858    2.9541 N   0  0  0  0  0  0  0  0  0  0  0  0
   -1.3850    0.5669    2.7398 H   0  0  0  0  0  0  0  0  0  0  0  0
    0.0265    0.5600    4.3358 C   0  0  0  0  0  0  0  0  0  0  0  0
    0.8964    1.2200    4.3632 H   0  0  0  0  0  0  0  0  0  0  0  0
   -0.7726    0.9946    4.9382 H   0  0  0  0  0  0  0  0  0  0  0  0
    0.3119   -0.4069    4.7547 H   0  0  0  0  0  0  0  0  0  0  0  0
  5  6  2  0  0  0  0
  5  7  1  0  0  0  0
  2  3  1  0  0  0  0
  2  4  1  0  0  0  0
  2  5  1  0  0  0  0
  1  2  1  0  0  0  0
 24 25  2  0  0  0  0
 24 26  1  0  0  0  0
 20 21  1  0  0  0  0
 20 22  1  0  0  0  0
 20 23  1  0  0  0  0
 17 18  1  0  0  0  0
 17 19  1  0  0  0  0
 17 20  1  0  0  0  0
 13 14  1  0  0  0  0
 13 15  1  0  0  0  0
 13 16  1  0  0  0  0
 11 12  1  0  0  0  0
 11 13  1  0  0  0  0
 11 17  1  0  0  0  0
  9 10  1  0  0  0  0
  9 11  1  0  0  0  0
  9 24  1  0  0  0  0
  7  8  1  0  0  0  0
  7  9  1  0  0  0  0
 28 29  1  0  0  0  0
 28 30  1  0  0  0  0
 28 31  1  0  0  0  0
 26 27  1  0  0  0  0
 26 28  1  0  0  0  0
M  END
$$$$
default_name
  -OEChem-02102213163D

 31 30  0     1  0  0  0  0  0999 V2000
   -3.0760   -3.6390    1.5496 H   0  0  0  0  0  0  0  0  0  0  0  0
   -3.0940   -2.6290    1.1426 C   0  0  0  0  0  0  0  0  0  0  0  0
   -3.7160   -1.9930    1.7706 H   0  0  0  0  0  0  0  0  0  0  0  0
   -3.4880   -2.6500    0.1286 H   0  0  0  0  0  0  0  0  0  0  0  0
   -1.6860   -2.0850    1.1196 C   0  0  0  0  0  0  0  0  0  0  0  0
   -0.7540   -2.7700    1.5226 O   0  0  0  0  0  0  0  0  0  0  0  0
   -1.5320   -0.8490    0.6496 N   0  0  0  0  0  0  0  0  0  0  0  0
   -2.3500   -0.3360    0.3566 H   0  0  0  0  0  0  0  0  0  0  0  0
   -0.2470   -0.1410    0.5576 C   0  0  1  0  0  0  0  0  0  0  0  0
    0.4239   -0.7541   -0.0450 H   0  0  0  0  0  0  0  0  0  0  0  0
   -0.4317    1.2160   -0.1683 C   0  0  1  0  0  0  0  0  0  0  0  0
   -1.2192    1.0784   -0.9118 H   0  0  0  0  0  0  0  0  0  0  0  0
   -0.8799    2.3383    0.7872 C   0  0  0  0  0  0  0  0  0  0  0  0
   -0.0920    2.5673    1.5070 H   0  0  0  0  0  0  0  0  0  0  0  0
   -1.1214    3.2393    0.2256 H   0  0  0  0  0  0  0  0  0  0  0  0
   -1.7754    2.0348    1.3307 H   0  0  0  0  0  0  0  0  0  0  0  0
    0.8529    1.6176   -0.9274 C   0  0  0  0  0  0  0  0  0  0  0  0
    0.6320    1.7528   -1.9871 H   0  0  0  0  0  0  0  0  0  0  0  0
    1.2133    2.5661   -0.5294 H   0  0  0  0  0  0  0  0  0  0  0  0
    1.9941    0.6006   -0.7909 C   0  0  0  0  0  0  0  0  0  0  0  0
    1.7268   -0.3407   -1.2709 H   0  0  0  0  0  0  0  0  0  0  0  0
    2.8873    0.9954   -1.2756 H   0  0  0  0  0  0  0  0  0  0  0  0
    2.2118    0.4234    0.2629 H   0  0  0  0  0  0  0  0  0  0  0  0
    0.3833   -0.0008    1.9525 C   0  0  0  0  0  0  0  0  0  0  0  0
    1.5803   -0.2304    2.1189 O   0  0  0  0  0  0  0  0  0  0  0  0
   -0.4170    0.3858    2.9541 N   0  0  0  0  0  0  0  0  0  0  0  0
   -1.3850    0.5669    2.7398 H   0  0  0  0  0  0  0  0  0  0  0  0
    0.0265    0.5600    4.3358 C   0  0  0  0  0  0  0  0  0  0  0  0
    0.8964    1.2200    4.3632 H   0  0  0  0  0  0  0  0  0  0  0  0
   -0.7726    0.9946    4.9382 H   0  0  0  0  0  0  0  0  0  0  0  0
    0.3119   -0.4069    4.7547 H   0  0  0  0  0  0  0  0  0  0  0  0
  5  6  2  0  0  0  0
  5  7  1  0  0  0  0
  2  3  1  0  0  0  0
  2  4  1  0  0  0  0
  2  5  1  0  0  0  0
  1  2  1  0  0  0  0
 24 25  2  0  0  0  0
 24 26  1  0  0  0  0
 20 21  1  0  0  0  0
 20 22  1  0  0  0  0
 20 23  1  0  0  0  0
 17 18  1  0  0  0  0
 17 19  1  0  0  0  0
 17 20  1  0  0  0  0
 13 14  1  0  0  0  0
 13 15  1  0  0  0  0
 13 16  1  0  0  0  0
 11 12  1  0  0  0  0
 11 13  1  0  0  0  0
 11 17  1  0  0  0  0
  9 10  1  0  0  0  0
  9 11  1  0  0  0  0
  9 24  1  0  0  0  0
  7  8  1  0  0  0  0
  7  9  1  0  0  0  0
 28 29  1  0  0  0  0
 28 30  1  0  0  0  0
 28 31  1  0  0  0  0
 26 27  1  0  0  0  0
 26 28  1  0  0  0  0
M  END
$$$$
default_name
  -OEChem-02102213163D

 31 30  0     1  0  0  0  0  0999 V2000
   -3.0760   -3.6390    1.5496 H   0  0  0  0  0  0  0  0  0  0  0  0
   -3.0940   -2.6290    1.1426 C   0  0  0  0  0  0  0  0  0  0  0  0
   -3.7160   -1.9930    1.7706 H   0  0  0  0  0  0  0  0  0  0  0  0
   -3.4880   -2.6500    0.1286 H   0  0  0  0  0  0  0  0  0  0  0  0
   -1.6860   -2.0850    1.1196 C   0  0  0  0  0  0  0  0  0  0  0  0
   -0.7540   -2.7700    1.5226 O   0  0  0  0  0  0  0  0  0  0  0  0
   -1.5320   -0.8490    0.6496 N   0  0  0  0  0  0  0  0  0  0  0  0
   -2.3500   -0.3360    0.3566 H   0  0  0  0  0  0  0  0  0  0  0  0
   -0.2470   -0.1410    0.5576 C   0  0  1  0  0  0  0  0  0  0  0  0
    0.4239   -0.7541   -0.0450 H   0  0  0  0  0  0  0  0  0  0  0  0
   -0.4317    1.2160   -0.1683 C   0  0  1  0  0  0  0  0  0  0  0  0
   -1.2192    1.0784   -0.9118 H   0  0  0  0  0  0  0  0  0  0  0  0
   -0.8799    2.3383    0.7872 C   0  0  0  0  0  0  0  0  0  0  0  0
   -0.0920    2.5673    1.5070 H   0  0  0  0  0  0  0  0  0  0  0  0
   -1.1214    3.2393    0.2256 H   0  0  0  0  0  0  0  0  0  0  0  0
   -1.7754    2.0348    1.3307 H   0  0  0  0  0  0  0  0  0  0  0  0
    0.8529    1.6176   -0.9274 C   0  0  0  0  0  0  0  0  0  0  0  0
    0.5960    2.0076   -1.9132 H   0  0  0  0  0  0  0  0  0  0  0  0
    1.3583    2.4054   -0.3690 H   0  0  0  0  0  0  0  0  0  0  0  0
    1.8526    0.4662   -1.1015 C   0  0  0  0  0  0  0  0  0  0  0  0
    1.4359   -0.3077   -1.7457 H   0  0  0  0  0  0  0  0  0  0  0  0
    2.7636    0.8479   -1.5629 H   0  0  0  0  0  0  0  0  0  0  0  0
    2.1004    0.0373   -0.1299 H   0  0  0  0  0  0  0  0  0  0  0  0
    0.3833   -0.0008    1.9525 C   0  0  0  0  0  0  0  0  0  0  0  0
    1.5803   -0.2304    2.1189 O   0  0  0  0  0  0  0  0  0  0  0  0
   -0.4170    0.3858    2.9541 N   0  0  0  0  0  0  0  0  0  0  0  0
   -1.3850    0.5669    2.7398 H   0  0  0  0  0  0  0  0  0  0  0  0
    0.0265    0.5600    4.3358 C   0  0  0  0  0  0  0  0  0  0  0  0
    0.8964    1.2200    4.3632 H   0  0  0  0  0  0  0  0  0  0  0  0
   -0.7726    0.9946    4.9382 H   0  0  0  0  0  0  0  0  0  0  0  0
    0.3119   -0.4069    4.7547 H   0  0  0  0  0  0  0  0  0  0  0  0
  5  6  2  0  0  0  0
  5  7  1  0  0  0  0
  2  3  1  0  0  0  0
  2  4  1  0  0  0  0
  2  5  1  0  0  0  0
  1  2  1  0  0  0  0
 24 25  2  0  0  0  0
 24 26  1  0  0  0  0
 20 21  1  0  0  0  0
 20 22  1  0  0  0  0
 20 23  1  0  0  0  0
 17 18  1  0  0  0  0
 17 19  1  0  0  0  0
 17 20  1  0  0  0  0
 13 14  1  0  0  0  0
 13 15  1  0  0  0  0
 13 16  1  0  0  0  0
 11 12  1  0  0  0  0
 11 13  1  0  0  0  0
 11 17  1  0  0  0  0
  9 10  1  0  0  0  0
  9 11  1  0  0  0  0
  9 24  1  0  0  0  0
  7  8  1  0  0  0  0
  7  9  1  0  0  0  0
 28 29  1  0  0  0  0
 28 30  1  0  0  0  0
 28 31  1  0  0  0  0
 26 27  1  0  0  0  0
 26 28  1  0  0  0  0
M  END
$$$$
default_name
  -OEChem-02102213163D

 31 30  0     1  0  0  0  0  0999 V2000
   -3.0760   -3.6390    1.5496 H   0  0  0  0  0  0  0  0  0  0  0  0
   -3.0940   -2.6290    1.1426 C   0  0  0  0  0  0  0  0  0  0  0  0
   -3.7160   -1.9930    1.7706 H   0  0  0  0  0  0  0  0  0  0  0  0
   -3.4880   -2.6500    0.1286 H   0  0  0  0  0  0  0  0  0  0  0  0
   -1.6860   -2.0850    1.1196 C   0  0  0  0  0  0  0  0  0  0  0  0
   -0.7540   -2.7700    1.5226 O   0  0  0  0  0  0  0  0  0  0  0  0
   -1.5320   -0.8490    0.6496 N   0  0  0  0  0  0  0  0  0  0  0  0
   -2.3500   -0.3360    0.3566 H   0  0  0  0  0  0  0  0  0  0  0  0
   -0.2470   -0.1410    0.5576 C   0  0  1  0  0  0  0  0  0  0  0  0
    0.4239   -0.7541   -0.0450 H   0  0  0  0  0  0  0  0  0  0  0  0
   -0.4317    1.2160   -0.1683 C   0  0  1  0  0  0  0  0  0  0  0  0
   -1.2192    1.0784   -0.9118 H   0  0  0  0  0  0  0  0  0  0  0  0
   -0.8799    2.3383    0.7872 C   0  0  0  0  0  0  0  0  0  0  0  0
   -0.0920    2.5673    1.5070 H   0  0  0  0  0  0  0  0  0  0  0  0
   -1.1214    3.2393    0.2256 H   0  0  0  0  0  0  0  0  0  0  0  0
   -1.7754    2.0348    1.3307 H   0  0  0  0  0  0  0  0  0  0  0  0
    0.8529    1.6176   -0.9274 C   0  0  0  0  0  0  0  0  0  0  0  0
    0.5986    2.2424   -1.7847 H   0  0  0  0  0  0  0  0  0  0  0  0
    1.4888    2.1972   -0.2584 H   0  0  0  0  0  0  0  0  0  0  0  0
    1.6779    0.4213   -1.4209 C   0  0  0  0  0  0  0  0  0  0  0  0
    1.1271   -0.1368   -2.1778 H   0  0  0  0  0  0  0  0  0  0  0  0
    2.6061    0.7830   -1.8638 H   0  0  0  0  0  0  0  0  0  0  0  0
    1.9173   -0.2370   -0.5850 H   0  0  0  0  0  0  0  0  0  0  0  0
    0.3833   -0.0008    1.9525 C   0  0  0  0  0  0  0  0  0  0  0  0
    1.5803   -0.2304    2.1189 O   0  0  0  0  0  0  0  0  0  0  0  0
   -0.4170    0.3858    2.9541 N   0  0  0  0  0  0  0  0  0  0  0  0
   -1.3850    0.5669    2.7398 H   0  0  0  0  0  0  0  0  0  0  0  0
    0.0265    0.5600    4.3358 C   0  0  0  0  0  0  0  0  0  0  0  0
    0.8964    1.2200    4.3632 H   0  0  0  0  0  0  0  0  0  0  0  0
   -0.7726    0.9946    4.9382 H   0  0  0  0  0  0  0  0  0  0  0  0
    0.3119   -0.4069    4.7547 H   0  0  0  0  0  0  0  0  0  0  0  0
  5  6  2  0  0  0  0
  5  7  1  0  0  0  0
  2  3  1  0  0  0  0
  2  4  1  0  0  0  0
  2  5  1  0  0  0  0
  1  2  1  0  0  0  0
 24 25  2  0  0  0  0
 24 26  1  0  0  0  0
 20 21  1  0  0  0  0
 20 22  1  0  0  0  0
 20 23  1  0  0  0  0
 17 18  1  0  0  0  0
 17 19  1  0  0  0  0
 17 20  1  0  0  0  0
 13 14  1  0  0  0  0
 13 15  1  0  0  0  0
 13 16  1  0  0  0  0
 11 12  1  0  0  0  0
 11 13  1  0  0  0  0
 11 17  1  0  0  0  0
  9 10  1  0  0  0  0
  9 11  1  0  0  0  0
  9 24  1  0  0  0  0
  7  8  1  0  0  0  0
  7  9  1  0  0  0  0
 28 29  1  0  0  0  0
 28 30  1  0  0  0  0
 28 31  1  0  0  0  0
 26 27  1  0  0  0  0
 26 28  1  0  0  0  0
M  END
$$$$
default_name
  -OEChem-02102213163D

 31 30  0     1  0  0  0  0  0999 V2000
   -3.0760   -3.6390    1.5496 H   0  0  0  0  0  0  0  0  0  0  0  0
   -3.0940   -2.6290    1.1426 C   0  0  0  0  0  0  0  0  0  0  0  0
   -3.7160   -1.9930    1.7706 H   0  0  0  0  0  0  0  0  0  0  0  0
   -3.4880   -2.6500    0.1286 H   0  0  0  0  0  0  0  0  0  0  0  0
   -1.6860   -2.0850    1.1196 C   0  0  0  0  0  0  0  0  0  0  0  0
   -0.7540   -2.7700    1.5226 O   0  0  0  0  0  0  0  0  0  0  0  0
   -1.5320   -0.8490    0.6496 N   0  0  0  0  0  0  0  0  0  0  0  0
   -2.3500   -0.3360    0.3566 H   0  0  0  0  0  0  0  0  0  0  0  0
   -0.2470   -0.1410    0.5576 C   0  0  1  0  0  0  0  0  0  0  0  0
    0.4239   -0.7541   -0.0450 H   0  0  0  0  0  0  0  0  0  0  0  0
   -0.4317    1.2160   -0.1683 C   0  0  1  0  0  0  0  0  0  0  0  0
   -1.2192    1.0784   -0.9118 H   0  0  0  0  0  0  0  0  0  0  0  0
   -0.8799    2.3383    0.7872 C   0  0  0  0  0  0  0  0  0  0  0  0
   -0.0920    2.5673    1.5070 H   0  0  0  0  0  0  0  0  0  0  0  0
   -1.1214    3.2393    0.2256 H   0  0  0  0  0  0  0  0  0  0  0  0
   -1.7754    2.0348    1.3307 H   0  0  0  0  0  0  0  0  0  0  0  0
    0.8529    1.6176   -0.9274 C   0  0  0  0  0  0  0  0  0  0  0  0
    0.6396    2.4412   -1.6101 H   0  0  0  0  0  0  0  0  0  0  0  0
    1.5958    1.9558   -0.2051 H   0  0  0  0  0  0  0  0  0  0  0  0
    1.4820    0.4688   -1.7273 C   0  0  0  0  0  0  0  0  0  0  0  0
    0.8215    0.1606   -2.5376 H   0  0  0  0  0  0  0  0  0  0  0  0
    2.4254    0.8050   -2.1579 H   0  0  0  0  0  0  0  0  0  0  0  0
    1.6749   -0.3807   -1.0712 H   0  0  0  0  0  0  0  0  0  0  0  0
    0.3833   -0.0008    1.9525 C   0  0  0  0  0  0  0  0  0  0  0  0
    1.5803   -0.2304    2.1189 O   0  0  0  0  0  0  0  0  0  0  0  0
   -0.4170    0.3858    2.9541 N   0  0  0  0  0  0  0  0  0  0  0  0
   -1.3850    0.5669    2.7398 H   0  0  0  0  0  0  0  0  0  0  0  0
    0.0265    0.5600    4.3358 C   0  0  0  0  0  0  0  0  0  0  0  0
    0.8964    1.2200    4.3632 H   0  0  0  0  0  0  0  0  0  0  0  0
   -0.7726    0.9946    4.9382 H   0  0  0  0  0  0  0  0  0  0  0  0
    0.3119   -0.4069    4.7547 H   0  0  0  0  0  0  0  0  0  0  0  0
  5  6  2  0  0  0  0
  5  7  1  0  0  0  0
  2  3  1  0  0  0  0
  2  4  1  0  0  0  0
  2  5  1  0  0  0  0
  1  2  1  0  0  0  0
 24 25  2  0  0  0  0
 24 26  1  0  0  0  0
 20 21  1  0  0  0  0
 20 22  1  0  0  0  0
 20 23  1  0  0  0  0
 17 18  1  0  0  0  0
 17 19  1  0  0  0  0
 17 20  1  0  0  0  0
 13 14  1  0  0  0  0
 13 15  1  0  0  0  0
 13 16  1  0  0  0  0
 11 12  1  0  0  0  0
 11 13  1  0  0  0  0
 11 17  1  0  0  0  0
  9 10  1  0  0  0  0
  9 11  1  0  0  0  0
  9 24  1  0  0  0  0
  7  8  1  0  0  0  0
  7  9  1  0  0  0  0
 28 29  1  0  0  0  0
 28 30  1  0  0  0  0
 28 31  1  0  0  0  0
 26 27  1  0  0  0  0
 26 28  1  0  0  0  0
M  END
$$$$
default_name
  -OEChem-02102213163D

 31 30  0     1  0  0  0  0  0999 V2000
   -3.0760   -3.6390    1.5496 H   0  0  0  0  0  0  0  0  0  0  0  0
   -3.0940   -2.6290    1.1426 C   0  0  0  0  0  0  0  0  0  0  0  0
   -3.7160   -1.9930    1.7706 H   0  0  0  0  0  0  0  0  0  0  0  0
   -3.4880   -2.6500    0.1286 H   0  0  0  0  0  0  0  0  0  0  0  0
   -1.6860   -2.0850    1.1196 C   0  0  0  0  0  0  0  0  0  0  0  0
   -0.7540   -2.7700    1.5226 O   0  0  0  0  0  0  0  0  0  0  0  0
   -1.5320   -0.8490    0.6496 N   0  0  0  0  0  0  0  0  0  0  0  0
   -2.3500   -0.3360    0.3566 H   0  0  0  0  0  0  0  0  0  0  0  0
   -0.2470   -0.1410    0.5576 C   0  0  1  0  0  0  0  0  0  0  0  0
    0.4239   -0.7541   -0.0450 H   0  0  0  0  0  0  0  0  0  0  0  0
   -0.4317    1.2160   -0.1683 C   0  0  1  0  0  0  0  0  0  0  0  0
   -1.2192    1.0784   -0.9118 H   0  0  0  0  0  0  0  0  0  0  0  0
   -0.8799    2.3383    0.7872 C   0  0  0  0  0  0  0  0  0  0  0  0
   -0.0920    2.5673    1.5070 H   0  0  0  0  0  0  0  0  0  0  0  0
   -1.1214    3.2393    0.2256 H   0  0  0  0  0  0  0  0  0  0  0  0
   -1.7754    2.0348    1.3307 H   0  0  0  0  0  0  0  0  0  0  0  0
    0.8529    1.6176   -0.9274 C   0  0  0  0  0  0  0  0  0  0  0  0
    0.7162    2.5904   -1.4016 H   0  0  0  0  0  0  0  0  0  0  0  0
    1.6720    1.6975   -0.2128 H   0  0  0  0  0  0  0  0  0  0  0  0
    1.2781    0.6055   -1.9999 C   0  0  0  0  0  0  0  0  0  0  0  0
    0.5400    0.5641   -2.8006 H   0  0  0  0  0  0  0  0  0  0  0  0
    2.2339    0.9126   -2.4251 H   0  0  0  0  0  0  0  0  0  0  0  0
    1.3897   -0.3842   -1.5555 H   0  0  0  0  0  0  0  0  0  0  0  0
    0.3833   -0.0008    1.9525 C   0  0  0  0  0  0  0  0  0  0  0  0
    1.5803   -0.2304    2.1189 O   0  0  0  0  0  0  0  0  0  0  0  0
   -0.4170    0.3858    2.9541 N   0  0  0  0  0  0  0  0  0  0  0  0
   -1.3850    0.5669    2.7398 H   0  0  0  0  0  0  0  0  0  0  0  0
    0.0265    0.5600    4.3358 C   0  0  0  0  0  0  0  0  0  0  0  0
    0.8964    1.2200    4.3632 H   0  0  0  0  0  0  0  0  0  0  0  0
   -0.7726    0.9946    4.9382 H   0  0  0  0  0  0  0  0  0  0  0  0
    0.3119   -0.4069    4.7547 H   0  0  0  0  0  0  0  0  0  0  0  0
  5  6  2  0  0  0  0
  5  7  1  0  0  0  0
  2  3  1  0  0  0  0
  2  4  1  0  0  0  0
  2  5  1  0  0  0  0
  1  2  1  0  0  0  0
 24 25  2  0  0  0  0
 24 26  1  0  0  0  0
 20 21  1  0  0  0  0
 20 22  1  0  0  0  0
 20 23  1  0  0  0  0
 17 18  1  0  0  0  0
 17 19  1  0  0  0  0
 17 20  1  0  0  0  0
 13 14  1  0  0  0  0
 13 15  1  0  0  0  0
 13 16  1  0  0  0  0
 11 12  1  0  0  0  0
 11 13  1  0  0  0  0
 11 17  1  0  0  0  0
  9 10  1  0  0  0  0
  9 11  1  0  0  0  0
  9 24  1  0  0  0  0
  7  8  1  0  0  0  0
  7  9  1  0  0  0  0
 28 29  1  0  0  0  0
 28 30  1  0  0  0  0
 28 31  1  0  0  0  0
 26 27  1  0  0  0  0
 26 28  1  0  0  0  0
M  END
$$$$
default_name
  -OEChem-02102213163D

 31 30  0     1  0  0  0  0  0999 V2000
   -3.0760   -3.6390    1.5496 H   0  0  0  0  0  0  0  0  0  0  0  0
   -3.0940   -2.6290    1.1426 C   0  0  0  0  0  0  0  0  0  0  0  0
   -3.7160   -1.9930    1.7706 H   0  0  0  0  0  0  0  0  0  0  0  0
   -3.4880   -2.6500    0.1286 H   0  0  0  0  0  0  0  0  0  0  0  0
   -1.6860   -2.0850    1.1196 C   0  0  0  0  0  0  0  0  0  0  0  0
   -0.7540   -2.7700    1.5226 O   0  0  0  0  0  0  0  0  0  0  0  0
   -1.5320   -0.8490    0.6496 N   0  0  0  0  0  0  0  0  0  0  0  0
   -2.3500   -0.3360    0.3566 H   0  0  0  0  0  0  0  0  0  0  0  0
   -0.2470   -0.1410    0.5576 C   0  0  1  0  0  0  0  0  0  0  0  0
    0.4239   -0.7541   -0.0450 H   0  0  0  0  0  0  0  0  0  0  0  0
   -0.4317    1.2160   -0.1683 C   0  0  1  0  0  0  0  0  0  0  0  0
   -1.2192    1.0784   -0.9118 H   0  0  0  0  0  0  0  0  0  0  0  0
   -0.8799    2.3383    0.7872 C   0  0  0  0  0  0  0  0  0  0  0  0
   -0.0920    2.5673    1.5070 H   0  0  0  0  0  0  0  0  0  0  0  0
   -1.1214    3.2393    0.2256 H   0  0  0  0  0  0  0  0  0  0  0  0
   -1.7754    2.0348    1.3307 H   0  0  0  0  0  0  0  0  0  0  0  0
    0.8529    1.6176   -0.9274 C   0  0  0  0  0  0  0  0  0  0  0  0
    0.8232    2.6799   -1.1731 H   0  0  0  0  0  0  0  0  0  0  0  0
    1.7122    1.4399   -0.2809 H   0  0  0  0  0  0  0  0  0  0  0  0
    1.0803    0.8221   -2.2200 C   0  0  0  0  0  0  0  0  0  0  0  0
    0.3016    1.0462   -2.9488 H   0  0  0  0  0  0  0  0  0  0  0  0
    2.0446    1.0983   -2.6471 H   0  0  0  0  0  0  0  0  0  0  0  0
    1.0813   -0.2470   -2.0048 H   0  0  0  0  0  0  0  0  0  0  0  0
    0.3833   -0.0008    1.9525 C   0  0  0  0  0  0  0  0  0  0  0  0
    1.5803   -0.2304    2.1189 O   0  0  0  0  0  0  0  0  0  0  0  0
   -0.4170    0.3858    2.9541 N   0  0  0  0  0  0  0  0  0  0  0  0
   -1.3850    0.5669    2.7398 H   0  0  0  0  0  0  0  0  0  0  0  0
    0.0265    0.5600    4.3358 C   0  0  0  0  0  0  0  0  0  0  0  0
    0.8964    1.2200    4.3632 H   0  0  0  0  0  0  0  0  0  0  0  0
   -0.7726    0.9946    4.9382 H   0  0  0  0  0  0  0  0  0  0  0  0
    0.3119   -0.4069    4.7547 H   0  0  0  0  0  0  0  0  0  0  0  0
  5  6  2  0  0  0  0
  5  7  1  0  0  0  0
  2  3  1  0  0  0  0
  2  4  1  0  0  0  0
  2  5  1  0  0  0  0
  1  2  1  0  0  0  0
 24 25  2  0  0  0  0
 24 26  1  0  0  0  0
 20 21  1  0  0  0  0
 20 22  1  0  0  0  0
 20 23  1  0  0  0  0
 17 18  1  0  0  0  0
 17 19  1  0  0  0  0
 17 20  1  0  0  0  0
 13 14  1  0  0  0  0
 13 15  1  0  0  0  0
 13 16  1  0  0  0  0
 11 12  1  0  0  0  0
 11 13  1  0  0  0  0
 11 17  1  0  0  0  0
  9 10  1  0  0  0  0
  9 11  1  0  0  0  0
  9 24  1  0  0  0  0
  7  8  1  0  0  0  0
  7  9  1  0  0  0  0
 28 29  1  0  0  0  0
 28 30  1  0  0  0  0
 28 31  1  0  0  0  0
 26 27  1  0  0  0  0
 26 28  1  0  0  0  0
M  END
$$$$
default_name
  -OEChem-02102213163D

 31 30  0     1  0  0  0  0  0999 V2000
   -3.0760   -3.6390    1.5496 H   0  0  0  0  0  0  0  0  0  0  0  0
   -3.0940   -2.6290    1.1426 C   0  0  0  0  0  0  0  0  0  0  0  0
   -3.7160   -1.9930    1.7706 H   0  0  0  0  0  0  0  0  0  0  0  0
   -3.4880   -2.6500    0.1286 H   0  0  0  0  0  0  0  0  0  0  0  0
   -1.6860   -2.0850    1.1196 C   0  0  0  0  0  0  0  0  0  0  0  0
   -0.7540   -2.7700    1.5226 O   0  0  0  0  0  0  0  0  0  0  0  0
   -1.5320   -0.8490    0.6496 N   0  0  0  0  0  0  0  0  0  0  0  0
   -2.3500   -0.3360    0.3566 H   0  0  0  0  0  0  0  0  0  0  0  0
   -0.2470   -0.1410    0.5576 C   0  0  1  0  0  0  0  0  0  0  0  0
    0.4239   -0.7541   -0.0450 H   0  0  0  0  0  0  0  0  0  0  0  0
   -0.4317    1.2160   -0.1683 C   0  0  1  0  0  0  0  0  0  0  0  0
   -1.2192    1.0784   -0.9118 H   0  0  0  0  0  0  0  0  0  0  0  0
   -0.8799    2.3383    0.7872 C   0  0  0  0  0  0  0  0  0  0  0  0
   -0.0920    2.5673    1.5070 H   0  0  0  0  0  0  0  0  0  0  0  0
   -1.1214    3.2393    0.2256 H   0  0  0  0  0  0  0  0  0  0  0  0
   -1.7754    2.0348    1.3307 H   0  0  0  0  0  0  0  0  0  0  0  0
    0.8529    1.6176   -0.9274 C   0  0  0  0  0  0  0  0  0  0  0  0
    0.9533    2.7037   -0.9404 H   0  0  0  0  0  0  0  0  0  0  0  0
    1.7138    1.2007   -0.4049 H   0  0  0  0  0  0  0  0  0  0  0  0
    0.9019    1.1039   -2.3728 C   0  0  0  0  0  0  0  0  0  0  0  0
    0.1227    1.5741   -2.9723 H   0  0  0  0  0  0  0  0  0  0  0  0
    1.8705    1.3495   -2.8089 H   0  0  0  0  0  0  0  0  0  0  0  0
    0.7706    0.0214   -2.3886 H   0  0  0  0  0  0  0  0  0  0  0  0
    0.3833   -0.0008    1.9525 C   0  0  0  0  0  0  0  0  0  0  0  0
    1.5803   -0.2304    2.1189 O   0  0  0  0  0  0  0  0  0  0  0  0
   -0.4170    0.3858    2.9541 N   0  0  0  0  0  0  0  0  0  0  0  0
   -1.3850    0.5669    2.7398 H   0  0  0  0  0  0  0  0  0  0  0  0
    0.0265    0.5600    4.3358 C   0  0  0  0  0  0  0  0  0  0  0  0
    0.8964    1.2200    4.3632 H   0  0  0  0  0  0  0  0  0  0  0  0
   -0.7726    0.9946    4.9382 H   0  0  0  0  0  0  0  0  0  0  0  0
    0.3119   -0.4069    4.7547 H   0  0  0  0  0  0  0  0  0  0  0  0
  5  6  2  0  0  0  0
  5  7  1  0  0  0  0
  2  3  1  0  0  0  0
  2  4  1  0  0  0  0
  2  5  1  0  0  0  0
  1  2  1  0  0  0  0
 24 25  2  0  0  0  0
 24 26  1  0  0  0  0
 20 21  1  0  0  0  0
 20 22  1  0  0  0  0
 20 23  1  0  0  0  0
 17 18  1  0  0  0  0
 17 19  1  0  0  0  0
 17 20  1  0  0  0  0
 13 14  1  0  0  0  0
 13 15  1  0  0  0  0
 13 16  1  0  0  0  0
 11 12  1  0  0  0  0
 11 13  1  0  0  0  0
 11 17  1  0  0  0  0
  9 10  1  0  0  0  0
  9 11  1  0  0  0  0
  9 24  1  0  0  0  0
  7  8  1  0  0  0  0
  7  9  1  0  0  0  0
 28 29  1  0  0  0  0
 28 30  1  0  0  0  0
 28 31  1  0  0  0  0
 26 27  1  0  0  0  0
 26 28  1  0  0  0  0
M  END
$$$$
default_name
  -OEChem-02102213163D

 31 30  0     1  0  0  0  0  0999 V2000
   -3.0760   -3.6390    1.5496 H   0  0  0  0  0  0  0  0  0  0  0  0
   -3.0940   -2.6290    1.1426 C   0  0  0  0  0  0  0  0  0  0  0  0
   -3.7160   -1.9930    1.7706 H   0  0  0  0  0  0  0  0  0  0  0  0
   -3.4880   -2.6500    0.1286 H   0  0  0  0  0  0  0  0  0  0  0  0
   -1.6860   -2.0850    1.1196 C   0  0  0  0  0  0  0  0  0  0  0  0
   -0.7540   -2.7700    1.5226 O   0  0  0  0  0  0  0  0  0  0  0  0
   -1.5320   -0.8490    0.6496 N   0  0  0  0  0  0  0  0  0  0  0  0
   -2.3500   -0.3360    0.3566 H   0  0  0  0  0  0  0  0  0  0  0  0
   -0.2470   -0.1410    0.5576 C   0  0  1  0  0  0  0  0  0  0  0  0
    0.4239   -0.7541   -0.0450 H   0  0  0  0  0  0  0  0  0  0  0  0
   -0.4317    1.2160   -0.1683 C   0  0  1  0  0  0  0  0  0  0  0  0
   -1.2192    1.0784   -0.9118 H   0  0  0  0  0  0  0  0  0  0  0  0
   -0.8799    2.3383    0.7872 C   0  0  0  0  0  0  0  0  0  0  0  0
   -0.0920    2.5673    1.5070 H   0  0  0  0  0  0  0  0  0  0  0  0
   -1.1214    3.2393    0.2256 H   0  0  0  0  0  0  0  0  0  0  0  0
   -1.7754    2.0348    1.3307 H   0  0  0  0  0  0  0  0  0  0  0  0
    0.8529    1.6176   -0.9274 C   0  0  0  0  0  0  0  0  0  0  0  0
    1.0976    2.6600   -0.7193 H   0  0  0  0  0  0  0  0  0  0  0  0
    1.6765    0.9961   -0.5761 H   0  0  0  0  0  0  0  0  0  0  0  0
    0.7552    1.4316   -2.4477 C   0  0  0  0  0  0  0  0  0  0  0  0
    0.0154    2.1118   -2.8693 H   0  0  0  0  0  0  0  0  0  0  0  0
    1.7233    1.6492   -2.8994 H   0  0  0  0  0  0  0  0  0  0  0  0
    0.4788    0.4027   -2.6807 H   0  0  0  0  0  0  0  0  0  0  0  0
    0.3833   -0.0008    1.9525 C   0  0  0  0  0  0  0  0  0  0  0  0
    1.5803   -0.2304    2.1189 O   0  0  0  0  0  0  0  0  0  0  0  0
   -0.4170    0.3858    2.9541 N   0  0  0  0  0  0  0  0  0  0  0  0
   -1.3850    0.5669    2.7398 H   0  0  0  0  0  0  0  0  0  0  0  0
    0.0265    0.5600    4.3358 C   0  0  0  0  0  0  0  0  0  0  0  0
    0.8964    1.2200    4.3632 H   0  0  0  0  0  0  0  0  0  0  0  0
   -0.7726    0.9946    4.9382 H   0  0  0  0  0  0  0  0  0  0  0  0
    0.3119   -0.4069    4.7547 H   0  0  0  0  0  0  0  0  0  0  0  0
  5  6  2  0  0  0  0
  5  7  1  0  0  0  0
  2  3  1  0  0  0  0
  2  4  1  0  0  0  0
  2  5  1  0  0  0  0
  1  2  1  0  0  0  0
 24 25  2  0  0  0  0
 24 26  1  0  0  0  0
 20 21  1  0  0  0  0
 20 22  1  0  0  0  0
 20 23  1  0  0  0  0
 17 18  1  0  0  0  0
 17 19  1  0  0  0  0
 17 20  1  0  0  0  0
 13 14  1  0  0  0  0
 13 15  1  0  0  0  0
 13 16  1  0  0  0  0
 11 12  1  0  0  0  0
 11 13  1  0  0  0  0
 11 17  1  0  0  0  0
  9 10  1  0  0  0  0
  9 11  1  0  0  0  0
  9 24  1  0  0  0  0
  7  8  1  0  0  0  0
  7  9  1  0  0  0  0
 28 29  1  0  0  0  0
 28 30  1  0  0  0  0
 28 31  1  0  0  0  0
 26 27  1  0  0  0  0
 26 28  1  0  0  0  0
M  END
$$$$
default_name
  -OEChem-02102213163D

 31 30  0     1  0  0  0  0  0999 V2000
   -3.0760   -3.6390    1.5496 H   0  0  0  0  0  0  0  0  0  0  0  0
   -3.0940   -2.6290    1.1426 C   0  0  0  0  0  0  0  0  0  0  0  0
   -3.7160   -1.9930    1.7706 H   0  0  0  0  0  0  0  0  0  0  0  0
   -3.4880   -2.6500    0.1286 H   0  0  0  0  0  0  0  0  0  0  0  0
   -1.6860   -2.0850    1.1196 C   0  0  0  0  0  0  0  0  0  0  0  0
   -0.7540   -2.7700    1.5226 O   0  0  0  0  0  0  0  0  0  0  0  0
   -1.5320   -0.8490    0.6496 N   0  0  0  0  0  0  0  0  0  0  0  0
   -2.3500   -0.3360    0.3566 H   0  0  0  0  0  0  0  0  0  0  0  0
   -0.2470   -0.1410    0.5576 C   0  0  1  0  0  0  0  0  0  0  0  0
    0.4239   -0.7541   -0.0450 H   0  0  0  0  0  0  0  0  0  0  0  0
   -0.4317    1.2160   -0.1683 C   0  0  1  0  0  0  0  0  0  0  0  0
   -1.2192    1.0784   -0.9118 H   0  0  0  0  0  0  0  0  0  0  0  0
   -0.8799    2.3383    0.7872 C   0  0  0  0  0  0  0  0  0  0  0  0
   -0.0920    2.5673    1.5070 H   0  0  0  0  0  0  0  0  0  0  0  0
   -1.1214    3.2393    0.2256 H   0  0  0  0  0  0  0  0  0  0  0  0
   -1.7754    2.0348    1.3307 H   0  0  0  0  0  0  0  0  0  0  0  0
    0.8529    1.6176   -0.9274 C   0  0  0  0  0  0  0  0  0  0  0  0
    1.2464    2.5519   -0.5248 H   0  0  0  0  0  0  0  0  0  0  0  0
    1.6030    0.8401   -0.7831 H   0  0  0  0  0  0  0  0  0  0  0  0
    0.6501    1.7829   -2.4397 C   0  0  0  0  0  0  0  0  0  0  0  0
   -0.0129    2.6227   -2.6469 H   0  0  0  0  0  0  0  0  0  0  0  0
    1.6132    1.9767   -2.9124 H   0  0  0  0  0  0  0  0  0  0  0  0
    0.2258    0.8710   -2.8611 H   0  0  0  0  0  0  0  0  0  0  0  0
    0.3833   -0.0008    1.9525 C   0  0  0  0  0  0  0  0  0  0  0  0
    1.5803   -0.2304    2.1189 O   0  0  0  0  0  0  0  0  0  0  0  0
   -0.4170    0.3858    2.9541 N   0  0  0  0  0  0  0  0  0  0  0  0
   -1.3850    0.5669    2.7398 H   0  0  0  0  0  0  0  0  0  0  0  0
    0.0265    0.5600    4.3358 C   0  0  0  0  0  0  0  0  0  0  0  0
    0.8964    1.2200    4.3632 H   0  0  0  0  0  0  0  0  0  0  0  0
   -0.7726    0.9946    4.9382 H   0  0  0  0  0  0  0  0  0  0  0  0
    0.3119   -0.4069    4.7547 H   0  0  0  0  0  0  0  0  0  0  0  0
  5  6  2  0  0  0  0
  5  7  1  0  0  0  0
  2  3  1  0  0  0  0
  2  4  1  0  0  0  0
  2  5  1  0  0  0  0
  1  2  1  0  0  0  0
 24 25  2  0  0  0  0
 24 26  1  0  0  0  0
 20 21  1  0  0  0  0
 20 22  1  0  0  0  0
 20 23  1  0  0  0  0
 17 18  1  0  0  0  0
 17 19  1  0  0  0  0
 17 20  1  0  0  0  0
 13 14  1  0  0  0  0
 13 15  1  0  0  0  0
 13 16  1  0  0  0  0
 11 12  1  0  0  0  0
 11 13  1  0  0  0  0
 11 17  1  0  0  0  0
  9 10  1  0  0  0  0
  9 11  1  0  0  0  0
  9 24  1  0  0  0  0
  7  8  1  0  0  0  0
  7  9  1  0  0  0  0
 28 29  1  0  0  0  0
 28 30  1  0  0  0  0
 28 31  1  0  0  0  0
 26 27  1  0  0  0  0
 26 28  1  0  0  0  0
M  END
$$$$
default_name
  -OEChem-02102213163D

 31 30  0     1  0  0  0  0  0999 V2000
   -3.0760   -3.6390    1.5496 H   0  0  0  0  0  0  0  0  0  0  0  0
   -3.0940   -2.6290    1.1426 C   0  0  0  0  0  0  0  0  0  0  0  0
   -3.7160   -1.9930    1.7706 H   0  0  0  0  0  0  0  0  0  0  0  0
   -3.4880   -2.6500    0.1286 H   0  0  0  0  0  0  0  0  0  0  0  0
   -1.6860   -2.0850    1.1196 C   0  0  0  0  0  0  0  0  0  0  0  0
   -0.7540   -2.7700    1.5226 O   0  0  0  0  0  0  0  0  0  0  0  0
   -1.5320   -0.8490    0.6496 N   0  0  0  0  0  0  0  0  0  0  0  0
   -2.3500   -0.3360    0.3566 H   0  0  0  0  0  0  0  0  0  0  0  0
   -0.2470   -0.1410    0.5576 C   0  0  1  0  0  0  0  0  0  0  0  0
    0.4239   -0.7541   -0.0450 H   0  0  0  0  0  0  0  0  0  0  0  0
   -0.4317    1.2160   -0.1683 C   0  0  1  0  0  0  0  0  0  0  0  0
   -1.2192    1.0784   -0.9118 H   0  0  0  0  0  0  0  0  0  0  0  0
   -0.8799    2.3383    0.7872 C   0  0  0  0  0  0  0  0  0  0  0  0
   -0.0920    2.5673    1.5070 H   0  0  0  0  0  0  0  0  0  0  0  0
   -1.1214    3.2393    0.2256 H   0  0  0  0  0  0  0  0  0  0  0  0
   -1.7754    2.0348    1.3307 H   0  0  0  0  0  0  0  0  0  0  0  0
    0.8529    1.6176   -0.9274 C   0  0  0  0  0  0  0  0  0  0  0  0
    1.3894    2.3866   -0.3702 H   0  0  0  0  0  0  0  0  0  0  0  0
    1.4982    0.7433   -1.0116 H   0  0  0  0  0  0  0  0  0  0  0  0
    0.5938    2.1339   -2.3492 C   0  0  0  0  0  0  0  0  0  0  0  0
    0.0397    3.0719   -2.3203 H   0  0  0  0  0  0  0  0  0  0  0  0
    1.5476    2.3100   -2.8471 H   0  0  0  0  0  0  0  0  0  0  0  0
    0.0288    1.3943   -2.9176 H   0  0  0  0  0  0  0  0  0  0  0  0
    0.3833   -0.0008    1.9525 C   0  0  0  0  0  0  0  0  0  0  0  0
    1.5803   -0.2304    2.1189 O   0  0  0  0  0  0  0  0  0  0  0  0
   -0.4170    0.3858    2.9541 N   0  0  0  0  0  0  0  0  0  0  0  0
   -1.3850    0.5669    2.7398 H   0  0  0  0  0  0  0  0  0  0  0  0
    0.0265    0.5600    4.3358 C   0  0  0  0  0  0  0  0  0  0  0  0
    0.8964    1.2200    4.3632 H   0  0  0  0  0  0  0  0  0  0  0  0
   -0.7726    0.9946    4.9382 H   0  0  0  0  0  0  0  0  0  0  0  0
    0.3119   -0.4069    4.7547 H   0  0  0  0  0  0  0  0  0  0  0  0
  5  6  2  0  0  0  0
  5  7  1  0  0  0  0
  2  3  1  0  0  0  0
  2  4  1  0  0  0  0
  2  5  1  0  0  0  0
  1  2  1  0  0  0  0
 24 25  2  0  0  0  0
 24 26  1  0  0  0  0
 20 21  1  0  0  0  0
 20 22  1  0  0  0  0
 20 23  1  0  0  0  0
 17 18  1  0  0  0  0
 17 19  1  0  0  0  0
 17 20  1  0  0  0  0
 13 14  1  0  0  0  0
 13 15  1  0  0  0  0
 13 16  1  0  0  0  0
 11 12  1  0  0  0  0
 11 13  1  0  0  0  0
 11 17  1  0  0  0  0
  9 10  1  0  0  0  0
  9 11  1  0  0  0  0
  9 24  1  0  0  0  0
  7  8  1  0  0  0  0
  7  9  1  0  0  0  0
 28 29  1  0  0  0  0
 28 30  1  0  0  0  0
 28 31  1  0  0  0  0
 26 27  1  0  0  0  0
 26 28  1  0  0  0  0
M  END
$$$$
default_name
  -OEChem-02102213163D

 31 30  0     1  0  0  0  0  0999 V2000
   -3.0760   -3.6390    1.5496 H   0  0  0  0  0  0  0  0  0  0  0  0
   -3.0940   -2.6290    1.1426 C   0  0  0  0  0  0  0  0  0  0  0  0
   -3.7160   -1.9930    1.7706 H   0  0  0  0  0  0  0  0  0  0  0  0
   -3.4880   -2.6500    0.1286 H   0  0  0  0  0  0  0  0  0  0  0  0
   -1.6860   -2.0850    1.1196 C   0  0  0  0  0  0  0  0  0  0  0  0
   -0.7540   -2.7700    1.5226 O   0  0  0  0  0  0  0  0  0  0  0  0
   -1.5320   -0.8490    0.6496 N   0  0  0  0  0  0  0  0  0  0  0  0
   -2.3500   -0.3360    0.3566 H   0  0  0  0  0  0  0  0  0  0  0  0
   -0.2470   -0.1410    0.5576 C   0  0  1  0  0  0  0  0  0  0  0  0
    0.4239   -0.7541   -0.0450 H   0  0  0  0  0  0  0  0  0  0  0  0
   -0.4317    1.2160   -0.1683 C   0  0  1  0  0  0  0  0  0  0  0  0
   -1.2192    1.0784   -0.9118 H   0  0  0  0  0  0  0  0  0  0  0  0
   -0.8799    2.3383    0.7872 C   0  0  0  0  0  0  0  0  0  0  0  0
   -0.0920    2.5673    1.5070 H   0  0  0  0  0  0  0  0  0  0  0  0
   -1.1214    3.2393    0.2256 H   0  0  0  0  0  0  0  0  0  0  0  0
   -1.7754    2.0348    1.3307 H   0  0  0  0  0  0  0  0  0  0  0  0
    0.8529    1.6176   -0.9274 C   0  0  0  0  0  0  0  0  0  0  0  0
    1.5169    2.1756   -0.2660 H   0  0  0  0  0  0  0  0  0  0  0  0
    1.3693    0.7122   -1.2462 H   0  0  0  0  0  0  0  0  0  0  0  0
    0.5901    2.4606   -2.1826 C   0  0  0  0  0  0  0  0  0  0  0  0
    0.1696    3.4289   -1.9117 H   0  0  0  0  0  0  0  0  0  0  0  0
    1.5310    2.6261   -2.7079 H   0  0  0  0  0  0  0  0  0  0  0  0
   -0.0987    1.9369   -2.8463 H   0  0  0  0  0  0  0  0  0  0  0  0
    0.3833   -0.0008    1.9525 C   0  0  0  0  0  0  0  0  0  0  0  0
    1.5803   -0.2304    2.1189 O   0  0  0  0  0  0  0  0  0  0  0  0
   -0.4170    0.3858    2.9541 N   0  0  0  0  0  0  0  0  0  0  0  0
   -1.3850    0.5669    2.7398 H   0  0  0  0  0  0  0  0  0  0  0  0
    0.0265    0.5600    4.3358 C   0  0  0  0  0  0  0  0  0  0  0  0
    0.8964    1.2200    4.3632 H   0  0  0  0  0  0  0  0  0  0  0  0
   -0.7726    0.9946    4.9382 H   0  0  0  0  0  0  0  0  0  0  0  0
    0.3119   -0.4069    4.7547 H   0  0  0  0  0  0  0  0  0  0  0  0
  5  6  2  0  0  0  0
  5  7  1  0  0  0  0
  2  3  1  0  0  0  0
  2  4  1  0  0  0  0
  2  5  1  0  0  0  0
  1  2  1  0  0  0  0
 24 25  2  0  0  0  0
 24 26  1  0  0  0  0
 20 21  1  0  0  0  0
 20 22  1  0  0  0  0
 20 23  1  0  0  0  0
 17 18  1  0  0  0  0
 17 19  1  0  0  0  0
 17 20  1  0  0  0  0
 13 14  1  0  0  0  0
 13 15  1  0  0  0  0
 13 16  1  0  0  0  0
 11 12  1  0  0  0  0
 11 13  1  0  0  0  0
 11 17  1  0  0  0  0
  9 10  1  0  0  0  0
  9 11  1  0  0  0  0
  9 24  1  0  0  0  0
  7  8  1  0  0  0  0
  7  9  1  0  0  0  0
 28 29  1  0  0  0  0
 28 30  1  0  0  0  0
 28 31  1  0  0  0  0
 26 27  1  0  0  0  0
 26 28  1  0  0  0  0
M  END
$$$$
default_name
  -OEChem-02102213163D

 31 30  0     1  0  0  0  0  0999 V2000
   -3.0760   -3.6390    1.5496 H   0  0  0  0  0  0  0  0  0  0  0  0
   -3.0940   -2.6290    1.1426 C   0  0  0  0  0  0  0  0  0  0  0  0
   -3.7160   -1.9930    1.7706 H   0  0  0  0  0  0  0  0  0  0  0  0
   -3.4880   -2.6500    0.1286 H   0  0  0  0  0  0  0  0  0  0  0  0
   -1.6860   -2.0850    1.1196 C   0  0  0  0  0  0  0  0  0  0  0  0
   -0.7540   -2.7700    1.5226 O   0  0  0  0  0  0  0  0  0  0  0  0
   -1.5320   -0.8490    0.6496 N   0  0  0  0  0  0  0  0  0  0  0  0
   -2.3500   -0.3360    0.3566 H   0  0  0  0  0  0  0  0  0  0  0  0
   -0.2470   -0.1410    0.5576 C   0  0  1  0  0  0  0  0  0  0  0  0
    0.4239   -0.7541   -0.0450 H   0  0  0  0  0  0  0  0  0  0  0  0
   -0.4317    1.2160   -0.1683 C   0  0  1  0  0  0  0  0  0  0  0  0
   -1.2192    1.0784   -0.9118 H   0  0  0  0  0  0  0  0  0  0  0  0
   -0.8799    2.3383    0.7872 C   0  0  0  0  0  0  0  0  0  0  0  0
   -0.0920    2.5673    1.5070 H   0  0  0  0  0  0  0  0  0  0  0  0
   -1.1214    3.2393    0.2256 H   0  0  0  0  0  0  0  0  0  0  0  0
   -1.7754    2.0348    1.3307 H   0  0  0  0  0  0  0  0  0  0  0  0
    0.8529    1.6176   -0.9274 C   0  0  0  0  0  0  0  0  0  0  0  0
    1.6203    1.9331   -0.2194 H   0  0  0  0  0  0  0  0  0  0  0  0
    1.2251    0.7491   -1.4707 H   0  0  0  0  0  0  0  0  0  0  0  0
    0.6393    2.7409   -1.9511 C   0  0  0  0  0  0  0  0  0  0  0  0
    0.3679    3.6692   -1.4489 H   0  0  0  0  0  0  0  0  0  0  0  0
    1.5645    2.9037   -2.5043 H   0  0  0  0  0  0  0  0  0  0  0  0
   -0.1482    2.4620   -2.6521 H   0  0  0  0  0  0  0  0  0  0  0  0
    0.3833   -0.0008    1.9525 C   0  0  0  0  0  0  0  0  0  0  0  0
    1.5803   -0.2304    2.1189 O   0  0  0  0  0  0  0  0  0  0  0  0
   -0.4170    0.3858    2.9541 N   0  0  0  0  0  0  0  0  0  0  0  0
   -1.3850    0.5669    2.7398 H   0  0  0  0  0  0  0  0  0  0  0  0
    0.0265    0.5600    4.3358 C   0  0  0  0  0  0  0  0  0  0  0  0
    0.8964    1.2200    4.3632 H   0  0  0  0  0  0  0  0  0  0  0  0
   -0.7726    0.9946    4.9382 H   0  0  0  0  0  0  0  0  0  0  0  0
    0.3119   -0.4069    4.7547 H   0  0  0  0  0  0  0  0  0  0  0  0
  5  6  2  0  0  0  0
  5  7  1  0  0  0  0
  2  3  1  0  0  0  0
  2  4  1  0  0  0  0
  2  5  1  0  0  0  0
  1  2  1  0  0  0  0
 24 25  2  0  0  0  0
 24 26  1  0  0  0  0
 20 21  1  0  0  0  0
 20 22  1  0  0  0  0
 20 23  1  0  0  0  0
 17 18  1  0  0  0  0
 17 19  1  0  0  0  0
 17 20  1  0  0  0  0
 13 14  1  0  0  0  0
 13 15  1  0  0  0  0
 13 16  1  0  0  0  0
 11 12  1  0  0  0  0
 11 13  1  0  0  0  0
 11 17  1  0  0  0  0
  9 10  1  0  0  0  0
  9 11  1  0  0  0  0
  9 24  1  0  0  0  0
  7  8  1  0  0  0  0
  7  9  1  0  0  0  0
 28 29  1  0  0  0  0
 28 30  1  0  0  0  0
 28 31  1  0  0  0  0
 26 27  1  0  0  0  0
 26 28  1  0  0  0  0
M  END
$$$$
default_name
  -OEChem-02102213163D

 31 30  0     1  0  0  0  0  0999 V2000
   -3.0760   -3.6390    1.5496 H   0  0  0  0  0  0  0  0  0  0  0  0
   -3.0940   -2.6290    1.1426 C   0  0  0  0  0  0  0  0  0  0  0  0
   -3.7160   -1.9930    1.7706 H   0  0  0  0  0  0  0  0  0  0  0  0
   -3.4880   -2.6500    0.1286 H   0  0  0  0  0  0  0  0  0  0  0  0
   -1.6860   -2.0850    1.1196 C   0  0  0  0  0  0  0  0  0  0  0  0
   -0.7540   -2.7700    1.5226 O   0  0  0  0  0  0  0  0  0  0  0  0
   -1.5320   -0.8490    0.6496 N   0  0  0  0  0  0  0  0  0  0  0  0
   -2.3500   -0.3360    0.3566 H   0  0  0  0  0  0  0  0  0  0  0  0
   -0.2470   -0.1410    0.5576 C   0  0  1  0  0  0  0  0  0  0  0  0
    0.4239   -0.7541   -0.0450 H   0  0  0  0  0  0  0  0  0  0  0  0
   -0.4317    1.2160   -0.1683 C   0  0  1  0  0  0  0  0  0  0  0  0
   -1.3788    1.1653   -0.7089 H   0  0  0  0  0  0  0  0  0  0  0  0
   -0.5145    2.4014    0.8122 C   0  0  0  0  0  0  0  0  0  0  0  0
    0.4384    2.5424    1.3256 H   0  0  0  0  0  0  0  0  0  0  0  0
   -0.7702    3.3159    0.2794 H   0  0  0  0  0  0  0  0  0  0  0  0
   -1.2914    2.2213    1.5561 H   0  0  0  0  0  0  0  0  0  0  0  0
    0.6835    1.4413   -1.2138 C   0  0  0  0  0  0  0  0  0  0  0  0
    1.6603    1.4060   -0.7296 H   0  0  0  0  0  0  0  0  0  0  0  0
    0.6387    0.6409   -1.9523 H   0  0  0  0  0  0  0  0  0  0  0  0
    0.5602    2.7703   -1.9713 C   0  0  0  0  0  0  0  0  0  0  0  0
    0.7054    3.6115   -1.2937 H   0  0  0  0  0  0  0  0  0  0  0  0
    1.3249    2.8142   -2.7471 H   0  0  0  0  0  0  0  0  0  0  0  0
   -0.4226    2.8438   -2.4382 H   0  0  0  0  0  0  0  0  0  0  0  0
    0.3833   -0.0008    1.9525 C   0  0  0  0  0  0  0  0  0  0  0  0
    1.5803   -0.2304    2.1189 O   0  0  0  0  0  0  0  0  0  0  0  0
   -0.4170    0.3858    2.9541 N   0  0  0  0  0  0  0  0  0  0  0  0
   -1.3850    0.5669    2.7398 H   0  0  0  0  0  0  0  0  0  0  0  0
    0.0265    0.5600    4.3358 C   0  0  0  0  0  0  0  0  0  0  0  0
    0.8964    1.2200    4.3632 H   0  0  0  0  0  0  0  0  0  0  0  0
   -0.7726    0.9946    4.9382 H   0  0  0  0  0  0  0  0  0  0  0  0
    0.3119   -0.4069    4.7547 H   0  0  0  0  0  0  0  0  0  0  0  0
  5  6  2  0  0  0  0
  5  7  1  0  0  0  0
  2  3  1  0  0  0  0
  2  4  1  0  0  0  0
  2  5  1  0  0  0  0
  1  2  1  0  0  0  0
 24 25  2  0  0  0  0
 24 26  1  0  0  0  0
 20 21  1  0  0  0  0
 20 22  1  0  0  0  0
 20 23  1  0  0  0  0
 17 18  1  0  0  0  0
 17 19  1  0  0  0  0
 17 20  1  0  0  0  0
 13 14  1  0  0  0  0
 13 15  1  0  0  0  0
 13 16  1  0  0  0  0
 11 12  1  0  0  0  0
 11 13  1  0  0  0  0
 11 17  1  0  0  0  0
  9 10  1  0  0  0  0
  9 11  1  0  0  0  0
  9 24  1  0  0  0  0
  7  8  1  0  0  0  0
  7  9  1  0  0  0  0
 28 29  1  0  0  0  0
 28 30  1  0  0  0  0
 28 31  1  0  0  0  0
 26 27  1  0  0  0  0
 26 28  1  0  0  0  0
M  END
$$$$
default_name
  -OEChem-02102213163D

 31 30  0     1  0  0  0  0  0999 V2000
   -3.0760   -3.6390    1.5496 H   0  0  0  0  0  0  0  0  0  0  0  0
   -3.0940   -2.6290    1.1426 C   0  0  0  0  0  0  0  0  0  0  0  0
   -3.7160   -1.9930    1.7706 H   0  0  0  0  0  0  0  0  0  0  0  0
   -3.4880   -2.6500    0.1286 H   0  0  0  0  0  0  0  0  0  0  0  0
   -1.6860   -2.0850    1.1196 C   0  0  0  0  0  0  0  0  0  0  0  0
   -0.7540   -2.7700    1.5226 O   0  0  0  0  0  0  0  0  0  0  0  0
   -1.5320   -0.8490    0.6496 N   0  0  0  0  0  0  0  0  0  0  0  0
   -2.3500   -0.3360    0.3566 H   0  0  0  0  0  0  0  0  0  0  0  0
   -0.2470   -0.1410    0.5576 C   0  0  1  0  0  0  0  0  0  0  0  0
    0.4239   -0.7541   -0.0450 H   0  0  0  0  0  0  0  0  0  0  0  0
   -0.4317    1.2160   -0.1683 C   0  0  1  0  0  0  0  0  0  0  0  0
   -1.3788    1.1653   -0.7089 H   0  0  0  0  0  0  0  0  0  0  0  0
   -0.5145    2.4014    0.8122 C   0  0  0  0  0  0  0  0  0  0  0  0
    0.4384    2.5424    1.3256 H   0  0  0  0  0  0  0  0  0  0  0  0
   -0.7702    3.3159    0.2794 H   0  0  0  0  0  0  0  0  0  0  0  0
   -1.2914    2.2213    1.5561 H   0  0  0  0  0  0  0  0  0  0  0  0
    0.6835    1.4413   -1.2138 C   0  0  0  0  0  0  0  0  0  0  0  0
    1.6483    1.1475   -0.7981 H   0  0  0  0  0  0  0  0  0  0  0  0
    0.4809    0.8157   -2.0831 H   0  0  0  0  0  0  0  0  0  0  0  0
    0.7837    2.8912   -1.7068 C   0  0  0  0  0  0  0  0  0  0  0  0
    1.0912    3.5505   -0.8953 H   0  0  0  0  0  0  0  0  0  0  0  0
    1.5275    2.9500   -2.5018 H   0  0  0  0  0  0  0  0  0  0  0  0
   -0.1798    3.2196   -2.0981 H   0  0  0  0  0  0  0  0  0  0  0  0
    0.3833   -0.0008    1.9525 C   0  0  0  0  0  0  0  0  0  0  0  0
    1.5803   -0.2304    2.1189 O   0  0  0  0  0  0  0  0  0  0  0  0
   -0.4170    0.3858    2.9541 N   0  0  0  0  0  0  0  0  0  0  0  0
   -1.3850    0.5669    2.7398 H   0  0  0  0  0  0  0  0  0  0  0  0
    0.0265    0.5600    4.3358 C   0  0  0  0  0  0  0  0  0  0  0  0
    0.8964    1.2200    4.3632 H   0  0  0  0  0  0  0  0  0  0  0  0
   -0.7726    0.9946    4.9382 H   0  0  0  0  0  0  0  0  0  0  0  0
    0.3119   -0.4069    4.7547 H   0  0  0  0  0  0  0  0  0  0  0  0
  5  6  2  0  0  0  0
  5  7  1  0  0  0  0
  2  3  1  0  0  0  0
  2  4  1  0  0  0  0
  2  5  1  0  0  0  0
  1  2  1  0  0  0  0
 24 25  2  0  0  0  0
 24 26  1  0  0  0  0
 20 21  1  0  0  0  0
 20 22  1  0  0  0  0
 20 23  1  0  0  0  0
 17 18  1  0  0  0  0
 17 19  1  0  0  0  0
 17 20  1  0  0  0  0
 13 14  1  0  0  0  0
 13 15  1  0  0  0  0
 13 16  1  0  0  0  0
 11 12  1  0  0  0  0
 11 13  1  0  0  0  0
 11 17  1  0  0  0  0
  9 10  1  0  0  0  0
  9 11  1  0  0  0  0
  9 24  1  0  0  0  0
  7  8  1  0  0  0  0
  7  9  1  0  0  0  0
 28 29  1  0  0  0  0
 28 30  1  0  0  0  0
 28 31  1  0  0  0  0
 26 27  1  0  0  0  0
 26 28  1  0  0  0  0
M  END
$$$$
default_name
  -OEChem-02102213163D

 31 30  0     1  0  0  0  0  0999 V2000
   -3.0760   -3.6390    1.5496 H   0  0  0  0  0  0  0  0  0  0  0  0
   -3.0940   -2.6290    1.1426 C   0  0  0  0  0  0  0  0  0  0  0  0
   -3.7160   -1.9930    1.7706 H   0  0  0  0  0  0  0  0  0  0  0  0
   -3.4880   -2.6500    0.1286 H   0  0  0  0  0  0  0  0  0  0  0  0
   -1.6860   -2.0850    1.1196 C   0  0  0  0  0  0  0  0  0  0  0  0
   -0.7540   -2.7700    1.5226 O   0  0  0  0  0  0  0  0  0  0  0  0
   -1.5320   -0.8490    0.6496 N   0  0  0  0  0  0  0  0  0  0  0  0
   -2.3500   -0.3360    0.3566 H   0  0  0  0  0  0  0  0  0  0  0  0
   -0.2470   -0.1410    0.5576 C   0  0  1  0  0  0  0  0  0  0  0  0
    0.4239   -0.7541   -0.0450 H   0  0  0  0  0  0  0  0  0  0  0  0
   -0.4317    1.2160   -0.1683 C   0  0  1  0  0  0  0  0  0  0  0  0
   -1.3788    1.1653   -0.7089 H   0  0  0  0  0  0  0  0  0  0  0  0
   -0.5145    2.4014    0.8122 C   0  0  0  0  0  0  0  0  0  0  0  0
    0.4384    2.5424    1.3256 H   0  0  0  0  0  0  0  0  0  0  0  0
   -0.7702    3.3159    0.2794 H   0  0  0  0  0  0  0  0  0  0  0  0
   -1.2914    2.2213    1.5561 H   0  0  0  0  0  0  0  0  0  0  0  0
    0.6835    1.4413   -1.2138 C   0  0  0  0  0  0  0  0  0  0  0  0
    1.5888    0.9127   -0.9122 H   0  0  0  0  0  0  0  0  0  0  0  0
    0.3540    1.0366   -2.1707 H   0  0  0  0  0  0  0  0  0  0  0  0
    1.0308    2.9194   -1.4372 C   0  0  0  0  0  0  0  0  0  0  0  0
    1.4682    3.3497   -0.5365 H   0  0  0  0  0  0  0  0  0  0  0  0
    1.7561    2.9998   -2.2472 H   0  0  0  0  0  0  0  0  0  0  0  0
    0.1335    3.4766   -1.7086 H   0  0  0  0  0  0  0  0  0  0  0  0
    0.3833   -0.0008    1.9525 C   0  0  0  0  0  0  0  0  0  0  0  0
    1.5803   -0.2304    2.1189 O   0  0  0  0  0  0  0  0  0  0  0  0
   -0.4170    0.3858    2.9541 N   0  0  0  0  0  0  0  0  0  0  0  0
   -1.3850    0.5669    2.7398 H   0  0  0  0  0  0  0  0  0  0  0  0
    0.0265    0.5600    4.3358 C   0  0  0  0  0  0  0  0  0  0  0  0
    0.8964    1.2200    4.3632 H   0  0  0  0  0  0  0  0  0  0  0  0
   -0.7726    0.9946    4.9382 H   0  0  0  0  0  0  0  0  0  0  0  0
    0.3119   -0.4069    4.7547 H   0  0  0  0  0  0  0  0  0  0  0  0
  5  6  2  0  0  0  0
  5  7  1  0  0  0  0
  2  3  1  0  0  0  0
  2  4  1  0  0  0  0
  2  5  1  0  0  0  0
  1  2  1  0  0  0  0
 24 25  2  0  0  0  0
 24 26  1  0  0  0  0
 20 21  1  0  0  0  0
 20 22  1  0  0  0  0
 20 23  1  0  0  0  0
 17 18  1  0  0  0  0
 17 19  1  0  0  0  0
 17 20  1  0  0  0  0
 13 14  1  0  0  0  0
 13 15  1  0  0  0  0
 13 16  1  0  0  0  0
 11 12  1  0  0  0  0
 11 13  1  0  0  0  0
 11 17  1  0  0  0  0
  9 10  1  0  0  0  0
  9 11  1  0  0  0  0
  9 24  1  0  0  0  0
  7  8  1  0  0  0  0
  7  9  1  0  0  0  0
 28 29  1  0  0  0  0
 28 30  1  0  0  0  0
 28 31  1  0  0  0  0
 26 27  1  0  0  0  0
 26 28  1  0  0  0  0
M  END
$$$$
default_name
  -OEChem-02102213163D

 31 30  0     1  0  0  0  0  0999 V2000
   -3.0760   -3.6390    1.5496 H   0  0  0  0  0  0  0  0  0  0  0  0
   -3.0940   -2.6290    1.1426 C   0  0  0  0  0  0  0  0  0  0  0  0
   -3.7160   -1.9930    1.7706 H   0  0  0  0  0  0  0  0  0  0  0  0
   -3.4880   -2.6500    0.1286 H   0  0  0  0  0  0  0  0  0  0  0  0
   -1.6860   -2.0850    1.1196 C   0  0  0  0  0  0  0  0  0  0  0  0
   -0.7540   -2.7700    1.5226 O   0  0  0  0  0  0  0  0  0  0  0  0
   -1.5320   -0.8490    0.6496 N   0  0  0  0  0  0  0  0  0  0  0  0
   -2.3500   -0.3360    0.3566 H   0  0  0  0  0  0  0  0  0  0  0  0
   -0.2470   -0.1410    0.5576 C   0  0  1  0  0  0  0  0  0  0  0  0
    0.4239   -0.7541   -0.0450 H   0  0  0  0  0  0  0  0  0  0  0  0
   -0.4317    1.2160   -0.1683 C   0  0  1  0  0  0  0  0  0  0  0  0
   -1.3788    1.1653   -0.7089 H   0  0  0  0  0  0  0  0  0  0  0  0
   -0.5145    2.4014    0.8122 C   0  0  0  0  0  0  0  0  0  0  0  0
    0.4384    2.5424    1.3256 H   0  0  0  0  0  0  0  0  0  0  0  0
   -0.7702    3.3159    0.2794 H   0  0  0  0  0  0  0  0  0  0  0  0
   -1.2914    2.2213    1.5561 H   0  0  0  0  0  0  0  0  0  0  0  0
    0.6835    1.4413   -1.2138 C   0  0  0  0  0  0  0  0  0  0  0  0
    1.4859    0.7177   -1.0639 H   0  0  0  0  0  0  0  0  0  0  0  0
    0.2669    1.2886   -2.2094 H   0  0  0  0  0  0  0  0  0  0  0  0
    1.2846    2.8530   -1.1808 C   0  0  0  0  0  0  0  0  0  0  0  0
    1.8107    3.0226   -0.2416 H   0  0  0  0  0  0  0  0  0  0  0  0
    1.9953    2.9603   -2.0005 H   0  0  0  0  0  0  0  0  0  0  0  0
    0.4958    3.5971   -1.2962 H   0  0  0  0  0  0  0  0  0  0  0  0
    0.3833   -0.0008    1.9525 C   0  0  0  0  0  0  0  0  0  0  0  0
    1.5803   -0.2304    2.1189 O   0  0  0  0  0  0  0  0  0  0  0  0
   -0.4170    0.3858    2.9541 N   0  0  0  0  0  0  0  0  0  0  0  0
   -1.3850    0.5669    2.7398 H   0  0  0  0  0  0  0  0  0  0  0  0
    0.0265    0.5600    4.3358 C   0  0  0  0  0  0  0  0  0  0  0  0
    0.8964    1.2200    4.3632 H   0  0  0  0  0  0  0  0  0  0  0  0
   -0.7726    0.9946    4.9382 H   0  0  0  0  0  0  0  0  0  0  0  0
    0.3119   -0.4069    4.7547 H   0  0  0  0  0  0  0  0  0  0  0  0
  5  6  2  0  0  0  0
  5  7  1  0  0  0  0
  2  3  1  0  0  0  0
  2  4  1  0  0  0  0
  2  5  1  0  0  0  0
  1  2  1  0  0  0  0
 24 25  2  0  0  0  0
 24 26  1  0  0  0  0
 20 21  1  0  0  0  0
 20 22  1  0  0  0  0
 20 23  1  0  0  0  0
 17 18  1  0  0  0  0
 17 19  1  0  0  0  0
 17 20  1  0  0  0  0
 13 14  1  0  0  0  0
 13 15  1  0  0  0  0
 13 16  1  0  0  0  0
 11 12  1  0  0  0  0
 11 13  1  0  0  0  0
 11 17  1  0  0  0  0
  9 10  1  0  0  0  0
  9 11  1  0  0  0  0
  9 24  1  0  0  0  0
  7  8  1  0  0  0  0
  7  9  1  0  0  0  0
 28 29  1  0  0  0  0
 28 30  1  0  0  0  0
 28 31  1  0  0  0  0
 26 27  1  0  0  0  0
 26 28  1  0  0  0  0
M  END
$$$$
default_name
  -OEChem-02102213163D

 31 30  0     1  0  0  0  0  0999 V2000
   -3.0760   -3.6390    1.5496 H   0  0  0  0  0  0  0  0  0  0  0  0
   -3.0940   -2.6290    1.1426 C   0  0  0  0  0  0  0  0  0  0  0  0
   -3.7160   -1.9930    1.7706 H   0  0  0  0  0  0  0  0  0  0  0  0
   -3.4880   -2.6500    0.1286 H   0  0  0  0  0  0  0  0  0  0  0  0
   -1.6860   -2.0850    1.1196 C   0  0  0  0  0  0  0  0  0  0  0  0
   -0.7540   -2.7700    1.5226 O   0  0  0  0  0  0  0  0  0  0  0  0
   -1.5320   -0.8490    0.6496 N   0  0  0  0  0  0  0  0  0  0  0  0
   -2.3500   -0.3360    0.3566 H   0  0  0  0  0  0  0  0  0  0  0  0
   -0.2470   -0.1410    0.5576 C   0  0  1  0  0  0  0  0  0  0  0  0
    0.4239   -0.7541   -0.0450 H   0  0  0  0  0  0  0  0  0  0  0  0
   -0.4317    1.2160   -0.1683 C   0  0  1  0  0  0  0  0  0  0  0  0
   -1.3788    1.1653   -0.7089 H   0  0  0  0  0  0  0  0  0  0  0  0
   -0.5145    2.4014    0.8122 C   0  0  0  0  0  0  0  0  0  0  0  0
    0.4384    2.5424    1.3256 H   0  0  0  0  0  0  0  0  0  0  0  0
   -0.7702    3.3159    0.2794 H   0  0  0  0  0  0  0  0  0  0  0  0
   -1.2914    2.2213    1.5561 H   0  0  0  0  0  0  0  0  0  0  0  0
    0.6835    1.4413   -1.2138 C   0  0  0  0  0  0  0  0  0  0  0  0
    1.3467    0.5757   -1.2431 H   0  0  0  0  0  0  0  0  0  0  0  0
    0.2254    1.5545   -2.1963 H   0  0  0  0  0  0  0  0  0  0  0  0
    1.5278    2.6965   -0.9552 C   0  0  0  0  0  0  0  0  0  0  0  0
    2.0954    2.5916   -0.0308 H   0  0  0  0  0  0  0  0  0  0  0  0
    2.2288    2.8343   -1.7787 H   0  0  0  0  0  0  0  0  0  0  0  0
    0.8824    3.5731   -0.8890 H   0  0  0  0  0  0  0  0  0  0  0  0
    0.3833   -0.0008    1.9525 C   0  0  0  0  0  0  0  0  0  0  0  0
    1.5803   -0.2304    2.1189 O   0  0  0  0  0  0  0  0  0  0  0  0
   -0.4170    0.3858    2.9541 N   0  0  0  0  0  0  0  0  0  0  0  0
   -1.3850    0.5669    2.7398 H   0  0  0  0  0  0  0  0  0  0  0  0
    0.0265    0.5600    4.3358 C   0  0  0  0  0  0  0  0  0  0  0  0
    0.8964    1.2200    4.3632 H   0  0  0  0  0  0  0  0  0  0  0  0
   -0.7726    0.9946    4.9382 H   0  0  0  0  0  0  0  0  0  0  0  0
    0.3119   -0.4069    4.7547 H   0  0  0  0  0  0  0  0  0  0  0  0
  5  6  2  0  0  0  0
  5  7  1  0  0  0  0
  2  3  1  0  0  0  0
  2  4  1  0  0  0  0
  2  5  1  0  0  0  0
  1  2  1  0  0  0  0
 24 25  2  0  0  0  0
 24 26  1  0  0  0  0
 20 21  1  0  0  0  0
 20 22  1  0  0  0  0
 20 23  1  0  0  0  0
 17 18  1  0  0  0  0
 17 19  1  0  0  0  0
 17 20  1  0  0  0  0
 13 14  1  0  0  0  0
 13 15  1  0  0  0  0
 13 16  1  0  0  0  0
 11 12  1  0  0  0  0
 11 13  1  0  0  0  0
 11 17  1  0  0  0  0
  9 10  1  0  0  0  0
  9 11  1  0  0  0  0
  9 24  1  0  0  0  0
  7  8  1  0  0  0  0
  7  9  1  0  0  0  0
 28 29  1  0  0  0  0
 28 30  1  0  0  0  0
 28 31  1  0  0  0  0
 26 27  1  0  0  0  0
 26 28  1  0  0  0  0
M  END
$$$$
default_name
  -OEChem-02102213163D

 31 30  0     1  0  0  0  0  0999 V2000
   -3.0760   -3.6390    1.5496 H   0  0  0  0  0  0  0  0  0  0  0  0
   -3.0940   -2.6290    1.1426 C   0  0  0  0  0  0  0  0  0  0  0  0
   -3.7160   -1.9930    1.7706 H   0  0  0  0  0  0  0  0  0  0  0  0
   -3.4880   -2.6500    0.1286 H   0  0  0  0  0  0  0  0  0  0  0  0
   -1.6860   -2.0850    1.1196 C   0  0  0  0  0  0  0  0  0  0  0  0
   -0.7540   -2.7700    1.5226 O   0  0  0  0  0  0  0  0  0  0  0  0
   -1.5320   -0.8490    0.6496 N   0  0  0  0  0  0  0  0  0  0  0  0
   -2.3500   -0.3360    0.3566 H   0  0  0  0  0  0  0  0  0  0  0  0
   -0.2470   -0.1410    0.5576 C   0  0  1  0  0  0  0  0  0  0  0  0
    0.4239   -0.7541   -0.0450 H   0  0  0  0  0  0  0  0  0  0  0  0
   -0.4317    1.2160   -0.1683 C   0  0  1  0  0  0  0  0  0  0  0  0
   -1.3788    1.1653   -0.7089 H   0  0  0  0  0  0  0  0  0  0  0  0
   -0.5145    2.4014    0.8122 C   0  0  0  0  0  0  0  0  0  0  0  0
    0.4384    2.5424    1.3256 H   0  0  0  0  0  0  0  0  0  0  0  0
   -0.7702    3.3159    0.2794 H   0  0  0  0  0  0  0  0  0  0  0  0
   -1.2914    2.2213    1.5561 H   0  0  0  0  0  0  0  0  0  0  0  0
    0.6835    1.4413   -1.2138 C   0  0  0  0  0  0  0  0  0  0  0  0
    1.1805    0.4964   -1.4374 H   0  0  0  0  0  0  0  0  0  0  0  0
    0.2323    1.8161   -2.1325 H   0  0  0  0  0  0  0  0  0  0  0  0
    1.7438    2.4607   -0.7756 C   0  0  0  0  0  0  0  0  0  0  0  0
    2.3029    2.0861    0.0816 H   0  0  0  0  0  0  0  0  0  0  0  0
    2.4406    2.6301   -1.5968 H   0  0  0  0  0  0  0  0  0  0  0  0
    1.2669    3.4061   -0.5148 H   0  0  0  0  0  0  0  0  0  0  0  0
    0.3833   -0.0008    1.9525 C   0  0  0  0  0  0  0  0  0  0  0  0
    1.5803   -0.2304    2.1189 O   0  0  0  0  0  0  0  0  0  0  0  0
   -0.4170    0.3858    2.9541 N   0  0  0  0  0  0  0  0  0  0  0  0
   -1.3850    0.5669    2.7398 H   0  0  0  0  0  0  0  0  0  0  0  0
    0.0265    0.5600    4.3358 C   0  0  0  0  0  0  0  0  0  0  0  0
    0.8964    1.2200    4.3632 H   0  0  0  0  0  0  0  0  0  0  0  0
   -0.7726    0.9946    4.9382 H   0  0  0  0  0  0  0  0  0  0  0  0
    0.3119   -0.4069    4.7547 H   0  0  0  0  0  0  0  0  0  0  0  0
  5  6  2  0  0  0  0
  5  7  1  0  0  0  0
  2  3  1  0  0  0  0
  2  4  1  0  0  0  0
  2  5  1  0  0  0  0
  1  2  1  0  0  0  0
 24 25  2  0  0  0  0
 24 26  1  0  0  0  0
 20 21  1  0  0  0  0
 20 22  1  0  0  0  0
 20 23  1  0  0  0  0
 17 18  1  0  0  0  0
 17 19  1  0  0  0  0
 17 20  1  0  0  0  0
 13 14  1  0  0  0  0
 13 15  1  0  0  0  0
 13 16  1  0  0  0  0
 11 12  1  0  0  0  0
 11 13  1  0  0  0  0
 11 17  1  0  0  0  0
  9 10  1  0  0  0  0
  9 11  1  0  0  0  0
  9 24  1  0  0  0  0
  7  8  1  0  0  0  0
  7  9  1  0  0  0  0
 28 29  1  0  0  0  0
 28 30  1  0  0  0  0
 28 31  1  0  0  0  0
 26 27  1  0  0  0  0
 26 28  1  0  0  0  0
M  END
$$$$
default_name
  -OEChem-02102213163D

 31 30  0     1  0  0  0  0  0999 V2000
   -3.0760   -3.6390    1.5496 H   0  0  0  0  0  0  0  0  0  0  0  0
   -3.0940   -2.6290    1.1426 C   0  0  0  0  0  0  0  0  0  0  0  0
   -3.7160   -1.9930    1.7706 H   0  0  0  0  0  0  0  0  0  0  0  0
   -3.4880   -2.6500    0.1286 H   0  0  0  0  0  0  0  0  0  0  0  0
   -1.6860   -2.0850    1.1196 C   0  0  0  0  0  0  0  0  0  0  0  0
   -0.7540   -2.7700    1.5226 O   0  0  0  0  0  0  0  0  0  0  0  0
   -1.5320   -0.8490    0.6496 N   0  0  0  0  0  0  0  0  0  0  0  0
   -2.3500   -0.3360    0.3566 H   0  0  0  0  0  0  0  0  0  0  0  0
   -0.2470   -0.1410    0.5576 C   0  0  1  0  0  0  0  0  0  0  0  0
    0.4239   -0.7541   -0.0450 H   0  0  0  0  0  0  0  0  0  0  0  0
   -0.4317    1.2160   -0.1683 C   0  0  1  0  0  0  0  0  0  0  0  0
   -1.3788    1.1653   -0.7089 H   0  0  0  0  0  0  0  0  0  0  0  0
   -0.5145    2.4014    0.8122 C   0  0  0  0  0  0  0  0  0  0  0  0
    0.4384    2.5424    1.3256 H   0  0  0  0  0  0  0  0  0  0  0  0
   -0.7702    3.3159    0.2794 H   0  0  0  0  0  0  0  0  0  0  0  0
   -1.2914    2.2213    1.5561 H   0  0  0  0  0  0  0  0  0  0  0  0
    0.6835    1.4413   -1.2138 C   0  0  0  0  0  0  0  0  0  0  0  0
    0.9988    0.4851   -1.6336 H   0  0  0  0  0  0  0  0  0  0  0  0
    0.2873    2.0557   -2.0223 H   0  0  0  0  0  0  0  0  0  0  0  0
    1.9179    2.1615   -0.6544 C   0  0  0  0  0  0  0  0  0  0  0  0
    2.4191    1.5404    0.0879 H   0  0  0  0  0  0  0  0  0  0  0  0
    2.6163    2.3619   -1.4672 H   0  0  0  0  0  0  0  0  0  0  0  0
    1.6233    3.1076   -0.1990 H   0  0  0  0  0  0  0  0  0  0  0  0
    0.3833   -0.0008    1.9525 C   0  0  0  0  0  0  0  0  0  0  0  0
    1.5803   -0.2304    2.1189 O   0  0  0  0  0  0  0  0  0  0  0  0
   -0.4170    0.3858    2.9541 N   0  0  0  0  0  0  0  0  0  0  0  0
   -1.3850    0.5669    2.7398 H   0  0  0  0  0  0  0  0  0  0  0  0
    0.0265    0.5600    4.3358 C   0  0  0  0  0  0  0  0  0  0  0  0
    0.8964    1.2200    4.3632 H   0  0  0  0  0  0  0  0  0  0  0  0
   -0.7726    0.9946    4.9382 H   0  0  0  0  0  0  0  0  0  0  0  0
    0.3119   -0.4069    4.7547 H   0  0  0  0  0  0  0  0  0  0  0  0
  5  6  2  0  0  0  0
  5  7  1  0  0  0  0
  2  3  1  0  0  0  0
  2  4  1  0  0  0  0
  2  5  1  0  0  0  0
  1  2  1  0  0  0  0
 24 25  2  0  0  0  0
 24 26  1  0  0  0  0
 20 21  1  0  0  0  0
 20 22  1  0  0  0  0
 20 23  1  0  0  0  0
 17 18  1  0  0  0  0
 17 19  1  0  0  0  0
 17 20  1  0  0  0  0
 13 14  1  0  0  0  0
 13 15  1  0  0  0  0
 13 16  1  0  0  0  0
 11 12  1  0  0  0  0
 11 13  1  0  0  0  0
 11 17  1  0  0  0  0
  9 10  1  0  0  0  0
  9 11  1  0  0  0  0
  9 24  1  0  0  0  0
  7  8  1  0  0  0  0
  7  9  1  0  0  0  0
 28 29  1  0  0  0  0
 28 30  1  0  0  0  0
 28 31  1  0  0  0  0
 26 27  1  0  0  0  0
 26 28  1  0  0  0  0
M  END
$$$$
default_name
  -OEChem-02102213163D

 31 30  0     1  0  0  0  0  0999 V2000
   -3.0760   -3.6390    1.5496 H   0  0  0  0  0  0  0  0  0  0  0  0
   -3.0940   -2.6290    1.1426 C   0  0  0  0  0  0  0  0  0  0  0  0
   -3.7160   -1.9930    1.7706 H   0  0  0  0  0  0  0  0  0  0  0  0
   -3.4880   -2.6500    0.1286 H   0  0  0  0  0  0  0  0  0  0  0  0
   -1.6860   -2.0850    1.1196 C   0  0  0  0  0  0  0  0  0  0  0  0
   -0.7540   -2.7700    1.5226 O   0  0  0  0  0  0  0  0  0  0  0  0
   -1.5320   -0.8490    0.6496 N   0  0  0  0  0  0  0  0  0  0  0  0
   -2.3500   -0.3360    0.3566 H   0  0  0  0  0  0  0  0  0  0  0  0
   -0.2470   -0.1410    0.5576 C   0  0  1  0  0  0  0  0  0  0  0  0
    0.4239   -0.7541   -0.0450 H   0  0  0  0  0  0  0  0  0  0  0  0
   -0.4317    1.2160   -0.1683 C   0  0  1  0  0  0  0  0  0  0  0  0
   -1.3788    1.1653   -0.7089 H   0  0  0  0  0  0  0  0  0  0  0  0
   -0.5145    2.4014    0.8122 C   0  0  0  0  0  0  0  0  0  0  0  0
    0.4384    2.5424    1.3256 H   0  0  0  0  0  0  0  0  0  0  0  0
   -0.7702    3.3159    0.2794 H   0  0  0  0  0  0  0  0  0  0  0  0
   -1.2914    2.2213    1.5561 H   0  0  0  0  0  0  0  0  0  0  0  0
    0.6835    1.4413   -1.2138 C   0  0  0  0  0  0  0  0  0  0  0  0
    0.8139    0.5428   -1.8184 H   0  0  0  0  0  0  0  0  0  0  0  0
    0.3865    2.2569   -1.8731 H   0  0  0  0  0  0  0  0  0  0  0  0
    2.0382    1.8193   -0.5997 C   0  0  0  0  0  0  0  0  0  0  0  0
    2.4359    0.9919   -0.0124 H   0  0  0  0  0  0  0  0  0  0  0  0
    2.7439    2.0478   -1.3988 H   0  0  0  0  0  0  0  0  0  0  0  0
    1.9272    2.6978    0.0368 H   0  0  0  0  0  0  0  0  0  0  0  0
    0.3833   -0.0008    1.9525 C   0  0  0  0  0  0  0  0  0  0  0  0
    1.5803   -0.2304    2.1189 O   0  0  0  0  0  0  0  0  0  0  0  0
   -0.4170    0.3858    2.9541 N   0  0  0  0  0  0  0  0  0  0  0  0
   -1.3850    0.5669    2.7398 H   0  0  0  0  0  0  0  0  0  0  0  0
    0.0265    0.5600    4.3358 C   0  0  0  0  0  0  0  0  0  0  0  0
    0.8964    1.2200    4.3632 H   0  0  0  0  0  0  0  0  0  0  0  0
   -0.7726    0.9946    4.9382 H   0  0  0  0  0  0  0  0  0  0  0  0
    0.3119   -0.4069    4.7547 H   0  0  0  0  0  0  0  0  0  0  0  0
  5  6  2  0  0  0  0
  5  7  1  0  0  0  0
  2  3  1  0  0  0  0
  2  4  1  0  0  0  0
  2  5  1  0  0  0  0
  1  2  1  0  0  0  0
 24 25  2  0  0  0  0
 24 26  1  0  0  0  0
 20 21  1  0  0  0  0
 20 22  1  0  0  0  0
 20 23  1  0  0  0  0
 17 18  1  0  0  0  0
 17 19  1  0  0  0  0
 17 20  1  0  0  0  0
 13 14  1  0  0  0  0
 13 15  1  0  0  0  0
 13 16  1  0  0  0  0
 11 12  1  0  0  0  0
 11 13  1  0  0  0  0
 11 17  1  0  0  0  0
  9 10  1  0  0  0  0
  9 11  1  0  0  0  0
  9 24  1  0  0  0  0
  7  8  1  0  0  0  0
  7  9  1  0  0  0  0
 28 29  1  0  0  0  0
 28 30  1  0  0  0  0
 28 31  1  0  0  0  0
 26 27  1  0  0  0  0
 26 28  1  0  0  0  0
M  END
$$$$
default_name
  -OEChem-02102213163D

 31 30  0     1  0  0  0  0  0999 V2000
   -3.0760   -3.6390    1.5496 H   0  0  0  0  0  0  0  0  0  0  0  0
   -3.0940   -2.6290    1.1426 C   0  0  0  0  0  0  0  0  0  0  0  0
   -3.7160   -1.9930    1.7706 H   0  0  0  0  0  0  0  0  0  0  0  0
   -3.4880   -2.6500    0.1286 H   0  0  0  0  0  0  0  0  0  0  0  0
   -1.6860   -2.0850    1.1196 C   0  0  0  0  0  0  0  0  0  0  0  0
   -0.7540   -2.7700    1.5226 O   0  0  0  0  0  0  0  0  0  0  0  0
   -1.5320   -0.8490    0.6496 N   0  0  0  0  0  0  0  0  0  0  0  0
   -2.3500   -0.3360    0.3566 H   0  0  0  0  0  0  0  0  0  0  0  0
   -0.2470   -0.1410    0.5576 C   0  0  1  0  0  0  0  0  0  0  0  0
    0.4239   -0.7541   -0.0450 H   0  0  0  0  0  0  0  0  0  0  0  0
   -0.4317    1.2160   -0.1683 C   0  0  1  0  0  0  0  0  0  0  0  0
   -1.3788    1.1653   -0.7089 H   0  0  0  0  0  0  0  0  0  0  0  0
   -0.5145    2.4014    0.8122 C   0  0  0  0  0  0  0  0  0  0  0  0
    0.4384    2.5424    1.3256 H   0  0  0  0  0  0  0  0  0  0  0  0
   -0.7702    3.3159    0.2794 H   0  0  0  0  0  0  0  0  0  0  0  0
   -1.2914    2.2213    1.5561 H   0  0  0  0  0  0  0  0  0  0  0  0
    0.6835    1.4413   -1.2138 C   0  0  0  0  0  0  0  0  0  0  0  0
    0.6385    0.6653   -1.9791 H   0  0  0  0  0  0  0  0  0  0  0  0
    0.5232    2.4060   -1.6951 H   0  0  0  0  0  0  0  0  0  0  0  0
    2.0966    1.4575   -0.6154 C   0  0  0  0  0  0  0  0  0  0  0  0
    2.3524    0.4778   -0.2123 H   0  0  0  0  0  0  0  0  0  0  0  0
    2.8148    1.7093   -1.3961 H   0  0  0  0  0  0  0  0  0  0  0  0
    2.1578    2.2048    0.1765 H   0  0  0  0  0  0  0  0  0  0  0  0
    0.3833   -0.0008    1.9525 C   0  0  0  0  0  0  0  0  0  0  0  0
    1.5803   -0.2304    2.1189 O   0  0  0  0  0  0  0  0  0  0  0  0
   -0.4170    0.3858    2.9541 N   0  0  0  0  0  0  0  0  0  0  0  0
   -1.3850    0.5669    2.7398 H   0  0  0  0  0  0  0  0  0  0  0  0
    0.0265    0.5600    4.3358 C   0  0  0  0  0  0  0  0  0  0  0  0
    0.8964    1.2200    4.3632 H   0  0  0  0  0  0  0  0  0  0  0  0
   -0.7726    0.9946    4.9382 H   0  0  0  0  0  0  0  0  0  0  0  0
    0.3119   -0.4069    4.7547 H   0  0  0  0  0  0  0  0  0  0  0  0
  5  6  2  0  0  0  0
  5  7  1  0  0  0  0
  2  3  1  0  0  0  0
  2  4  1  0  0  0  0
  2  5  1  0  0  0  0
  1  2  1  0  0  0  0
 24 25  2  0  0  0  0
 24 26  1  0  0  0  0
 20 21  1  0  0  0  0
 20 22  1  0  0  0  0
 20 23  1  0  0  0  0
 17 18  1  0  0  0  0
 17 19  1  0  0  0  0
 17 20  1  0  0  0  0
 13 14  1  0  0  0  0
 13 15  1  0  0  0  0
 13 16  1  0  0  0  0
 11 12  1  0  0  0  0
 11 13  1  0  0  0  0
 11 17  1  0  0  0  0
  9 10  1  0  0  0  0
  9 11  1  0  0  0  0
  9 24  1  0  0  0  0
  7  8  1  0  0  0  0
  7  9  1  0  0  0  0
 28 29  1  0  0  0  0
 28 30  1  0  0  0  0
 28 31  1  0  0  0  0
 26 27  1  0  0  0  0
 26 28  1  0  0  0  0
M  END
$$$$
default_name
  -OEChem-02102213163D

 31 30  0     1  0  0  0  0  0999 V2000
   -3.0760   -3.6390    1.5496 H   0  0  0  0  0  0  0  0  0  0  0  0
   -3.0940   -2.6290    1.1426 C   0  0  0  0  0  0  0  0  0  0  0  0
   -3.7160   -1.9930    1.7706 H   0  0  0  0  0  0  0  0  0  0  0  0
   -3.4880   -2.6500    0.1286 H   0  0  0  0  0  0  0  0  0  0  0  0
   -1.6860   -2.0850    1.1196 C   0  0  0  0  0  0  0  0  0  0  0  0
   -0.7540   -2.7700    1.5226 O   0  0  0  0  0  0  0  0  0  0  0  0
   -1.5320   -0.8490    0.6496 N   0  0  0  0  0  0  0  0  0  0  0  0
   -2.3500   -0.3360    0.3566 H   0  0  0  0  0  0  0  0  0  0  0  0
   -0.2470   -0.1410    0.5576 C   0  0  1  0  0  0  0  0  0  0  0  0
    0.4239   -0.7541   -0.0450 H   0  0  0  0  0  0  0  0  0  0  0  0
   -0.4317    1.2160   -0.1683 C   0  0  1  0  0  0  0  0  0  0  0  0
   -1.3788    1.1653   -0.7089 H   0  0  0  0  0  0  0  0  0  0  0  0
   -0.5145    2.4014    0.8122 C   0  0  0  0  0  0  0  0  0  0  0  0
    0.4384    2.5424    1.3256 H   0  0  0  0  0  0  0  0  0  0  0  0
   -0.7702    3.3159    0.2794 H   0  0  0  0  0  0  0  0  0  0  0  0
   -1.2914    2.2213    1.5561 H   0  0  0  0  0  0  0  0  0  0  0  0
    0.6835    1.4413   -1.2138 C   0  0  0  0  0  0  0  0  0  0  0  0
    0.4844    0.8444   -2.1049 H   0  0  0  0  0  0  0  0  0  0  0  0
    0.6881    2.4929   -1.5006 H   0  0  0  0  0  0  0  0  0  0  0  0
    2.0891    1.1008   -0.7004 C   0  0  0  0  0  0  0  0  0  0  0  0
    2.1741    0.0332   -0.4983 H   0  0  0  0  0  0  0  0  0  0  0  0
    2.8240    1.3695   -1.4595 H   0  0  0  0  0  0  0  0  0  0  0  0
    2.2995    1.6620    0.2107 H   0  0  0  0  0  0  0  0  0  0  0  0
    0.3833   -0.0008    1.9525 C   0  0  0  0  0  0  0  0  0  0  0  0
    1.5803   -0.2304    2.1189 O   0  0  0  0  0  0  0  0  0  0  0  0
   -0.4170    0.3858    2.9541 N   0  0  0  0  0  0  0  0  0  0  0  0
   -1.3850    0.5669    2.7398 H   0  0  0  0  0  0  0  0  0  0  0  0
    0.0265    0.5600    4.3358 C   0  0  0  0  0  0  0  0  0  0  0  0
    0.8964    1.2200    4.3632 H   0  0  0  0  0  0  0  0  0  0  0  0
   -0.7726    0.9946    4.9382 H   0  0  0  0  0  0  0  0  0  0  0  0
    0.3119   -0.4069    4.7547 H   0  0  0  0  0  0  0  0  0  0  0  0
  5  6  2  0  0  0  0
  5  7  1  0  0  0  0
  2  3  1  0  0  0  0
  2  4  1  0  0  0  0
  2  5  1  0  0  0  0
  1  2  1  0  0  0  0
 24 25  2  0  0  0  0
 24 26  1  0  0  0  0
 20 21  1  0  0  0  0
 20 22  1  0  0  0  0
 20 23  1  0  0  0  0
 17 18  1  0  0  0  0
 17 19  1  0  0  0  0
 17 20  1  0  0  0  0
 13 14  1  0  0  0  0
 13 15  1  0  0  0  0
 13 16  1  0  0  0  0
 11 12  1  0  0  0  0
 11 13  1  0  0  0  0
 11 17  1  0  0  0  0
  9 10  1  0  0  0  0
  9 11  1  0  0  0  0
  9 24  1  0  0  0  0
  7  8  1  0  0  0  0
  7  9  1  0  0  0  0
 28 29  1  0  0  0  0
 28 30  1  0  0  0  0
 28 31  1  0  0  0  0
 26 27  1  0  0  0  0
 26 28  1  0  0  0  0
M  END
$$$$
default_name
  -OEChem-02102213163D

 31 30  0     1  0  0  0  0  0999 V2000
   -3.0760   -3.6390    1.5496 H   0  0  0  0  0  0  0  0  0  0  0  0
   -3.0940   -2.6290    1.1426 C   0  0  0  0  0  0  0  0  0  0  0  0
   -3.7160   -1.9930    1.7706 H   0  0  0  0  0  0  0  0  0  0  0  0
   -3.4880   -2.6500    0.1286 H   0  0  0  0  0  0  0  0  0  0  0  0
   -1.6860   -2.0850    1.1196 C   0  0  0  0  0  0  0  0  0  0  0  0
   -0.7540   -2.7700    1.5226 O   0  0  0  0  0  0  0  0  0  0  0  0
   -1.5320   -0.8490    0.6496 N   0  0  0  0  0  0  0  0  0  0  0  0
   -2.3500   -0.3360    0.3566 H   0  0  0  0  0  0  0  0  0  0  0  0
   -0.2470   -0.1410    0.5576 C   0  0  1  0  0  0  0  0  0  0  0  0
    0.4239   -0.7541   -0.0450 H   0  0  0  0  0  0  0  0  0  0  0  0
   -0.4317    1.2160   -0.1683 C   0  0  1  0  0  0  0  0  0  0  0  0
   -1.3788    1.1653   -0.7089 H   0  0  0  0  0  0  0  0  0  0  0  0
   -0.5145    2.4014    0.8122 C   0  0  0  0  0  0  0  0  0  0  0  0
    0.4384    2.5424    1.3256 H   0  0  0  0  0  0  0  0  0  0  0  0
   -0.7702    3.3159    0.2794 H   0  0  0  0  0  0  0  0  0  0  0  0
   -1.2914    2.2213    1.5561 H   0  0  0  0  0  0  0  0  0  0  0  0
    0.6835    1.4413   -1.2138 C   0  0  0  0  0  0  0  0  0  0  0  0
    0.3622    1.0680   -2.1871 H   0  0  0  0  0  0  0  0  0  0  0  0
    0.8699    2.5115   -1.3026 H   0  0  0  0  0  0  0  0  0  0  0  0
    2.0161    0.7734   -0.8487 C   0  0  0  0  0  0  0  0  0  0  0  0
    1.9132   -0.3116   -0.8509 H   0  0  0  0  0  0  0  0  0  0  0  0
    2.7711    1.0514   -1.5845 H   0  0  0  0  0  0  0  0  0  0  0  0
    2.3427    1.1065    0.1370 H   0  0  0  0  0  0  0  0  0  0  0  0
    0.3833   -0.0008    1.9525 C   0  0  0  0  0  0  0  0  0  0  0  0
    1.5803   -0.2304    2.1189 O   0  0  0  0  0  0  0  0  0  0  0  0
   -0.4170    0.3858    2.9541 N   0  0  0  0  0  0  0  0  0  0  0  0
   -1.3850    0.5669    2.7398 H   0  0  0  0  0  0  0  0  0  0  0  0
    0.0265    0.5600    4.3358 C   0  0  0  0  0  0  0  0  0  0  0  0
    0.8964    1.2200    4.3632 H   0  0  0  0  0  0  0  0  0  0  0  0
   -0.7726    0.9946    4.9382 H   0  0  0  0  0  0  0  0  0  0  0  0
    0.3119   -0.4069    4.7547 H   0  0  0  0  0  0  0  0  0  0  0  0
  5  6  2  0  0  0  0
  5  7  1  0  0  0  0
  2  3  1  0  0  0  0
  2  4  1  0  0  0  0
  2  5  1  0  0  0  0
  1  2  1  0  0  0  0
 24 25  2  0  0  0  0
 24 26  1  0  0  0  0
 20 21  1  0  0  0  0
 20 22  1  0  0  0  0
 20 23  1  0  0  0  0
 17 18  1  0  0  0  0
 17 19  1  0  0  0  0
 17 20  1  0  0  0  0
 13 14  1  0  0  0  0
 13 15  1  0  0  0  0
 13 16  1  0  0  0  0
 11 12  1  0  0  0  0
 11 13  1  0  0  0  0
 11 17  1  0  0  0  0
  9 10  1  0  0  0  0
  9 11  1  0  0  0  0
  9 24  1  0  0  0  0
  7  8  1  0  0  0  0
  7  9  1  0  0  0  0
 28 29  1  0  0  0  0
 28 30  1  0  0  0  0
 28 31  1  0  0  0  0
 26 27  1  0  0  0  0
 26 28  1  0  0  0  0
M  END
$$$$
default_name
  -OEChem-02102213163D

 31 30  0     1  0  0  0  0  0999 V2000
   -3.0760   -3.6390    1.5496 H   0  0  0  0  0  0  0  0  0  0  0  0
   -3.0940   -2.6290    1.1426 C   0  0  0  0  0  0  0  0  0  0  0  0
   -3.7160   -1.9930    1.7706 H   0  0  0  0  0  0  0  0  0  0  0  0
   -3.4880   -2.6500    0.1286 H   0  0  0  0  0  0  0  0  0  0  0  0
   -1.6860   -2.0850    1.1196 C   0  0  0  0  0  0  0  0  0  0  0  0
   -0.7540   -2.7700    1.5226 O   0  0  0  0  0  0  0  0  0  0  0  0
   -1.5320   -0.8490    0.6496 N   0  0  0  0  0  0  0  0  0  0  0  0
   -2.3500   -0.3360    0.3566 H   0  0  0  0  0  0  0  0  0  0  0  0
   -0.2470   -0.1410    0.5576 C   0  0  1  0  0  0  0  0  0  0  0  0
    0.4239   -0.7541   -0.0450 H   0  0  0  0  0  0  0  0  0  0  0  0
   -0.4317    1.2160   -0.1683 C   0  0  1  0  0  0  0  0  0  0  0  0
   -1.3788    1.1653   -0.7089 H   0  0  0  0  0  0  0  0  0  0  0  0
   -0.5145    2.4014    0.8122 C   0  0  0  0  0  0  0  0  0  0  0  0
    0.4384    2.5424    1.3256 H   0  0  0  0  0  0  0  0  0  0  0  0
   -0.7702    3.3159    0.2794 H   0  0  0  0  0  0  0  0  0  0  0  0
   -1.2914    2.2213    1.5561 H   0  0  0  0  0  0  0  0  0  0  0  0
    0.6835    1.4413   -1.2138 C   0  0  0  0  0  0  0  0  0  0  0  0
    0.2801    1.3206   -2.2201 H   0  0  0  0  0  0  0  0  0  0  0  0
    1.0562    2.4608   -1.1148 H   0  0  0  0  0  0  0  0  0  0  0  0
    1.8827    0.4976   -1.0505 C   0  0  0  0  0  0  0  0  0  0  0  0
    1.5875   -0.5331   -1.2460 H   0  0  0  0  0  0  0  0  0  0  0  0
    2.6595    0.7768   -1.7627 H   0  0  0  0  0  0  0  0  0  0  0  0
    2.2843    0.5762   -0.0396 H   0  0  0  0  0  0  0  0  0  0  0  0
    0.3833   -0.0008    1.9525 C   0  0  0  0  0  0  0  0  0  0  0  0
    1.5803   -0.2304    2.1189 O   0  0  0  0  0  0  0  0  0  0  0  0
   -0.4170    0.3858    2.9541 N   0  0  0  0  0  0  0  0  0  0  0  0
   -1.3850    0.5669    2.7398 H   0  0  0  0  0  0  0  0  0  0  0  0
    0.0265    0.5600    4.3358 C   0  0  0  0  0  0  0  0  0  0  0  0
    0.8964    1.2200    4.3632 H   0  0  0  0  0  0  0  0  0  0  0  0
   -0.7726    0.9946    4.9382 H   0  0  0  0  0  0  0  0  0  0  0  0
    0.3119   -0.4069    4.7547 H   0  0  0  0  0  0  0  0  0  0  0  0
  5  6  2  0  0  0  0
  5  7  1  0  0  0  0
  2  3  1  0  0  0  0
  2  4  1  0  0  0  0
  2  5  1  0  0  0  0
  1  2  1  0  0  0  0
 24 25  2  0  0  0  0
 24 26  1  0  0  0  0
 20 21  1  0  0  0  0
 20 22  1  0  0  0  0
 20 23  1  0  0  0  0
 17 18  1  0  0  0  0
 17 19  1  0  0  0  0
 17 20  1  0  0  0  0
 13 14  1  0  0  0  0
 13 15  1  0  0  0  0
 13 16  1  0  0  0  0
 11 12  1  0  0  0  0
 11 13  1  0  0  0  0
 11 17  1  0  0  0  0
  9 10  1  0  0  0  0
  9 11  1  0  0  0  0
  9 24  1  0  0  0  0
  7  8  1  0  0  0  0
  7  9  1  0  0  0  0
 28 29  1  0  0  0  0
 28 30  1  0  0  0  0
 28 31  1  0  0  0  0
 26 27  1  0  0  0  0
 26 28  1  0  0  0  0
M  END
$$$$
default_name
  -OEChem-02102213163D

 31 30  0     1  0  0  0  0  0999 V2000
   -3.0760   -3.6390    1.5496 H   0  0  0  0  0  0  0  0  0  0  0  0
   -3.0940   -2.6290    1.1426 C   0  0  0  0  0  0  0  0  0  0  0  0
   -3.7160   -1.9930    1.7706 H   0  0  0  0  0  0  0  0  0  0  0  0
   -3.4880   -2.6500    0.1286 H   0  0  0  0  0  0  0  0  0  0  0  0
   -1.6860   -2.0850    1.1196 C   0  0  0  0  0  0  0  0  0  0  0  0
   -0.7540   -2.7700    1.5226 O   0  0  0  0  0  0  0  0  0  0  0  0
   -1.5320   -0.8490    0.6496 N   0  0  0  0  0  0  0  0  0  0  0  0
   -2.3500   -0.3360    0.3566 H   0  0  0  0  0  0  0  0  0  0  0  0
   -0.2470   -0.1410    0.5576 C   0  0  1  0  0  0  0  0  0  0  0  0
    0.4239   -0.7541   -0.0450 H   0  0  0  0  0  0  0  0  0  0  0  0
   -0.4317    1.2160   -0.1683 C   0  0  1  0  0  0  0  0  0  0  0  0
   -1.3788    1.1653   -0.7089 H   0  0  0  0  0  0  0  0  0  0  0  0
   -0.5145    2.4014    0.8122 C   0  0  0  0  0  0  0  0  0  0  0  0
    0.4384    2.5424    1.3256 H   0  0  0  0  0  0  0  0  0  0  0  0
   -0.7702    3.3159    0.2794 H   0  0  0  0  0  0  0  0  0  0  0  0
   -1.2914    2.2213    1.5561 H   0  0  0  0  0  0  0  0  0  0  0  0
    0.6835    1.4413   -1.2138 C   0  0  0  0  0  0  0  0  0  0  0  0
    0.2439    1.5852   -2.2017 H   0  0  0  0  0  0  0  0  0  0  0  0
    1.2344    2.3440   -0.9499 H   0  0  0  0  0  0  0  0  0  0  0  0
    1.6979    0.2923   -1.2918 C   0  0  0  0  0  0  0  0  0  0  0  0
    1.2192   -0.6162   -1.6568 H   0  0  0  0  0  0  0  0  0  0  0  0
    2.4969    0.5644   -1.9820 H   0  0  0  0  0  0  0  0  0  0  0  0
    2.1283    0.1072   -0.3070 H   0  0  0  0  0  0  0  0  0  0  0  0
    0.3833   -0.0008    1.9525 C   0  0  0  0  0  0  0  0  0  0  0  0
    1.5803   -0.2304    2.1189 O   0  0  0  0  0  0  0  0  0  0  0  0
   -0.4170    0.3858    2.9541 N   0  0  0  0  0  0  0  0  0  0  0  0
   -1.3850    0.5669    2.7398 H   0  0  0  0  0  0  0  0  0  0  0  0
    0.0265    0.5600    4.3358 C   0  0  0  0  0  0  0  0  0  0  0  0
    0.8964    1.2200    4.3632 H   0  0  0  0  0  0  0  0  0  0  0  0
   -0.7726    0.9946    4.9382 H   0  0  0  0  0  0  0  0  0  0  0  0
    0.3119   -0.4069    4.7547 H   0  0  0  0  0  0  0  0  0  0  0  0
  5  6  2  0  0  0  0
  5  7  1  0  0  0  0
  2  3  1  0  0  0  0
  2  4  1  0  0  0  0
  2  5  1  0  0  0  0
  1  2  1  0  0  0  0
 24 25  2  0  0  0  0
 24 26  1  0  0  0  0
 20 21  1  0  0  0  0
 20 22  1  0  0  0  0
 20 23  1  0  0  0  0
 17 18  1  0  0  0  0
 17 19  1  0  0  0  0
 17 20  1  0  0  0  0
 13 14  1  0  0  0  0
 13 15  1  0  0  0  0
 13 16  1  0  0  0  0
 11 12  1  0  0  0  0
 11 13  1  0  0  0  0
 11 17  1  0  0  0  0
  9 10  1  0  0  0  0
  9 11  1  0  0  0  0
  9 24  1  0  0  0  0
  7  8  1  0  0  0  0
  7  9  1  0  0  0  0
 28 29  1  0  0  0  0
 28 30  1  0  0  0  0
 28 31  1  0  0  0  0
 26 27  1  0  0  0  0
 26 28  1  0  0  0  0
M  END
$$$$
default_name
  -OEChem-02102213163D

 31 30  0     1  0  0  0  0  0999 V2000
   -3.0760   -3.6390    1.5496 H   0  0  0  0  0  0  0  0  0  0  0  0
   -3.0940   -2.6290    1.1426 C   0  0  0  0  0  0  0  0  0  0  0  0
   -3.7160   -1.9930    1.7706 H   0  0  0  0  0  0  0  0  0  0  0  0
   -3.4880   -2.6500    0.1286 H   0  0  0  0  0  0  0  0  0  0  0  0
   -1.6860   -2.0850    1.1196 C   0  0  0  0  0  0  0  0  0  0  0  0
   -0.7540   -2.7700    1.5226 O   0  0  0  0  0  0  0  0  0  0  0  0
   -1.5320   -0.8490    0.6496 N   0  0  0  0  0  0  0  0  0  0  0  0
   -2.3500   -0.3360    0.3566 H   0  0  0  0  0  0  0  0  0  0  0  0
   -0.2470   -0.1410    0.5576 C   0  0  1  0  0  0  0  0  0  0  0  0
    0.4239   -0.7541   -0.0450 H   0  0  0  0  0  0  0  0  0  0  0  0
   -0.4317    1.2160   -0.1683 C   0  0  1  0  0  0  0  0  0  0  0  0
   -1.3788    1.1653   -0.7089 H   0  0  0  0  0  0  0  0  0  0  0  0
   -0.5145    2.4014    0.8122 C   0  0  0  0  0  0  0  0  0  0  0  0
    0.4384    2.5424    1.3256 H   0  0  0  0  0  0  0  0  0  0  0  0
   -0.7702    3.3159    0.2794 H   0  0  0  0  0  0  0  0  0  0  0  0
   -1.2914    2.2213    1.5561 H   0  0  0  0  0  0  0  0  0  0  0  0
    0.6835    1.4413   -1.2138 C   0  0  0  0  0  0  0  0  0  0  0  0
    0.2560    1.8436   -2.1332 H   0  0  0  0  0  0  0  0  0  0  0  0
    1.3923    2.1692   -0.8191 H   0  0  0  0  0  0  0  0  0  0  0  0
    1.4744    0.1715   -1.5563 C   0  0  0  0  0  0  0  0  0  0  0  0
    0.8334   -0.5552   -2.0551 H   0  0  0  0  0  0  0  0  0  0  0  0
    2.2943    0.4286   -2.2272 H   0  0  0  0  0  0  0  0  0  0  0  0
    1.8854   -0.2686   -0.6471 H   0  0  0  0  0  0  0  0  0  0  0  0
    0.3833   -0.0008    1.9525 C   0  0  0  0  0  0  0  0  0  0  0  0
    1.5803   -0.2304    2.1189 O   0  0  0  0  0  0  0  0  0  0  0  0
   -0.4170    0.3858    2.9541 N   0  0  0  0  0  0  0  0  0  0  0  0
   -1.3850    0.5669    2.7398 H   0  0  0  0  0  0  0  0  0  0  0  0
    0.0265    0.5600    4.3358 C   0  0  0  0  0  0  0  0  0  0  0  0
    0.8964    1.2200    4.3632 H   0  0  0  0  0  0  0  0  0  0  0  0
   -0.7726    0.9946    4.9382 H   0  0  0  0  0  0  0  0  0  0  0  0
    0.3119   -0.4069    4.7547 H   0  0  0  0  0  0  0  0  0  0  0  0
  5  6  2  0  0  0  0
  5  7  1  0  0  0  0
  2  3  1  0  0  0  0
  2  4  1  0  0  0  0
  2  5  1  0  0  0  0
  1  2  1  0  0  0  0
 24 25  2  0  0  0  0
 24 26  1  0  0  0  0
 20 21  1  0  0  0  0
 20 22  1  0  0  0  0
 20 23  1  0  0  0  0
 17 18  1  0  0  0  0
 17 19  1  0  0  0  0
 17 20  1  0  0  0  0
 13 14  1  0  0  0  0
 13 15  1  0  0  0  0
 13 16  1  0  0  0  0
 11 12  1  0  0  0  0
 11 13  1  0  0  0  0
 11 17  1  0  0  0  0
  9 10  1  0  0  0  0
  9 11  1  0  0  0  0
  9 24  1  0  0  0  0
  7  8  1  0  0  0  0
  7  9  1  0  0  0  0
 28 29  1  0  0  0  0
 28 30  1  0  0  0  0
 28 31  1  0  0  0  0
 26 27  1  0  0  0  0
 26 28  1  0  0  0  0
M  END
$$$$
default_name
  -OEChem-02102213163D

 31 30  0     1  0  0  0  0  0999 V2000
   -3.0760   -3.6390    1.5496 H   0  0  0  0  0  0  0  0  0  0  0  0
   -3.0940   -2.6290    1.1426 C   0  0  0  0  0  0  0  0  0  0  0  0
   -3.7160   -1.9930    1.7706 H   0  0  0  0  0  0  0  0  0  0  0  0
   -3.4880   -2.6500    0.1286 H   0  0  0  0  0  0  0  0  0  0  0  0
   -1.6860   -2.0850    1.1196 C   0  0  0  0  0  0  0  0  0  0  0  0
   -0.7540   -2.7700    1.5226 O   0  0  0  0  0  0  0  0  0  0  0  0
   -1.5320   -0.8490    0.6496 N   0  0  0  0  0  0  0  0  0  0  0  0
   -2.3500   -0.3360    0.3566 H   0  0  0  0  0  0  0  0  0  0  0  0
   -0.2470   -0.1410    0.5576 C   0  0  1  0  0  0  0  0  0  0  0  0
    0.4239   -0.7541   -0.0450 H   0  0  0  0  0  0  0  0  0  0  0  0
   -0.4317    1.2160   -0.1683 C   0  0  1  0  0  0  0  0  0  0  0  0
   -1.3788    1.1653   -0.7089 H   0  0  0  0  0  0  0  0  0  0  0  0
   -0.5145    2.4014    0.8122 C   0  0  0  0  0  0  0  0  0  0  0  0
    0.4384    2.5424    1.3256 H   0  0  0  0  0  0  0  0  0  0  0  0
   -0.7702    3.3159    0.2794 H   0  0  0  0  0  0  0  0  0  0  0  0
   -1.2914    2.2213    1.5561 H   0  0  0  0  0  0  0  0  0  0  0  0
    0.6835    1.4413   -1.2138 C   0  0  0  0  0  0  0  0  0  0  0  0
    0.3154    2.0784   -2.0191 H   0  0  0  0  0  0  0  0  0  0  0  0
    1.5192    1.9483   -0.7315 H   0  0  0  0  0  0  0  0  0  0  0  0
    1.2273    0.1433   -1.8259 C   0  0  0  0  0  0  0  0  0  0  0  0
    0.4564   -0.3544   -2.4140 H   0  0  0  0  0  0  0  0  0  0  0  0
    2.0657    0.3788   -2.4819 H   0  0  0  0  0  0  0  0  0  0  0  0
    1.5722   -0.5255   -1.0366 H   0  0  0  0  0  0  0  0  0  0  0  0
    0.3833   -0.0008    1.9525 C   0  0  0  0  0  0  0  0  0  0  0  0
    1.5803   -0.2304    2.1189 O   0  0  0  0  0  0  0  0  0  0  0  0
   -0.4170    0.3858    2.9541 N   0  0  0  0  0  0  0  0  0  0  0  0
   -1.3850    0.5669    2.7398 H   0  0  0  0  0  0  0  0  0  0  0  0
    0.0265    0.5600    4.3358 C   0  0  0  0  0  0  0  0  0  0  0  0
    0.8964    1.2200    4.3632 H   0  0  0  0  0  0  0  0  0  0  0  0
   -0.7726    0.9946    4.9382 H   0  0  0  0  0  0  0  0  0  0  0  0
    0.3119   -0.4069    4.7547 H   0  0  0  0  0  0  0  0  0  0  0  0
  5  6  2  0  0  0  0
  5  7  1  0  0  0  0
  2  3  1  0  0  0  0
  2  4  1  0  0  0  0
  2  5  1  0  0  0  0
  1  2  1  0  0  0  0
 24 25  2  0  0  0  0
 24 26  1  0  0  0  0
 20 21  1  0  0  0  0
 20 22  1  0  0  0  0
 20 23  1  0  0  0  0
 17 18  1  0  0  0  0
 17 19  1  0  0  0  0
 17 20  1  0  0  0  0
 13 14  1  0  0  0  0
 13 15  1  0  0  0  0
 13 16  1  0  0  0  0
 11 12  1  0  0  0  0
 11 13  1  0  0  0  0
 11 17  1  0  0  0  0
  9 10  1  0  0  0  0
  9 11  1  0  0  0  0
  9 24  1  0  0  0  0
  7  8  1  0  0  0  0
  7  9  1  0  0  0  0
 28 29  1  0  0  0  0
 28 30  1  0  0  0  0
 28 31  1  0  0  0  0
 26 27  1  0  0  0  0
 26 28  1  0  0  0  0
M  END
$$$$
default_name
  -OEChem-02102213163D

 31 30  0     1  0  0  0  0  0999 V2000
   -3.0760   -3.6390    1.5496 H   0  0  0  0  0  0  0  0  0  0  0  0
   -3.0940   -2.6290    1.1426 C   0  0  0  0  0  0  0  0  0  0  0  0
   -3.7160   -1.9930    1.7706 H   0  0  0  0  0  0  0  0  0  0  0  0
   -3.4880   -2.6500    0.1286 H   0  0  0  0  0  0  0  0  0  0  0  0
   -1.6860   -2.0850    1.1196 C   0  0  0  0  0  0  0  0  0  0  0  0
   -0.7540   -2.7700    1.5226 O   0  0  0  0  0  0  0  0  0  0  0  0
   -1.5320   -0.8490    0.6496 N   0  0  0  0  0  0  0  0  0  0  0  0
   -2.3500   -0.3360    0.3566 H   0  0  0  0  0  0  0  0  0  0  0  0
   -0.2470   -0.1410    0.5576 C   0  0  1  0  0  0  0  0  0  0  0  0
    0.4239   -0.7541   -0.0450 H   0  0  0  0  0  0  0  0  0  0  0  0
   -0.4317    1.2160   -0.1683 C   0  0  1  0  0  0  0  0  0  0  0  0
   -1.3788    1.1653   -0.7089 H   0  0  0  0  0  0  0  0  0  0  0  0
   -0.5145    2.4014    0.8122 C   0  0  0  0  0  0  0  0  0  0  0  0
    0.4384    2.5424    1.3256 H   0  0  0  0  0  0  0  0  0  0  0  0
   -0.7702    3.3159    0.2794 H   0  0  0  0  0  0  0  0  0  0  0  0
   -1.2914    2.2213    1.5561 H   0  0  0  0  0  0  0  0  0  0  0  0
    0.6835    1.4413   -1.2138 C   0  0  0  0  0  0  0  0  0  0  0  0
    0.4183    2.2734   -1.8674 H   0  0  0  0  0  0  0  0  0  0  0  0
    1.6063    1.6963   -0.6928 H   0  0  0  0  0  0  0  0  0  0  0  0
    0.9736    0.2097   -2.0823 C   0  0  0  0  0  0  0  0  0  0  0  0
    0.1139   -0.0273   -2.7089 H   0  0  0  0  0  0  0  0  0  0  0  0
    1.8265    0.4183   -2.7285 H   0  0  0  0  0  0  0  0  0  0  0  0
    1.2099   -0.6461   -1.4490 H   0  0  0  0  0  0  0  0  0  0  0  0
    0.3833   -0.0008    1.9525 C   0  0  0  0  0  0  0  0  0  0  0  0
    1.5803   -0.2304    2.1189 O   0  0  0  0  0  0  0  0  0  0  0  0
   -0.4170    0.3858    2.9541 N   0  0  0  0  0  0  0  0  0  0  0  0
   -1.3850    0.5669    2.7398 H   0  0  0  0  0  0  0  0  0  0  0  0
    0.0265    0.5600    4.3358 C   0  0  0  0  0  0  0  0  0  0  0  0
    0.8964    1.2200    4.3632 H   0  0  0  0  0  0  0  0  0  0  0  0
   -0.7726    0.9946    4.9382 H   0  0  0  0  0  0  0  0  0  0  0  0
    0.3119   -0.4069    4.7547 H   0  0  0  0  0  0  0  0  0  0  0  0
  5  6  2  0  0  0  0
  5  7  1  0  0  0  0
  2  3  1  0  0  0  0
  2  4  1  0  0  0  0
  2  5  1  0  0  0  0
  1  2  1  0  0  0  0
 24 25  2  0  0  0  0
 24 26  1  0  0  0  0
 20 21  1  0  0  0  0
 20 22  1  0  0  0  0
 20 23  1  0  0  0  0
 17 18  1  0  0  0  0
 17 19  1  0  0  0  0
 17 20  1  0  0  0  0
 13 14  1  0  0  0  0
 13 15  1  0  0  0  0
 13 16  1  0  0  0  0
 11 12  1  0  0  0  0
 11 13  1  0  0  0  0
 11 17  1  0  0  0  0
  9 10  1  0  0  0  0
  9 11  1  0  0  0  0
  9 24  1  0  0  0  0
  7  8  1  0  0  0  0
  7  9  1  0  0  0  0
 28 29  1  0  0  0  0
 28 30  1  0  0  0  0
 28 31  1  0  0  0  0
 26 27  1  0  0  0  0
 26 28  1  0  0  0  0
M  END
$$$$
default_name
  -OEChem-02102213163D

 31 30  0     1  0  0  0  0  0999 V2000
   -3.0760   -3.6390    1.5496 H   0  0  0  0  0  0  0  0  0  0  0  0
   -3.0940   -2.6290    1.1426 C   0  0  0  0  0  0  0  0  0  0  0  0
   -3.7160   -1.9930    1.7706 H   0  0  0  0  0  0  0  0  0  0  0  0
   -3.4880   -2.6500    0.1286 H   0  0  0  0  0  0  0  0  0  0  0  0
   -1.6860   -2.0850    1.1196 C   0  0  0  0  0  0  0  0  0  0  0  0
   -0.7540   -2.7700    1.5226 O   0  0  0  0  0  0  0  0  0  0  0  0
   -1.5320   -0.8490    0.6496 N   0  0  0  0  0  0  0  0  0  0  0  0
   -2.3500   -0.3360    0.3566 H   0  0  0  0  0  0  0  0  0  0  0  0
   -0.2470   -0.1410    0.5576 C   0  0  1  0  0  0  0  0  0  0  0  0
    0.4239   -0.7541   -0.0450 H   0  0  0  0  0  0  0  0  0  0  0  0
   -0.4317    1.2160   -0.1683 C   0  0  1  0  0  0  0  0  0  0  0  0
   -1.3788    1.1653   -0.7089 H   0  0  0  0  0  0  0  0  0  0  0  0
   -0.5145    2.4014    0.8122 C   0  0  0  0  0  0  0  0  0  0  0  0
    0.4384    2.5424    1.3256 H   0  0  0  0  0  0  0  0  0  0  0  0
   -0.7702    3.3159    0.2794 H   0  0  0  0  0  0  0  0  0  0  0  0
   -1.2914    2.2213    1.5561 H   0  0  0  0  0  0  0  0  0  0  0  0
    0.6835    1.4413   -1.2138 C   0  0  0  0  0  0  0  0  0  0  0  0
    0.5576    2.4154   -1.6882 H   0  0  0  0  0  0  0  0  0  0  0  0
    1.6478    1.4304   -0.7059 H   0  0  0  0  0  0  0  0  0  0  0  0
    0.7304    0.3661   -2.3080 C   0  0  0  0  0  0  0  0  0  0  0  0
   -0.1708    0.4036   -2.9197 H   0  0  0  0  0  0  0  0  0  0  0  0
    1.5930    0.5443   -2.9504 H   0  0  0  0  0  0  0  0  0  0  0  0
    0.8233   -0.6221   -1.8562 H   0  0  0  0  0  0  0  0  0  0  0  0
    0.3833   -0.0008    1.9525 C   0  0  0  0  0  0  0  0  0  0  0  0
    1.5803   -0.2304    2.1189 O   0  0  0  0  0  0  0  0  0  0  0  0
   -0.4170    0.3858    2.9541 N   0  0  0  0  0  0  0  0  0  0  0  0
   -1.3850    0.5669    2.7398 H   0  0  0  0  0  0  0  0  0  0  0  0
    0.0265    0.5600    4.3358 C   0  0  0  0  0  0  0  0  0  0  0  0
    0.8964    1.2200    4.3632 H   0  0  0  0  0  0  0  0  0  0  0  0
   -0.7726    0.9946    4.9382 H   0  0  0  0  0  0  0  0  0  0  0  0
    0.3119   -0.4069    4.7547 H   0  0  0  0  0  0  0  0  0  0  0  0
  5  6  2  0  0  0  0
  5  7  1  0  0  0  0
  2  3  1  0  0  0  0
  2  4  1  0  0  0  0
  2  5  1  0  0  0  0
  1  2  1  0  0  0  0
 24 25  2  0  0  0  0
 24 26  1  0  0  0  0
 20 21  1  0  0  0  0
 20 22  1  0  0  0  0
 20 23  1  0  0  0  0
 17 18  1  0  0  0  0
 17 19  1  0  0  0  0
 17 20  1  0  0  0  0
 13 14  1  0  0  0  0
 13 15  1  0  0  0  0
 13 16  1  0  0  0  0
 11 12  1  0  0  0  0
 11 13  1  0  0  0  0
 11 17  1  0  0  0  0
  9 10  1  0  0  0  0
  9 11  1  0  0  0  0
  9 24  1  0  0  0  0
  7  8  1  0  0  0  0
  7  9  1  0  0  0  0
 28 29  1  0  0  0  0
 28 30  1  0  0  0  0
 28 31  1  0  0  0  0
 26 27  1  0  0  0  0
 26 28  1  0  0  0  0
M  END
$$$$
default_name
  -OEChem-02102213163D

 31 30  0     1  0  0  0  0  0999 V2000
   -3.0760   -3.6390    1.5496 H   0  0  0  0  0  0  0  0  0  0  0  0
   -3.0940   -2.6290    1.1426 C   0  0  0  0  0  0  0  0  0  0  0  0
   -3.7160   -1.9930    1.7706 H   0  0  0  0  0  0  0  0  0  0  0  0
   -3.4880   -2.6500    0.1286 H   0  0  0  0  0  0  0  0  0  0  0  0
   -1.6860   -2.0850    1.1196 C   0  0  0  0  0  0  0  0  0  0  0  0
   -0.7540   -2.7700    1.5226 O   0  0  0  0  0  0  0  0  0  0  0  0
   -1.5320   -0.8490    0.6496 N   0  0  0  0  0  0  0  0  0  0  0  0
   -2.3500   -0.3360    0.3566 H   0  0  0  0  0  0  0  0  0  0  0  0
   -0.2470   -0.1410    0.5576 C   0  0  1  0  0  0  0  0  0  0  0  0
    0.4239   -0.7541   -0.0450 H   0  0  0  0  0  0  0  0  0  0  0  0
   -0.4317    1.2160   -0.1683 C   0  0  1  0  0  0  0  0  0  0  0  0
   -1.3788    1.1653   -0.7089 H   0  0  0  0  0  0  0  0  0  0  0  0
   -0.5145    2.4014    0.8122 C   0  0  0  0  0  0  0  0  0  0  0  0
    0.4384    2.5424    1.3256 H   0  0  0  0  0  0  0  0  0  0  0  0
   -0.7702    3.3159    0.2794 H   0  0  0  0  0  0  0  0  0  0  0  0
   -1.2914    2.2213    1.5561 H   0  0  0  0  0  0  0  0  0  0  0  0
    0.6835    1.4413   -1.2138 C   0  0  0  0  0  0  0  0  0  0  0  0
    0.7237    2.4948   -1.4939 H   0  0  0  0  0  0  0  0  0  0  0  0
    1.6408    1.1688   -0.7697 H   0  0  0  0  0  0  0  0  0  0  0  0
    0.5144    0.6020   -2.4875 C   0  0  0  0  0  0  0  0  0  0  0  0
   -0.3783    0.9092   -3.0320 H   0  0  0  0  0  0  0  0  0  0  0  0
    1.3812    0.7485   -3.1323 H   0  0  0  0  0  0  0  0  0  0  0  0
    0.4387   -0.4551   -2.2304 H   0  0  0  0  0  0  0  0  0  0  0  0
    0.3833   -0.0008    1.9525 C   0  0  0  0  0  0  0  0  0  0  0  0
    1.5803   -0.2304    2.1189 O   0  0  0  0  0  0  0  0  0  0  0  0
   -0.4170    0.3858    2.9541 N   0  0  0  0  0  0  0  0  0  0  0  0
   -1.3850    0.5669    2.7398 H   0  0  0  0  0  0  0  0  0  0  0  0
    0.0265    0.5600    4.3358 C   0  0  0  0  0  0  0  0  0  0  0  0
    0.8964    1.2200    4.3632 H   0  0  0  0  0  0  0  0  0  0  0  0
   -0.7726    0.9946    4.9382 H   0  0  0  0  0  0  0  0  0  0  0  0
    0.3119   -0.4069    4.7547 H   0  0  0  0  0  0  0  0  0  0  0  0
  5  6  2  0  0  0  0
  5  7  1  0  0  0  0
  2  3  1  0  0  0  0
  2  4  1  0  0  0  0
  2  5  1  0  0  0  0
  1  2  1  0  0  0  0
 24 25  2  0  0  0  0
 24 26  1  0  0  0  0
 20 21  1  0  0  0  0
 20 22  1  0  0  0  0
 20 23  1  0  0  0  0
 17 18  1  0  0  0  0
 17 19  1  0  0  0  0
 17 20  1  0  0  0  0
 13 14  1  0  0  0  0
 13 15  1  0  0  0  0
 13 16  1  0  0  0  0
 11 12  1  0  0  0  0
 11 13  1  0  0  0  0
 11 17  1  0  0  0  0
  9 10  1  0  0  0  0
  9 11  1  0  0  0  0
  9 24  1  0  0  0  0
  7  8  1  0  0  0  0
  7  9  1  0  0  0  0
 28 29  1  0  0  0  0
 28 30  1  0  0  0  0
 28 31  1  0  0  0  0
 26 27  1  0  0  0  0
 26 28  1  0  0  0  0
M  END
$$$$
default_name
  -OEChem-02102213163D

 31 30  0     1  0  0  0  0  0999 V2000
   -3.0760   -3.6390    1.5496 H   0  0  0  0  0  0  0  0  0  0  0  0
   -3.0940   -2.6290    1.1426 C   0  0  0  0  0  0  0  0  0  0  0  0
   -3.7160   -1.9930    1.7706 H   0  0  0  0  0  0  0  0  0  0  0  0
   -3.4880   -2.6500    0.1286 H   0  0  0  0  0  0  0  0  0  0  0  0
   -1.6860   -2.0850    1.1196 C   0  0  0  0  0  0  0  0  0  0  0  0
   -0.7540   -2.7700    1.5226 O   0  0  0  0  0  0  0  0  0  0  0  0
   -1.5320   -0.8490    0.6496 N   0  0  0  0  0  0  0  0  0  0  0  0
   -2.3500   -0.3360    0.3566 H   0  0  0  0  0  0  0  0  0  0  0  0
   -0.2470   -0.1410    0.5576 C   0  0  1  0  0  0  0  0  0  0  0  0
    0.4239   -0.7541   -0.0450 H   0  0  0  0  0  0  0  0  0  0  0  0
   -0.4317    1.2160   -0.1683 C   0  0  1  0  0  0  0  0  0  0  0  0
   -1.3788    1.1653   -0.7089 H   0  0  0  0  0  0  0  0  0  0  0  0
   -0.5145    2.4014    0.8122 C   0  0  0  0  0  0  0  0  0  0  0  0
    0.4384    2.5424    1.3256 H   0  0  0  0  0  0  0  0  0  0  0  0
   -0.7702    3.3159    0.2794 H   0  0  0  0  0  0  0  0  0  0  0  0
   -1.2914    2.2213    1.5561 H   0  0  0  0  0  0  0  0  0  0  0  0
    0.6835    1.4413   -1.2138 C   0  0  0  0  0  0  0  0  0  0  0  0
    0.9054    2.5060   -1.2977 H   0  0  0  0  0  0  0  0  0  0  0  0
    1.5859    0.9292   -0.8799 H   0  0  0  0  0  0  0  0  0  0  0  0
    0.3403    0.9012   -2.6088 C   0  0  0  0  0  0  0  0  0  0  0  0
   -0.4945    1.4548   -3.0383 H   0  0  0  0  0  0  0  0  0  0  0  0
    1.2055    1.0167   -3.2619 H   0  0  0  0  0  0  0  0  0  0  0  0
    0.0824   -0.1566   -2.5462 H   0  0  0  0  0  0  0  0  0  0  0  0
    0.3833   -0.0008    1.9525 C   0  0  0  0  0  0  0  0  0  0  0  0
    1.5803   -0.2304    2.1189 O   0  0  0  0  0  0  0  0  0  0  0  0
   -0.4170    0.3858    2.9541 N   0  0  0  0  0  0  0  0  0  0  0  0
   -1.3850    0.5669    2.7398 H   0  0  0  0  0  0  0  0  0  0  0  0
    0.0265    0.5600    4.3358 C   0  0  0  0  0  0  0  0  0  0  0  0
    0.8964    1.2200    4.3632 H   0  0  0  0  0  0  0  0  0  0  0  0
   -0.7726    0.9946    4.9382 H   0  0  0  0  0  0  0  0  0  0  0  0
    0.3119   -0.4069    4.7547 H   0  0  0  0  0  0  0  0  0  0  0  0
  5  6  2  0  0  0  0
  5  7  1  0  0  0  0
  2  3  1  0  0  0  0
  2  4  1  0  0  0  0
  2  5  1  0  0  0  0
  1  2  1  0  0  0  0
 24 25  2  0  0  0  0
 24 26  1  0  0  0  0
 20 21  1  0  0  0  0
 20 22  1  0  0  0  0
 20 23  1  0  0  0  0
 17 18  1  0  0  0  0
 17 19  1  0  0  0  0
 17 20  1  0  0  0  0
 13 14  1  0  0  0  0
 13 15  1  0  0  0  0
 13 16  1  0  0  0  0
 11 12  1  0  0  0  0
 11 13  1  0  0  0  0
 11 17  1  0  0  0  0
  9 10  1  0  0  0  0
  9 11  1  0  0  0  0
  9 24  1  0  0  0  0
  7  8  1  0  0  0  0
  7  9  1  0  0  0  0
 28 29  1  0  0  0  0
 28 30  1  0  0  0  0
 28 31  1  0  0  0  0
 26 27  1  0  0  0  0
 26 28  1  0  0  0  0
M  END
$$$$
default_name
  -OEChem-02102213163D

 31 30  0     1  0  0  0  0  0999 V2000
   -3.0760   -3.6390    1.5496 H   0  0  0  0  0  0  0  0  0  0  0  0
   -3.0940   -2.6290    1.1426 C   0  0  0  0  0  0  0  0  0  0  0  0
   -3.7160   -1.9930    1.7706 H   0  0  0  0  0  0  0  0  0  0  0  0
   -3.4880   -2.6500    0.1286 H   0  0  0  0  0  0  0  0  0  0  0  0
   -1.6860   -2.0850    1.1196 C   0  0  0  0  0  0  0  0  0  0  0  0
   -0.7540   -2.7700    1.5226 O   0  0  0  0  0  0  0  0  0  0  0  0
   -1.5320   -0.8490    0.6496 N   0  0  0  0  0  0  0  0  0  0  0  0
   -2.3500   -0.3360    0.3566 H   0  0  0  0  0  0  0  0  0  0  0  0
   -0.2470   -0.1410    0.5576 C   0  0  1  0  0  0  0  0  0  0  0  0
    0.4239   -0.7541   -0.0450 H   0  0  0  0  0  0  0  0  0  0  0  0
   -0.4317    1.2160   -0.1683 C   0  0  1  0  0  0  0  0  0  0  0  0
   -1.3788    1.1653   -0.7089 H   0  0  0  0  0  0  0  0  0  0  0  0
   -0.5145    2.4014    0.8122 C   0  0  0  0  0  0  0  0  0  0  0  0
    0.4384    2.5424    1.3256 H   0  0  0  0  0  0  0  0  0  0  0  0
   -0.7702    3.3159    0.2794 H   0  0  0  0  0  0  0  0  0  0  0  0
   -1.2914    2.2213    1.5561 H   0  0  0  0  0  0  0  0  0  0  0  0
    0.6835    1.4413   -1.2138 C   0  0  0  0  0  0  0  0  0  0  0  0
    1.0903    2.4484   -1.1129 H   0  0  0  0  0  0  0  0  0  0  0  0
    1.4867    0.7280   -1.0291 H   0  0  0  0  0  0  0  0  0  0  0  0
    0.2199    1.2434   -2.6634 C   0  0  0  0  0  0  0  0  0  0  0  0
   -0.5113    2.0034   -2.9380 H   0  0  0  0  0  0  0  0  0  0  0  0
    1.0779    1.3308   -3.3303 H   0  0  0  0  0  0  0  0  0  0  0  0
   -0.2215    0.2532   -2.7820 H   0  0  0  0  0  0  0  0  0  0  0  0
    0.3833   -0.0008    1.9525 C   0  0  0  0  0  0  0  0  0  0  0  0
    1.5803   -0.2304    2.1189 O   0  0  0  0  0  0  0  0  0  0  0  0
   -0.4170    0.3858    2.9541 N   0  0  0  0  0  0  0  0  0  0  0  0
   -1.3850    0.5669    2.7398 H   0  0  0  0  0  0  0  0  0  0  0  0
    0.0265    0.5600    4.3358 C   0  0  0  0  0  0  0  0  0  0  0  0
    0.8964    1.2200    4.3632 H   0  0  0  0  0  0  0  0  0  0  0  0
   -0.7726    0.9946    4.9382 H   0  0  0  0  0  0  0  0  0  0  0  0
    0.3119   -0.4069    4.7547 H   0  0  0  0  0  0  0  0  0  0  0  0
  5  6  2  0  0  0  0
  5  7  1  0  0  0  0
  2  3  1  0  0  0  0
  2  4  1  0  0  0  0
  2  5  1  0  0  0  0
  1  2  1  0  0  0  0
 24 25  2  0  0  0  0
 24 26  1  0  0  0  0
 20 21  1  0  0  0  0
 20 22  1  0  0  0  0
 20 23  1  0  0  0  0
 17 18  1  0  0  0  0
 17 19  1  0  0  0  0
 17 20  1  0  0  0  0
 13 14  1  0  0  0  0
 13 15  1  0  0  0  0
 13 16  1  0  0  0  0
 11 12  1  0  0  0  0
 11 13  1  0  0  0  0
 11 17  1  0  0  0  0
  9 10  1  0  0  0  0
  9 11  1  0  0  0  0
  9 24  1  0  0  0  0
  7  8  1  0  0  0  0
  7  9  1  0  0  0  0
 28 29  1  0  0  0  0
 28 30  1  0  0  0  0
 28 31  1  0  0  0  0
 26 27  1  0  0  0  0
 26 28  1  0  0  0  0
M  END
$$$$
default_name
  -OEChem-02102213163D

 31 30  0     1  0  0  0  0  0999 V2000
   -3.0760   -3.6390    1.5496 H   0  0  0  0  0  0  0  0  0  0  0  0
   -3.0940   -2.6290    1.1426 C   0  0  0  0  0  0  0  0  0  0  0  0
   -3.7160   -1.9930    1.7706 H   0  0  0  0  0  0  0  0  0  0  0  0
   -3.4880   -2.6500    0.1286 H   0  0  0  0  0  0  0  0  0  0  0  0
   -1.6860   -2.0850    1.1196 C   0  0  0  0  0  0  0  0  0  0  0  0
   -0.7540   -2.7700    1.5226 O   0  0  0  0  0  0  0  0  0  0  0  0
   -1.5320   -0.8490    0.6496 N   0  0  0  0  0  0  0  0  0  0  0  0
   -2.3500   -0.3360    0.3566 H   0  0  0  0  0  0  0  0  0  0  0  0
   -0.2470   -0.1410    0.5576 C   0  0  1  0  0  0  0  0  0  0  0  0
    0.4239   -0.7541   -0.0450 H   0  0  0  0  0  0  0  0  0  0  0  0
   -0.4317    1.2160   -0.1683 C   0  0  1  0  0  0  0  0  0  0  0  0
   -1.3788    1.1653   -0.7089 H   0  0  0  0  0  0  0  0  0  0  0  0
   -0.5145    2.4014    0.8122 C   0  0  0  0  0  0  0  0  0  0  0  0
    0.4384    2.5424    1.3256 H   0  0  0  0  0  0  0  0  0  0  0  0
   -0.7702    3.3159    0.2794 H   0  0  0  0  0  0  0  0  0  0  0  0
   -1.2914    2.2213    1.5561 H   0  0  0  0  0  0  0  0  0  0  0  0
    0.6835    1.4413   -1.2138 C   0  0  0  0  0  0  0  0  0  0  0  0
    1.2658    2.3258   -0.9522 H   0  0  0  0  0  0  0  0  0  0  0  0
    1.3500    0.5788   -1.2071 H   0  0  0  0  0  0  0  0  0  0  0  0
    0.1615    1.6051   -2.6477 C   0  0  0  0  0  0  0  0  0  0  0  0
   -0.4277    2.5175   -2.7381 H   0  0  0  0  0  0  0  0  0  0  0  0
    1.0070    1.6693   -3.3329 H   0  0  0  0  0  0  0  0  0  0  0  0
   -0.4521    0.7463   -2.9217 H   0  0  0  0  0  0  0  0  0  0  0  0
    0.3833   -0.0008    1.9525 C   0  0  0  0  0  0  0  0  0  0  0  0
    1.5803   -0.2304    2.1189 O   0  0  0  0  0  0  0  0  0  0  0  0
   -0.4170    0.3858    2.9541 N   0  0  0  0  0  0  0  0  0  0  0  0
   -1.3850    0.5669    2.7398 H   0  0  0  0  0  0  0  0  0  0  0  0
    0.0265    0.5600    4.3358 C   0  0  0  0  0  0  0  0  0  0  0  0
    0.8964    1.2200    4.3632 H   0  0  0  0  0  0  0  0  0  0  0  0
   -0.7726    0.9946    4.9382 H   0  0  0  0  0  0  0  0  0  0  0  0
    0.3119   -0.4069    4.7547 H   0  0  0  0  0  0  0  0  0  0  0  0
  5  6  2  0  0  0  0
  5  7  1  0  0  0  0
  2  3  1  0  0  0  0
  2  4  1  0  0  0  0
  2  5  1  0  0  0  0
  1  2  1  0  0  0  0
 24 25  2  0  0  0  0
 24 26  1  0  0  0  0
 20 21  1  0  0  0  0
 20 22  1  0  0  0  0
 20 23  1  0  0  0  0
 17 18  1  0  0  0  0
 17 19  1  0  0  0  0
 17 20  1  0  0  0  0
 13 14  1  0  0  0  0
 13 15  1  0  0  0  0
 13 16  1  0  0  0  0
 11 12  1  0  0  0  0
 11 13  1  0  0  0  0
 11 17  1  0  0  0  0
  9 10  1  0  0  0  0
  9 11  1  0  0  0  0
  9 24  1  0  0  0  0
  7  8  1  0  0  0  0
  7  9  1  0  0  0  0
 28 29  1  0  0  0  0
 28 30  1  0  0  0  0
 28 31  1  0  0  0  0
 26 27  1  0  0  0  0
 26 28  1  0  0  0  0
M  END
$$$$
default_name
  -OEChem-02102213163D

 31 30  0     1  0  0  0  0  0999 V2000
   -3.0760   -3.6390    1.5496 H   0  0  0  0  0  0  0  0  0  0  0  0
   -3.0940   -2.6290    1.1426 C   0  0  0  0  0  0  0  0  0  0  0  0
   -3.7160   -1.9930    1.7706 H   0  0  0  0  0  0  0  0  0  0  0  0
   -3.4880   -2.6500    0.1286 H   0  0  0  0  0  0  0  0  0  0  0  0
   -1.6860   -2.0850    1.1196 C   0  0  0  0  0  0  0  0  0  0  0  0
   -0.7540   -2.7700    1.5226 O   0  0  0  0  0  0  0  0  0  0  0  0
   -1.5320   -0.8490    0.6496 N   0  0  0  0  0  0  0  0  0  0  0  0
   -2.3500   -0.3360    0.3566 H   0  0  0  0  0  0  0  0  0  0  0  0
   -0.2470   -0.1410    0.5576 C   0  0  1  0  0  0  0  0  0  0  0  0
    0.4239   -0.7541   -0.0450 H   0  0  0  0  0  0  0  0  0  0  0  0
   -0.4317    1.2160   -0.1683 C   0  0  1  0  0  0  0  0  0  0  0  0
   -1.3788    1.1653   -0.7089 H   0  0  0  0  0  0  0  0  0  0  0  0
   -0.5145    2.4014    0.8122 C   0  0  0  0  0  0  0  0  0  0  0  0
    0.4384    2.5424    1.3256 H   0  0  0  0  0  0  0  0  0  0  0  0
   -0.7702    3.3159    0.2794 H   0  0  0  0  0  0  0  0  0  0  0  0
   -1.2914    2.2213    1.5561 H   0  0  0  0  0  0  0  0  0  0  0  0
    0.6835    1.4413   -1.2138 C   0  0  0  0  0  0  0  0  0  0  0  0
    1.4199    2.1467   -0.8264 H   0  0  0  0  0  0  0  0  0  0  0  0
    1.1851    0.4920   -1.4016 H   0  0  0  0  0  0  0  0  0  0  0  0
    0.1691    1.9619   -2.5628 C   0  0  0  0  0  0  0  0  0  0  0  0
   -0.2494    2.9621   -2.4521 H   0  0  0  0  0  0  0  0  0  0  0  0
    0.9978    2.0091   -3.2696 H   0  0  0  0  0  0  0  0  0  0  0  0
   -0.5939    1.2890   -2.9559 H   0  0  0  0  0  0  0  0  0  0  0  0
    0.3833   -0.0008    1.9525 C   0  0  0  0  0  0  0  0  0  0  0  0
    1.5803   -0.2304    2.1189 O   0  0  0  0  0  0  0  0  0  0  0  0
   -0.4170    0.3858    2.9541 N   0  0  0  0  0  0  0  0  0  0  0  0
   -1.3850    0.5669    2.7398 H   0  0  0  0  0  0  0  0  0  0  0  0
    0.0265    0.5600    4.3358 C   0  0  0  0  0  0  0  0  0  0  0  0
    0.8964    1.2200    4.3632 H   0  0  0  0  0  0  0  0  0  0  0  0
   -0.7726    0.9946    4.9382 H   0  0  0  0  0  0  0  0  0  0  0  0
    0.3119   -0.4069    4.7547 H   0  0  0  0  0  0  0  0  0  0  0  0
  5  6  2  0  0  0  0
  5  7  1  0  0  0  0
  2  3  1  0  0  0  0
  2  4  1  0  0  0  0
  2  5  1  0  0  0  0
  1  2  1  0  0  0  0
 24 25  2  0  0  0  0
 24 26  1  0  0  0  0
 20 21  1  0  0  0  0
 20 22  1  0  0  0  0
 20 23  1  0  0  0  0
 17 18  1  0  0  0  0
 17 19  1  0  0  0  0
 17 20  1  0  0  0  0
 13 14  1  0  0  0  0
 13 15  1  0  0  0  0
 13 16  1  0  0  0  0
 11 12  1  0  0  0  0
 11 13  1  0  0  0  0
 11 17  1  0  0  0  0
  9 10  1  0  0  0  0
  9 11  1  0  0  0  0
  9 24  1  0  0  0  0
  7  8  1  0  0  0  0
  7  9  1  0  0  0  0
 28 29  1  0  0  0  0
 28 30  1  0  0  0  0
 28 31  1  0  0  0  0
 26 27  1  0  0  0  0
 26 28  1  0  0  0  0
M  END
$$$$
default_name
  -OEChem-02102213163D

 31 30  0     1  0  0  0  0  0999 V2000
   -3.0760   -3.6390    1.5496 H   0  0  0  0  0  0  0  0  0  0  0  0
   -3.0940   -2.6290    1.1426 C   0  0  0  0  0  0  0  0  0  0  0  0
   -3.7160   -1.9930    1.7706 H   0  0  0  0  0  0  0  0  0  0  0  0
   -3.4880   -2.6500    0.1286 H   0  0  0  0  0  0  0  0  0  0  0  0
   -1.6860   -2.0850    1.1196 C   0  0  0  0  0  0  0  0  0  0  0  0
   -0.7540   -2.7700    1.5226 O   0  0  0  0  0  0  0  0  0  0  0  0
   -1.5320   -0.8490    0.6496 N   0  0  0  0  0  0  0  0  0  0  0  0
   -2.3500   -0.3360    0.3566 H   0  0  0  0  0  0  0  0  0  0  0  0
   -0.2470   -0.1410    0.5576 C   0  0  1  0  0  0  0  0  0  0  0  0
    0.4239   -0.7541   -0.0450 H   0  0  0  0  0  0  0  0  0  0  0  0
   -0.4317    1.2160   -0.1683 C   0  0  1  0  0  0  0  0  0  0  0  0
   -1.3788    1.1653   -0.7089 H   0  0  0  0  0  0  0  0  0  0  0  0
   -0.5145    2.4014    0.8122 C   0  0  0  0  0  0  0  0  0  0  0  0
    0.4384    2.5424    1.3256 H   0  0  0  0  0  0  0  0  0  0  0  0
   -0.7702    3.3159    0.2794 H   0  0  0  0  0  0  0  0  0  0  0  0
   -1.2914    2.2213    1.5561 H   0  0  0  0  0  0  0  0  0  0  0  0
    0.6835    1.4413   -1.2138 C   0  0  0  0  0  0  0  0  0  0  0  0
    1.5421    1.9232   -0.7442 H   0  0  0  0  0  0  0  0  0  0  0  0
    1.0033    0.4733   -1.5996 H   0  0  0  0  0  0  0  0  0  0  0  0
    0.2420    2.2893   -2.4144 C   0  0  0  0  0  0  0  0  0  0  0  0
    0.0114    3.3068   -2.0995 H   0  0  0  0  0  0  0  0  0  0  0  0
    1.0507    2.3272   -3.1445 H   0  0  0  0  0  0  0  0  0  0  0  0
   -0.6370    1.8445   -2.8822 H   0  0  0  0  0  0  0  0  0  0  0  0
    0.3833   -0.0008    1.9525 C   0  0  0  0  0  0  0  0  0  0  0  0
    1.5803   -0.2304    2.1189 O   0  0  0  0  0  0  0  0  0  0  0  0
   -0.4170    0.3858    2.9541 N   0  0  0  0  0  0  0  0  0  0  0  0
   -1.3850    0.5669    2.7398 H   0  0  0  0  0  0  0  0  0  0  0  0
    0.0265    0.5600    4.3358 C   0  0  0  0  0  0  0  0  0  0  0  0
    0.8964    1.2200    4.3632 H   0  0  0  0  0  0  0  0  0  0  0  0
   -0.7726    0.9946    4.9382 H   0  0  0  0  0  0  0  0  0  0  0  0
    0.3119   -0.4069    4.7547 H   0  0  0  0  0  0  0  0  0  0  0  0
  5  6  2  0  0  0  0
  5  7  1  0  0  0  0
  2  3  1  0  0  0  0
  2  4  1  0  0  0  0
  2  5  1  0  0  0  0
  1  2  1  0  0  0  0
 24 25  2  0  0  0  0
 24 26  1  0  0  0  0
 20 21  1  0  0  0  0
 20 22  1  0  0  0  0
 20 23  1  0  0  0  0
 17 18  1  0  0  0  0
 17 19  1  0  0  0  0
 17 20  1  0  0  0  0
 13 14  1  0  0  0  0
 13 15  1  0  0  0  0
 13 16  1  0  0  0  0
 11 12  1  0  0  0  0
 11 13  1  0  0  0  0
 11 17  1  0  0  0  0
  9 10  1  0  0  0  0
  9 11  1  0  0  0  0
  9 24  1  0  0  0  0
  7  8  1  0  0  0  0
  7  9  1  0  0  0  0
 28 29  1  0  0  0  0
 28 30  1  0  0  0  0
 28 31  1  0  0  0  0
 26 27  1  0  0  0  0
 26 28  1  0  0  0  0
M  END
$$$$
default_name
  -OEChem-02102213163D

 31 30  0     1  0  0  0  0  0999 V2000
   -3.0760   -3.6390    1.5496 H   0  0  0  0  0  0  0  0  0  0  0  0
   -3.0940   -2.6290    1.1426 C   0  0  0  0  0  0  0  0  0  0  0  0
   -3.7160   -1.9930    1.7706 H   0  0  0  0  0  0  0  0  0  0  0  0
   -3.4880   -2.6500    0.1286 H   0  0  0  0  0  0  0  0  0  0  0  0
   -1.6860   -2.0850    1.1196 C   0  0  0  0  0  0  0  0  0  0  0  0
   -0.7540   -2.7700    1.5226 O   0  0  0  0  0  0  0  0  0  0  0  0
   -1.5320   -0.8490    0.6496 N   0  0  0  0  0  0  0  0  0  0  0  0
   -2.3500   -0.3360    0.3566 H   0  0  0  0  0  0  0  0  0  0  0  0
   -0.2470   -0.1410    0.5576 C   0  0  1  0  0  0  0  0  0  0  0  0
    0.4239   -0.7541   -0.0450 H   0  0  0  0  0  0  0  0  0  0  0  0
   -0.4317    1.2160   -0.1683 C   0  0  1  0  0  0  0  0  0  0  0  0
   -1.3788    1.1653   -0.7089 H   0  0  0  0  0  0  0  0  0  0  0  0
   -0.5145    2.4014    0.8122 C   0  0  0  0  0  0  0  0  0  0  0  0
    0.4384    2.5424    1.3256 H   0  0  0  0  0  0  0  0  0  0  0  0
   -0.7702    3.3159    0.2794 H   0  0  0  0  0  0  0  0  0  0  0  0
   -1.2914    2.2213    1.5561 H   0  0  0  0  0  0  0  0  0  0  0  0
    0.6835    1.4413   -1.2138 C   0  0  0  0  0  0  0  0  0  0  0  0
    1.6241    1.6705   -0.7112 H   0  0  0  0  0  0  0  0  0  0  0  0
    0.8169    0.5241   -1.7874 H   0  0  0  0  0  0  0  0  0  0  0  0
    0.3754    2.5650   -2.2126 C   0  0  0  0  0  0  0  0  0  0  0  0
    0.3371    3.5283   -1.7044 H   0  0  0  0  0  0  0  0  0  0  0  0
    1.1623    2.6018   -2.9663 H   0  0  0  0  0  0  0  0  0  0  0  0
   -0.5786    2.3748   -2.7056 H   0  0  0  0  0  0  0  0  0  0  0  0
    0.3833   -0.0008    1.9525 C   0  0  0  0  0  0  0  0  0  0  0  0
    1.5803   -0.2304    2.1189 O   0  0  0  0  0  0  0  0  0  0  0  0
   -0.4170    0.3858    2.9541 N   0  0  0  0  0  0  0  0  0  0  0  0
   -1.3850    0.5669    2.7398 H   0  0  0  0  0  0  0  0  0  0  0  0
    0.0265    0.5600    4.3358 C   0  0  0  0  0  0  0  0  0  0  0  0
    0.8964    1.2200    4.3632 H   0  0  0  0  0  0  0  0  0  0  0  0
   -0.7726    0.9946    4.9382 H   0  0  0  0  0  0  0  0  0  0  0  0
    0.3119   -0.4069    4.7547 H   0  0  0  0  0  0  0  0  0  0  0  0
  5  6  2  0  0  0  0
  5  7  1  0  0  0  0
  2  3  1  0  0  0  0
  2  4  1  0  0  0  0
  2  5  1  0  0  0  0
  1  2  1  0  0  0  0
 24 25  2  0  0  0  0
 24 26  1  0  0  0  0
 20 21  1  0  0  0  0
 20 22  1  0  0  0  0
 20 23  1  0  0  0  0
 17 18  1  0  0  0  0
 17 19  1  0  0  0  0
 17 20  1  0  0  0  0
 13 14  1  0  0  0  0
 13 15  1  0  0  0  0
 13 16  1  0  0  0  0
 11 12  1  0  0  0  0
 11 13  1  0  0  0  0
 11 17  1  0  0  0  0
  9 10  1  0  0  0  0
  9 11  1  0  0  0  0
  9 24  1  0  0  0  0
  7  8  1  0  0  0  0
  7  9  1  0  0  0  0
 28 29  1  0  0  0  0
 28 30  1  0  0  0  0
 28 31  1  0  0  0  0
 26 27  1  0  0  0  0
 26 28  1  0  0  0  0
M  END
$$$$
default_name
  -OEChem-02102213163D

 31 30  0     1  0  0  0  0  0999 V2000
   -3.0760   -3.6390    1.5496 H   0  0  0  0  0  0  0  0  0  0  0  0
   -3.0940   -2.6290    1.1426 C   0  0  0  0  0  0  0  0  0  0  0  0
   -3.7160   -1.9930    1.7706 H   0  0  0  0  0  0  0  0  0  0  0  0
   -3.4880   -2.6500    0.1286 H   0  0  0  0  0  0  0  0  0  0  0  0
   -1.6860   -2.0850    1.1196 C   0  0  0  0  0  0  0  0  0  0  0  0
   -0.7540   -2.7700    1.5226 O   0  0  0  0  0  0  0  0  0  0  0  0
   -1.5320   -0.8490    0.6496 N   0  0  0  0  0  0  0  0  0  0  0  0
   -2.3500   -0.3360    0.3566 H   0  0  0  0  0  0  0  0  0  0  0  0
   -0.2470   -0.1410    0.5576 C   0  0  1  0  0  0  0  0  0  0  0  0
    0.4239   -0.7541   -0.0450 H   0  0  0  0  0  0  0  0  0  0  0  0
   -0.4317    1.2160   -0.1683 C   0  0  1  0  0  0  0  0  0  0  0  0
   -1.4765    1.2747   -0.4794 H   0  0  0  0  0  0  0  0  0  0  0  0
   -0.1482    2.4188    0.7516 C   0  0  0  0  0  0  0  0  0  0  0  0
    0.9065    2.4484    1.0309 H   0  0  0  0  0  0  0  0  0  0  0  0
   -0.4094    3.3490    0.2495 H   0  0  0  0  0  0  0  0  0  0  0  0
   -0.7503    2.3496    1.6583 H   0  0  0  0  0  0  0  0  0  0  0  0
    0.4337    1.2827   -1.4467 C   0  0  0  0  0  0  0  0  0  0  0  0
    1.4841    1.1340   -1.1932 H   0  0  0  0  0  0  0  0  0  0  0  0
    0.1275    0.4818   -2.1196 H   0  0  0  0  0  0  0  0  0  0  0  0
    0.2978    2.6038   -2.2159 C   0  0  0  0  0  0  0  0  0  0  0  0
    0.6919    3.4315   -1.6266 H   0  0  0  0  0  0  0  0  0  0  0  0
    0.8648    2.5388   -3.1448 H   0  0  0  0  0  0  0  0  0  0  0  0
   -0.7500    2.7915   -2.4527 H   0  0  0  0  0  0  0  0  0  0  0  0
    0.3833   -0.0008    1.9525 C   0  0  0  0  0  0  0  0  0  0  0  0
    1.5803   -0.2304    2.1189 O   0  0  0  0  0  0  0  0  0  0  0  0
   -0.4170    0.3858    2.9541 N   0  0  0  0  0  0  0  0  0  0  0  0
   -1.3850    0.5669    2.7398 H   0  0  0  0  0  0  0  0  0  0  0  0
    0.0265    0.5600    4.3358 C   0  0  0  0  0  0  0  0  0  0  0  0
    0.8964    1.2200    4.3632 H   0  0  0  0  0  0  0  0  0  0  0  0
   -0.7726    0.9946    4.9382 H   0  0  0  0  0  0  0  0  0  0  0  0
    0.3119   -0.4069    4.7547 H   0  0  0  0  0  0  0  0  0  0  0  0
  5  6  2  0  0  0  0
  5  7  1  0  0  0  0
  2  3  1  0  0  0  0
  2  4  1  0  0  0  0
  2  5  1  0  0  0  0
  1  2  1  0  0  0  0
 24 25  2  0  0  0  0
 24 26  1  0  0  0  0
 20 21  1  0  0  0  0
 20 22  1  0  0  0  0
 20 23  1  0  0  0  0
 17 18  1  0  0  0  0
 17 19  1  0  0  0  0
 17 20  1  0  0  0  0
 13 14  1  0  0  0  0
 13 15  1  0  0  0  0
 13 16  1  0  0  0  0
 11 12  1  0  0  0  0
 11 13  1  0  0  0  0
 11 17  1  0  0  0  0
  9 10  1  0  0  0  0
  9 11  1  0  0  0  0
  9 24  1  0  0  0  0
  7  8  1  0  0  0  0
  7  9  1  0  0  0  0
 28 29  1  0  0  0  0
 28 30  1  0  0  0  0
 28 31  1  0  0  0  0
 26 27  1  0  0  0  0
 26 28  1  0  0  0  0
M  END
$$$$
default_name
  -OEChem-02102213163D

 31 30  0     1  0  0  0  0  0999 V2000
   -3.0760   -3.6390    1.5496 H   0  0  0  0  0  0  0  0  0  0  0  0
   -3.0940   -2.6290    1.1426 C   0  0  0  0  0  0  0  0  0  0  0  0
   -3.7160   -1.9930    1.7706 H   0  0  0  0  0  0  0  0  0  0  0  0
   -3.4880   -2.6500    0.1286 H   0  0  0  0  0  0  0  0  0  0  0  0
   -1.6860   -2.0850    1.1196 C   0  0  0  0  0  0  0  0  0  0  0  0
   -0.7540   -2.7700    1.5226 O   0  0  0  0  0  0  0  0  0  0  0  0
   -1.5320   -0.8490    0.6496 N   0  0  0  0  0  0  0  0  0  0  0  0
   -2.3500   -0.3360    0.3566 H   0  0  0  0  0  0  0  0  0  0  0  0
   -0.2470   -0.1410    0.5576 C   0  0  1  0  0  0  0  0  0  0  0  0
    0.4239   -0.7541   -0.0450 H   0  0  0  0  0  0  0  0  0  0  0  0
   -0.4317    1.2160   -0.1683 C   0  0  1  0  0  0  0  0  0  0  0  0
   -1.4765    1.2747   -0.4794 H   0  0  0  0  0  0  0  0  0  0  0  0
   -0.1482    2.4188    0.7516 C   0  0  0  0  0  0  0  0  0  0  0  0
    0.9065    2.4484    1.0309 H   0  0  0  0  0  0  0  0  0  0  0  0
   -0.4094    3.3490    0.2495 H   0  0  0  0  0  0  0  0  0  0  0  0
   -0.7503    2.3496    1.6583 H   0  0  0  0  0  0  0  0  0  0  0  0
    0.4337    1.2827   -1.4467 C   0  0  0  0  0  0  0  0  0  0  0  0
    1.4264    0.8779   -1.2456 H   0  0  0  0  0  0  0  0  0  0  0  0
   -0.0344    0.6727   -2.2192 H   0  0  0  0  0  0  0  0  0  0  0  0
    0.5885    2.7003   -2.0140 C   0  0  0  0  0  0  0  0  0  0  0  0
    1.1486    3.3297   -1.3227 H   0  0  0  0  0  0  0  0  0  0  0  0
    1.1325    2.6524   -2.9576 H   0  0  0  0  0  0  0  0  0  0  0  0
   -0.3934    3.1397   -2.1932 H   0  0  0  0  0  0  0  0  0  0  0  0
    0.3833   -0.0008    1.9525 C   0  0  0  0  0  0  0  0  0  0  0  0
    1.5803   -0.2304    2.1189 O   0  0  0  0  0  0  0  0  0  0  0  0
   -0.4170    0.3858    2.9541 N   0  0  0  0  0  0  0  0  0  0  0  0
   -1.3850    0.5669    2.7398 H   0  0  0  0  0  0  0  0  0  0  0  0
    0.0265    0.5600    4.3358 C   0  0  0  0  0  0  0  0  0  0  0  0
    0.8964    1.2200    4.3632 H   0  0  0  0  0  0  0  0  0  0  0  0
   -0.7726    0.9946    4.9382 H   0  0  0  0  0  0  0  0  0  0  0  0
    0.3119   -0.4069    4.7547 H   0  0  0  0  0  0  0  0  0  0  0  0
  5  6  2  0  0  0  0
  5  7  1  0  0  0  0
  2  3  1  0  0  0  0
  2  4  1  0  0  0  0
  2  5  1  0  0  0  0
  1  2  1  0  0  0  0
 24 25  2  0  0  0  0
 24 26  1  0  0  0  0
 20 21  1  0  0  0  0
 20 22  1  0  0  0  0
 20 23  1  0  0  0  0
 17 18  1  0  0  0  0
 17 19  1  0  0  0  0
 17 20  1  0  0  0  0
 13 14  1  0  0  0  0
 13 15  1  0  0  0  0
 13 16  1  0  0  0  0
 11 12  1  0  0  0  0
 11 13  1  0  0  0  0
 11 17  1  0  0  0  0
  9 10  1  0  0  0  0
  9 11  1  0  0  0  0
  9 24  1  0  0  0  0
  7  8  1  0  0  0  0
  7  9  1  0  0  0  0
 28 29  1  0  0  0  0
 28 30  1  0  0  0  0
 28 31  1  0  0  0  0
 26 27  1  0  0  0  0
 26 28  1  0  0  0  0
M  END
$$$$
default_name
  -OEChem-02102213163D

 31 30  0     1  0  0  0  0  0999 V2000
   -3.0760   -3.6390    1.5496 H   0  0  0  0  0  0  0  0  0  0  0  0
   -3.0940   -2.6290    1.1426 C   0  0  0  0  0  0  0  0  0  0  0  0
   -3.7160   -1.9930    1.7706 H   0  0  0  0  0  0  0  0  0  0  0  0
   -3.4880   -2.6500    0.1286 H   0  0  0  0  0  0  0  0  0  0  0  0
   -1.6860   -2.0850    1.1196 C   0  0  0  0  0  0  0  0  0  0  0  0
   -0.7540   -2.7700    1.5226 O   0  0  0  0  0  0  0  0  0  0  0  0
   -1.5320   -0.8490    0.6496 N   0  0  0  0  0  0  0  0  0  0  0  0
   -2.3500   -0.3360    0.3566 H   0  0  0  0  0  0  0  0  0  0  0  0
   -0.2470   -0.1410    0.5576 C   0  0  1  0  0  0  0  0  0  0  0  0
    0.4239   -0.7541   -0.0450 H   0  0  0  0  0  0  0  0  0  0  0  0
   -0.4317    1.2160   -0.1683 C   0  0  1  0  0  0  0  0  0  0  0  0
   -1.4765    1.2747   -0.4794 H   0  0  0  0  0  0  0  0  0  0  0  0
   -0.1482    2.4188    0.7516 C   0  0  0  0  0  0  0  0  0  0  0  0
    0.9065    2.4484    1.0309 H   0  0  0  0  0  0  0  0  0  0  0  0
   -0.4094    3.3490    0.2495 H   0  0  0  0  0  0  0  0  0  0  0  0
   -0.7503    2.3496    1.6583 H   0  0  0  0  0  0  0  0  0  0  0  0
    0.4337    1.2827   -1.4467 C   0  0  0  0  0  0  0  0  0  0  0  0
    1.3153    0.6505   -1.3328 H   0  0  0  0  0  0  0  0  0  0  0  0
   -0.1510    0.9062   -2.2860 H   0  0  0  0  0  0  0  0  0  0  0  0
    0.8922    2.7020   -1.8084 C   0  0  0  0  0  0  0  0  0  0  0  0
    1.5713    3.0894   -1.0491 H   0  0  0  0  0  0  0  0  0  0  0  0
    1.4175    2.6776   -2.7634 H   0  0  0  0  0  0  0  0  0  0  0  0
    0.0286    3.3621   -1.8959 H   0  0  0  0  0  0  0  0  0  0  0  0
    0.3833   -0.0008    1.9525 C   0  0  0  0  0  0  0  0  0  0  0  0
    1.5803   -0.2304    2.1189 O   0  0  0  0  0  0  0  0  0  0  0  0
   -0.4170    0.3858    2.9541 N   0  0  0  0  0  0  0  0  0  0  0  0
   -1.3850    0.5669    2.7398 H   0  0  0  0  0  0  0  0  0  0  0  0
    0.0265    0.5600    4.3358 C   0  0  0  0  0  0  0  0  0  0  0  0
    0.8964    1.2200    4.3632 H   0  0  0  0  0  0  0  0  0  0  0  0
   -0.7726    0.9946    4.9382 H   0  0  0  0  0  0  0  0  0  0  0  0
    0.3119   -0.4069    4.7547 H   0  0  0  0  0  0  0  0  0  0  0  0
  5  6  2  0  0  0  0
  5  7  1  0  0  0  0
  2  3  1  0  0  0  0
  2  4  1  0  0  0  0
  2  5  1  0  0  0  0
  1  2  1  0  0  0  0
 24 25  2  0  0  0  0
 24 26  1  0  0  0  0
 20 21  1  0  0  0  0
 20 22  1  0  0  0  0
 20 23  1  0  0  0  0
 17 18  1  0  0  0  0
 17 19  1  0  0  0  0
 17 20  1  0  0  0  0
 13 14  1  0  0  0  0
 13 15  1  0  0  0  0
 13 16  1  0  0  0  0
 11 12  1  0  0  0  0
 11 13  1  0  0  0  0
 11 17  1  0  0  0  0
  9 10  1  0  0  0  0
  9 11  1  0  0  0  0
  9 24  1  0  0  0  0
  7  8  1  0  0  0  0
  7  9  1  0  0  0  0
 28 29  1  0  0  0  0
 28 30  1  0  0  0  0
 28 31  1  0  0  0  0
 26 27  1  0  0  0  0
 26 28  1  0  0  0  0
M  END
$$$$
default_name
  -OEChem-02102213163D

 31 30  0     1  0  0  0  0  0999 V2000
   -3.0760   -3.6390    1.5496 H   0  0  0  0  0  0  0  0  0  0  0  0
   -3.0940   -2.6290    1.1426 C   0  0  0  0  0  0  0  0  0  0  0  0
   -3.7160   -1.9930    1.7706 H   0  0  0  0  0  0  0  0  0  0  0  0
   -3.4880   -2.6500    0.1286 H   0  0  0  0  0  0  0  0  0  0  0  0
   -1.6860   -2.0850    1.1196 C   0  0  0  0  0  0  0  0  0  0  0  0
   -0.7540   -2.7700    1.5226 O   0  0  0  0  0  0  0  0  0  0  0  0
   -1.5320   -0.8490    0.6496 N   0  0  0  0  0  0  0  0  0  0  0  0
   -2.3500   -0.3360    0.3566 H   0  0  0  0  0  0  0  0  0  0  0  0
   -0.2470   -0.1410    0.5576 C   0  0  1  0  0  0  0  0  0  0  0  0
    0.4239   -0.7541   -0.0450 H   0  0  0  0  0  0  0  0  0  0  0  0
   -0.4317    1.2160   -0.1683 C   0  0  1  0  0  0  0  0  0  0  0  0
   -1.4765    1.2747   -0.4794 H   0  0  0  0  0  0  0  0  0  0  0  0
   -0.1482    2.4188    0.7516 C   0  0  0  0  0  0  0  0  0  0  0  0
    0.9065    2.4484    1.0309 H   0  0  0  0  0  0  0  0  0  0  0  0
   -0.4094    3.3490    0.2495 H   0  0  0  0  0  0  0  0  0  0  0  0
   -0.7503    2.3496    1.6583 H   0  0  0  0  0  0  0  0  0  0  0  0
    0.4337    1.2827   -1.4467 C   0  0  0  0  0  0  0  0  0  0  0  0
    1.1582    0.4673   -1.4486 H   0  0  0  0  0  0  0  0  0  0  0  0
   -0.2144    1.1664   -2.3153 H   0  0  0  0  0  0  0  0  0  0  0  0
    1.1882    2.6087   -1.6129 C   0  0  0  0  0  0  0  0  0  0  0  0
    1.9312    2.7272   -0.8244 H   0  0  0  0  0  0  0  0  0  0  0  0
    1.7004    2.6127   -2.5753 H   0  0  0  0  0  0  0  0  0  0  0  0
    0.4871    3.4434   -1.5813 H   0  0  0  0  0  0  0  0  0  0  0  0
    0.3833   -0.0008    1.9525 C   0  0  0  0  0  0  0  0  0  0  0  0
    1.5803   -0.2304    2.1189 O   0  0  0  0  0  0  0  0  0  0  0  0
   -0.4170    0.3858    2.9541 N   0  0  0  0  0  0  0  0  0  0  0  0
   -1.3850    0.5669    2.7398 H   0  0  0  0  0  0  0  0  0  0  0  0
    0.0265    0.5600    4.3358 C   0  0  0  0  0  0  0  0  0  0  0  0
    0.8964    1.2200    4.3632 H   0  0  0  0  0  0  0  0  0  0  0  0
   -0.7726    0.9946    4.9382 H   0  0  0  0  0  0  0  0  0  0  0  0
    0.3119   -0.4069    4.7547 H   0  0  0  0  0  0  0  0  0  0  0  0
  5  6  2  0  0  0  0
  5  7  1  0  0  0  0
  2  3  1  0  0  0  0
  2  4  1  0  0  0  0
  2  5  1  0  0  0  0
  1  2  1  0  0  0  0
 24 25  2  0  0  0  0
 24 26  1  0  0  0  0
 20 21  1  0  0  0  0
 20 22  1  0  0  0  0
 20 23  1  0  0  0  0
 17 18  1  0  0  0  0
 17 19  1  0  0  0  0
 17 20  1  0  0  0  0
 13 14  1  0  0  0  0
 13 15  1  0  0  0  0
 13 16  1  0  0  0  0
 11 12  1  0  0  0  0
 11 13  1  0  0  0  0
 11 17  1  0  0  0  0
  9 10  1  0  0  0  0
  9 11  1  0  0  0  0
  9 24  1  0  0  0  0
  7  8  1  0  0  0  0
  7  9  1  0  0  0  0
 28 29  1  0  0  0  0
 28 30  1  0  0  0  0
 28 31  1  0  0  0  0
 26 27  1  0  0  0  0
 26 28  1  0  0  0  0
M  END
$$$$
default_name
  -OEChem-02102213163D

 31 30  0     1  0  0  0  0  0999 V2000
   -3.0760   -3.6390    1.5496 H   0  0  0  0  0  0  0  0  0  0  0  0
   -3.0940   -2.6290    1.1426 C   0  0  0  0  0  0  0  0  0  0  0  0
   -3.7160   -1.9930    1.7706 H   0  0  0  0  0  0  0  0  0  0  0  0
   -3.4880   -2.6500    0.1286 H   0  0  0  0  0  0  0  0  0  0  0  0
   -1.6860   -2.0850    1.1196 C   0  0  0  0  0  0  0  0  0  0  0  0
   -0.7540   -2.7700    1.5226 O   0  0  0  0  0  0  0  0  0  0  0  0
   -1.5320   -0.8490    0.6496 N   0  0  0  0  0  0  0  0  0  0  0  0
   -2.3500   -0.3360    0.3566 H   0  0  0  0  0  0  0  0  0  0  0  0
   -0.2470   -0.1410    0.5576 C   0  0  1  0  0  0  0  0  0  0  0  0
    0.4239   -0.7541   -0.0450 H   0  0  0  0  0  0  0  0  0  0  0  0
   -0.4317    1.2160   -0.1683 C   0  0  1  0  0  0  0  0  0  0  0  0
   -1.4765    1.2747   -0.4794 H   0  0  0  0  0  0  0  0  0  0  0  0
   -0.1482    2.4188    0.7516 C   0  0  0  0  0  0  0  0  0  0  0  0
    0.9065    2.4484    1.0309 H   0  0  0  0  0  0  0  0  0  0  0  0
   -0.4094    3.3490    0.2495 H   0  0  0  0  0  0  0  0  0  0  0  0
   -0.7503    2.3496    1.6583 H   0  0  0  0  0  0  0  0  0  0  0  0
    0.4337    1.2827   -1.4467 C   0  0  0  0  0  0  0  0  0  0  0  0
    0.9660    0.3408   -1.5854 H   0  0  0  0  0  0  0  0  0  0  0  0
   -0.2203    1.4356   -2.3052 H   0  0  0  0  0  0  0  0  0  0  0  0
    1.4564    2.4270   -1.4408 C   0  0  0  0  0  0  0  0  0  0  0  0
    2.2039    2.2677   -0.6639 H   0  0  0  0  0  0  0  0  0  0  0  0
    1.9619    2.4623   -2.4062 H   0  0  0  0  0  0  0  0  0  0  0  0
    0.9509    3.3782   -1.2707 H   0  0  0  0  0  0  0  0  0  0  0  0
    0.3833   -0.0008    1.9525 C   0  0  0  0  0  0  0  0  0  0  0  0
    1.5803   -0.2304    2.1189 O   0  0  0  0  0  0  0  0  0  0  0  0
   -0.4170    0.3858    2.9541 N   0  0  0  0  0  0  0  0  0  0  0  0
   -1.3850    0.5669    2.7398 H   0  0  0  0  0  0  0  0  0  0  0  0
    0.0265    0.5600    4.3358 C   0  0  0  0  0  0  0  0  0  0  0  0
    0.8964    1.2200    4.3632 H   0  0  0  0  0  0  0  0  0  0  0  0
   -0.7726    0.9946    4.9382 H   0  0  0  0  0  0  0  0  0  0  0  0
    0.3119   -0.4069    4.7547 H   0  0  0  0  0  0  0  0  0  0  0  0
  5  6  2  0  0  0  0
  5  7  1  0  0  0  0
  2  3  1  0  0  0  0
  2  4  1  0  0  0  0
  2  5  1  0  0  0  0
  1  2  1  0  0  0  0
 24 25  2  0  0  0  0
 24 26  1  0  0  0  0
 20 21  1  0  0  0  0
 20 22  1  0  0  0  0
 20 23  1  0  0  0  0
 17 18  1  0  0  0  0
 17 19  1  0  0  0  0
 17 20  1  0  0  0  0
 13 14  1  0  0  0  0
 13 15  1  0  0  0  0
 13 16  1  0  0  0  0
 11 12  1  0  0  0  0
 11 13  1  0  0  0  0
 11 17  1  0  0  0  0
  9 10  1  0  0  0  0
  9 11  1  0  0  0  0
  9 24  1  0  0  0  0
  7  8  1  0  0  0  0
  7  9  1  0  0  0  0
 28 29  1  0  0  0  0
 28 30  1  0  0  0  0
 28 31  1  0  0  0  0
 26 27  1  0  0  0  0
 26 28  1  0  0  0  0
M  END
$$$$
default_name
  -OEChem-02102213163D

 31 30  0     1  0  0  0  0  0999 V2000
   -3.0760   -3.6390    1.5496 H   0  0  0  0  0  0  0  0  0  0  0  0
   -3.0940   -2.6290    1.1426 C   0  0  0  0  0  0  0  0  0  0  0  0
   -3.7160   -1.9930    1.7706 H   0  0  0  0  0  0  0  0  0  0  0  0
   -3.4880   -2.6500    0.1286 H   0  0  0  0  0  0  0  0  0  0  0  0
   -1.6860   -2.0850    1.1196 C   0  0  0  0  0  0  0  0  0  0  0  0
   -0.7540   -2.7700    1.5226 O   0  0  0  0  0  0  0  0  0  0  0  0
   -1.5320   -0.8490    0.6496 N   0  0  0  0  0  0  0  0  0  0  0  0
   -2.3500   -0.3360    0.3566 H   0  0  0  0  0  0  0  0  0  0  0  0
   -0.2470   -0.1410    0.5576 C   0  0  1  0  0  0  0  0  0  0  0  0
    0.4239   -0.7541   -0.0450 H   0  0  0  0  0  0  0  0  0  0  0  0
   -0.4317    1.2160   -0.1683 C   0  0  1  0  0  0  0  0  0  0  0  0
   -1.4765    1.2747   -0.4794 H   0  0  0  0  0  0  0  0  0  0  0  0
   -0.1482    2.4188    0.7516 C   0  0  0  0  0  0  0  0  0  0  0  0
    0.9065    2.4484    1.0309 H   0  0  0  0  0  0  0  0  0  0  0  0
   -0.4094    3.3490    0.2495 H   0  0  0  0  0  0  0  0  0  0  0  0
   -0.7503    2.3496    1.6583 H   0  0  0  0  0  0  0  0  0  0  0  0
    0.4337    1.2827   -1.4467 C   0  0  0  0  0  0  0  0  0  0  0  0
    0.7517    0.2795   -1.7336 H   0  0  0  0  0  0  0  0  0  0  0  0
   -0.1681    1.6954   -2.2564 H   0  0  0  0  0  0  0  0  0  0  0  0
    1.6784    2.1691   -1.3040 C   0  0  0  0  0  0  0  0  0  0  0  0
    2.3706    1.7422   -0.5785 H   0  0  0  0  0  0  0  0  0  0  0  0
    2.1841    2.2364   -2.2675 H   0  0  0  0  0  0  0  0  0  0  0  0
    1.3884    3.1709   -0.9854 H   0  0  0  0  0  0  0  0  0  0  0  0
    0.3833   -0.0008    1.9525 C   0  0  0  0  0  0  0  0  0  0  0  0
    1.5803   -0.2304    2.1189 O   0  0  0  0  0  0  0  0  0  0  0  0
   -0.4170    0.3858    2.9541 N   0  0  0  0  0  0  0  0  0  0  0  0
   -1.3850    0.5669    2.7398 H   0  0  0  0  0  0  0  0  0  0  0  0
    0.0265    0.5600    4.3358 C   0  0  0  0  0  0  0  0  0  0  0  0
    0.8964    1.2200    4.3632 H   0  0  0  0  0  0  0  0  0  0  0  0
   -0.7726    0.9946    4.9382 H   0  0  0  0  0  0  0  0  0  0  0  0
    0.3119   -0.4069    4.7547 H   0  0  0  0  0  0  0  0  0  0  0  0
  5  6  2  0  0  0  0
  5  7  1  0  0  0  0
  2  3  1  0  0  0  0
  2  4  1  0  0  0  0
  2  5  1  0  0  0  0
  1  2  1  0  0  0  0
 24 25  2  0  0  0  0
 24 26  1  0  0  0  0
 20 21  1  0  0  0  0
 20 22  1  0  0  0  0
 20 23  1  0  0  0  0
 17 18  1  0  0  0  0
 17 19  1  0  0  0  0
 17 20  1  0  0  0  0
 13 14  1  0  0  0  0
 13 15  1  0  0  0  0
 13 16  1  0  0  0  0
 11 12  1  0  0  0  0
 11 13  1  0  0  0  0
 11 17  1  0  0  0  0
  9 10  1  0  0  0  0
  9 11  1  0  0  0  0
  9 24  1  0  0  0  0
  7  8  1  0  0  0  0
  7  9  1  0  0  0  0
 28 29  1  0  0  0  0
 28 30  1  0  0  0  0
 28 31  1  0  0  0  0
 26 27  1  0  0  0  0
 26 28  1  0  0  0  0
M  END
$$$$
default_name
  -OEChem-02102213163D

 31 30  0     1  0  0  0  0  0999 V2000
   -3.0760   -3.6390    1.5496 H   0  0  0  0  0  0  0  0  0  0  0  0
   -3.0940   -2.6290    1.1426 C   0  0  0  0  0  0  0  0  0  0  0  0
   -3.7160   -1.9930    1.7706 H   0  0  0  0  0  0  0  0  0  0  0  0
   -3.4880   -2.6500    0.1286 H   0  0  0  0  0  0  0  0  0  0  0  0
   -1.6860   -2.0850    1.1196 C   0  0  0  0  0  0  0  0  0  0  0  0
   -0.7540   -2.7700    1.5226 O   0  0  0  0  0  0  0  0  0  0  0  0
   -1.5320   -0.8490    0.6496 N   0  0  0  0  0  0  0  0  0  0  0  0
   -2.3500   -0.3360    0.3566 H   0  0  0  0  0  0  0  0  0  0  0  0
   -0.2470   -0.1410    0.5576 C   0  0  1  0  0  0  0  0  0  0  0  0
    0.4239   -0.7541   -0.0450 H   0  0  0  0  0  0  0  0  0  0  0  0
   -0.4317    1.2160   -0.1683 C   0  0  1  0  0  0  0  0  0  0  0  0
   -1.4765    1.2747   -0.4794 H   0  0  0  0  0  0  0  0  0  0  0  0
   -0.1482    2.4188    0.7516 C   0  0  0  0  0  0  0  0  0  0  0  0
    0.9065    2.4484    1.0309 H   0  0  0  0  0  0  0  0  0  0  0  0
   -0.4094    3.3490    0.2495 H   0  0  0  0  0  0  0  0  0  0  0  0
   -0.7503    2.3496    1.6583 H   0  0  0  0  0  0  0  0  0  0  0  0
    0.4337    1.2827   -1.4467 C   0  0  0  0  0  0  0  0  0  0  0  0
    0.5300    0.2877   -1.8833 H   0  0  0  0  0  0  0  0  0  0  0  0
   -0.0616    1.9280   -2.1721 H   0  0  0  0  0  0  0  0  0  0  0  0
    1.8392    1.8526   -1.2117 C   0  0  0  0  0  0  0  0  0  0  0  0
    2.4200    1.1865   -0.5740 H   0  0  0  0  0  0  0  0  0  0  0  0
    2.3519    1.9506   -2.1688 H   0  0  0  0  0  0  0  0  0  0  0  0
    1.7699    2.8356   -0.7447 H   0  0  0  0  0  0  0  0  0  0  0  0
    0.3833   -0.0008    1.9525 C   0  0  0  0  0  0  0  0  0  0  0  0
    1.5803   -0.2304    2.1189 O   0  0  0  0  0  0  0  0  0  0  0  0
   -0.4170    0.3858    2.9541 N   0  0  0  0  0  0  0  0  0  0  0  0
   -1.3850    0.5669    2.7398 H   0  0  0  0  0  0  0  0  0  0  0  0
    0.0265    0.5600    4.3358 C   0  0  0  0  0  0  0  0  0  0  0  0
    0.8964    1.2200    4.3632 H   0  0  0  0  0  0  0  0  0  0  0  0
   -0.7726    0.9946    4.9382 H   0  0  0  0  0  0  0  0  0  0  0  0
    0.3119   -0.4069    4.7547 H   0  0  0  0  0  0  0  0  0  0  0  0
  5  6  2  0  0  0  0
  5  7  1  0  0  0  0
  2  3  1  0  0  0  0
  2  4  1  0  0  0  0
  2  5  1  0  0  0  0
  1  2  1  0  0  0  0
 24 25  2  0  0  0  0
 24 26  1  0  0  0  0
 20 21  1  0  0  0  0
 20 22  1  0  0  0  0
 20 23  1  0  0  0  0
 17 18  1  0  0  0  0
 17 19  1  0  0  0  0
 17 20  1  0  0  0  0
 13 14  1  0  0  0  0
 13 15  1  0  0  0  0
 13 16  1  0  0  0  0
 11 12  1  0  0  0  0
 11 13  1  0  0  0  0
 11 17  1  0  0  0  0
  9 10  1  0  0  0  0
  9 11  1  0  0  0  0
  9 24  1  0  0  0  0
  7  8  1  0  0  0  0
  7  9  1  0  0  0  0
 28 29  1  0  0  0  0
 28 30  1  0  0  0  0
 28 31  1  0  0  0  0
 26 27  1  0  0  0  0
 26 28  1  0  0  0  0
M  END
$$$$
default_name
  -OEChem-02102213163D

 31 30  0     1  0  0  0  0  0999 V2000
   -3.0760   -3.6390    1.5496 H   0  0  0  0  0  0  0  0  0  0  0  0
   -3.0940   -2.6290    1.1426 C   0  0  0  0  0  0  0  0  0  0  0  0
   -3.7160   -1.9930    1.7706 H   0  0  0  0  0  0  0  0  0  0  0  0
   -3.4880   -2.6500    0.1286 H   0  0  0  0  0  0  0  0  0  0  0  0
   -1.6860   -2.0850    1.1196 C   0  0  0  0  0  0  0  0  0  0  0  0
   -0.7540   -2.7700    1.5226 O   0  0  0  0  0  0  0  0  0  0  0  0
   -1.5320   -0.8490    0.6496 N   0  0  0  0  0  0  0  0  0  0  0  0
   -2.3500   -0.3360    0.3566 H   0  0  0  0  0  0  0  0  0  0  0  0
   -0.2470   -0.1410    0.5576 C   0  0  1  0  0  0  0  0  0  0  0  0
    0.4239   -0.7541   -0.0450 H   0  0  0  0  0  0  0  0  0  0  0  0
   -0.4317    1.2160   -0.1683 C   0  0  1  0  0  0  0  0  0  0  0  0
   -1.4765    1.2747   -0.4794 H   0  0  0  0  0  0  0  0  0  0  0  0
   -0.1482    2.4188    0.7516 C   0  0  0  0  0  0  0  0  0  0  0  0
    0.9065    2.4484    1.0309 H   0  0  0  0  0  0  0  0  0  0  0  0
   -0.4094    3.3490    0.2495 H   0  0  0  0  0  0  0  0  0  0  0  0
   -0.7503    2.3496    1.6583 H   0  0  0  0  0  0  0  0  0  0  0  0
    0.4337    1.2827   -1.4467 C   0  0  0  0  0  0  0  0  0  0  0  0
    0.3159    0.3649   -2.0242 H   0  0  0  0  0  0  0  0  0  0  0  0
    0.0920    2.1178   -2.0582 H   0  0  0  0  0  0  0  0  0  0  0  0
    1.9277    1.4990   -1.1703 C   0  0  0  0  0  0  0  0  0  0  0  0
    2.3489    0.6385   -0.6508 H   0  0  0  0  0  0  0  0  0  0  0  0
    2.4540    1.6242   -2.1168 H   0  0  0  0  0  0  0  0  0  0  0  0
    2.0692    2.3952   -0.5651 H   0  0  0  0  0  0  0  0  0  0  0  0
    0.3833   -0.0008    1.9525 C   0  0  0  0  0  0  0  0  0  0  0  0
    1.5803   -0.2304    2.1189 O   0  0  0  0  0  0  0  0  0  0  0  0
   -0.4170    0.3858    2.9541 N   0  0  0  0  0  0  0  0  0  0  0  0
   -1.3850    0.5669    2.7398 H   0  0  0  0  0  0  0  0  0  0  0  0
    0.0265    0.5600    4.3358 C   0  0  0  0  0  0  0  0  0  0  0  0
    0.8964    1.2200    4.3632 H   0  0  0  0  0  0  0  0  0  0  0  0
   -0.7726    0.9946    4.9382 H   0  0  0  0  0  0  0  0  0  0  0  0
    0.3119   -0.4069    4.7547 H   0  0  0  0  0  0  0  0  0  0  0  0
  5  6  2  0  0  0  0
  5  7  1  0  0  0  0
  2  3  1  0  0  0  0
  2  4  1  0  0  0  0
  2  5  1  0  0  0  0
  1  2  1  0  0  0  0
 24 25  2  0  0  0  0
 24 26  1  0  0  0  0
 20 21  1  0  0  0  0
 20 22  1  0  0  0  0
 20 23  1  0  0  0  0
 17 18  1  0  0  0  0
 17 19  1  0  0  0  0
 17 20  1  0  0  0  0
 13 14  1  0  0  0  0
 13 15  1  0  0  0  0
 13 16  1  0  0  0  0
 11 12  1  0  0  0  0
 11 13  1  0  0  0  0
 11 17  1  0  0  0  0
  9 10  1  0  0  0  0
  9 11  1  0  0  0  0
  9 24  1  0  0  0  0
  7  8  1  0  0  0  0
  7  9  1  0  0  0  0
 28 29  1  0  0  0  0
 28 30  1  0  0  0  0
 28 31  1  0  0  0  0
 26 27  1  0  0  0  0
 26 28  1  0  0  0  0
M  END
$$$$
default_name
  -OEChem-02102213163D

 31 30  0     1  0  0  0  0  0999 V2000
   -3.0760   -3.6390    1.5496 H   0  0  0  0  0  0  0  0  0  0  0  0
   -3.0940   -2.6290    1.1426 C   0  0  0  0  0  0  0  0  0  0  0  0
   -3.7160   -1.9930    1.7706 H   0  0  0  0  0  0  0  0  0  0  0  0
   -3.4880   -2.6500    0.1286 H   0  0  0  0  0  0  0  0  0  0  0  0
   -1.6860   -2.0850    1.1196 C   0  0  0  0  0  0  0  0  0  0  0  0
   -0.7540   -2.7700    1.5226 O   0  0  0  0  0  0  0  0  0  0  0  0
   -1.5320   -0.8490    0.6496 N   0  0  0  0  0  0  0  0  0  0  0  0
   -2.3500   -0.3360    0.3566 H   0  0  0  0  0  0  0  0  0  0  0  0
   -0.2470   -0.1410    0.5576 C   0  0  1  0  0  0  0  0  0  0  0  0
    0.4239   -0.7541   -0.0450 H   0  0  0  0  0  0  0  0  0  0  0  0
   -0.4317    1.2160   -0.1683 C   0  0  1  0  0  0  0  0  0  0  0  0
   -1.4765    1.2747   -0.4794 H   0  0  0  0  0  0  0  0  0  0  0  0
   -0.1482    2.4188    0.7516 C   0  0  0  0  0  0  0  0  0  0  0  0
    0.9065    2.4484    1.0309 H   0  0  0  0  0  0  0  0  0  0  0  0
   -0.4094    3.3490    0.2495 H   0  0  0  0  0  0  0  0  0  0  0  0
   -0.7503    2.3496    1.6583 H   0  0  0  0  0  0  0  0  0  0  0  0
    0.4337    1.2827   -1.4467 C   0  0  0  0  0  0  0  0  0  0  0  0
    0.1240    0.5056   -2.1468 H   0  0  0  0  0  0  0  0  0  0  0  0
    0.2823    2.2517   -1.9224 H   0  0  0  0  0  0  0  0  0  0  0  0
    1.9380    1.1326   -1.1824 C   0  0  0  0  0  0  0  0  0  0  0  0
    2.1619    0.1355   -0.8036 H   0  0  0  0  0  0  0  0  0  0  0  0
    2.4832    1.2796   -2.1150 H   0  0  0  0  0  0  0  0  0  0  0  0
    2.2660    1.8796   -0.4588 H   0  0  0  0  0  0  0  0  0  0  0  0
    0.3833   -0.0008    1.9525 C   0  0  0  0  0  0  0  0  0  0  0  0
    1.5803   -0.2304    2.1189 O   0  0  0  0  0  0  0  0  0  0  0  0
   -0.4170    0.3858    2.9541 N   0  0  0  0  0  0  0  0  0  0  0  0
   -1.3850    0.5669    2.7398 H   0  0  0  0  0  0  0  0  0  0  0  0
    0.0265    0.5600    4.3358 C   0  0  0  0  0  0  0  0  0  0  0  0
    0.8964    1.2200    4.3632 H   0  0  0  0  0  0  0  0  0  0  0  0
   -0.7726    0.9946    4.9382 H   0  0  0  0  0  0  0  0  0  0  0  0
    0.3119   -0.4069    4.7547 H   0  0  0  0  0  0  0  0  0  0  0  0
  5  6  2  0  0  0  0
  5  7  1  0  0  0  0
  2  3  1  0  0  0  0
  2  4  1  0  0  0  0
  2  5  1  0  0  0  0
  1  2  1  0  0  0  0
 24 25  2  0  0  0  0
 24 26  1  0  0  0  0
 20 21  1  0  0  0  0
 20 22  1  0  0  0  0
 20 23  1  0  0  0  0
 17 18  1  0  0  0  0
 17 19  1  0  0  0  0
 17 20  1  0  0  0  0
 13 14  1  0  0  0  0
 13 15  1  0  0  0  0
 13 16  1  0  0  0  0
 11 12  1  0  0  0  0
 11 13  1  0  0  0  0
 11 17  1  0  0  0  0
  9 10  1  0  0  0  0
  9 11  1  0  0  0  0
  9 24  1  0  0  0  0
  7  8  1  0  0  0  0
  7  9  1  0  0  0  0
 28 29  1  0  0  0  0
 28 30  1  0  0  0  0
 28 31  1  0  0  0  0
 26 27  1  0  0  0  0
 26 28  1  0  0  0  0
M  END
$$$$
default_name
  -OEChem-02102213163D

 31 30  0     1  0  0  0  0  0999 V2000
   -3.0760   -3.6390    1.5496 H   0  0  0  0  0  0  0  0  0  0  0  0
   -3.0940   -2.6290    1.1426 C   0  0  0  0  0  0  0  0  0  0  0  0
   -3.7160   -1.9930    1.7706 H   0  0  0  0  0  0  0  0  0  0  0  0
   -3.4880   -2.6500    0.1286 H   0  0  0  0  0  0  0  0  0  0  0  0
   -1.6860   -2.0850    1.1196 C   0  0  0  0  0  0  0  0  0  0  0  0
   -0.7540   -2.7700    1.5226 O   0  0  0  0  0  0  0  0  0  0  0  0
   -1.5320   -0.8490    0.6496 N   0  0  0  0  0  0  0  0  0  0  0  0
   -2.3500   -0.3360    0.3566 H   0  0  0  0  0  0  0  0  0  0  0  0
   -0.2470   -0.1410    0.5576 C   0  0  1  0  0  0  0  0  0  0  0  0
    0.4239   -0.7541   -0.0450 H   0  0  0  0  0  0  0  0  0  0  0  0
   -0.4317    1.2160   -0.1683 C   0  0  1  0  0  0  0  0  0  0  0  0
   -1.4765    1.2747   -0.4794 H   0  0  0  0  0  0  0  0  0  0  0  0
   -0.1482    2.4188    0.7516 C   0  0  0  0  0  0  0  0  0  0  0  0
    0.9065    2.4484    1.0309 H   0  0  0  0  0  0  0  0  0  0  0  0
   -0.4094    3.3490    0.2495 H   0  0  0  0  0  0  0  0  0  0  0  0
   -0.7503    2.3496    1.6583 H   0  0  0  0  0  0  0  0  0  0  0  0
    0.4337    1.2827   -1.4467 C   0  0  0  0  0  0  0  0  0  0  0  0
   -0.0326    0.7004   -2.2426 H   0  0  0  0  0  0  0  0  0  0  0  0
    0.4963    2.3205   -1.7739 H   0  0  0  0  0  0  0  0  0  0  0  0
    1.8693    0.7782   -1.2474 C   0  0  0  0  0  0  0  0  0  0  0  0
    1.8720   -0.2881   -1.0220 H   0  0  0  0  0  0  0  0  0  0  0  0
    2.4377    0.9402   -2.1635 H   0  0  0  0  0  0  0  0  0  0  0  0
    2.3469    1.3241   -0.4330 H   0  0  0  0  0  0  0  0  0  0  0  0
    0.3833   -0.0008    1.9525 C   0  0  0  0  0  0  0  0  0  0  0  0
    1.5803   -0.2304    2.1189 O   0  0  0  0  0  0  0  0  0  0  0  0
   -0.4170    0.3858    2.9541 N   0  0  0  0  0  0  0  0  0  0  0  0
   -1.3850    0.5669    2.7398 H   0  0  0  0  0  0  0  0  0  0  0  0
    0.0265    0.5600    4.3358 C   0  0  0  0  0  0  0  0  0  0  0  0
    0.8964    1.2200    4.3632 H   0  0  0  0  0  0  0  0  0  0  0  0
   -0.7726    0.9946    4.9382 H   0  0  0  0  0  0  0  0  0  0  0  0
    0.3119   -0.4069    4.7547 H   0  0  0  0  0  0  0  0  0  0  0  0
  5  6  2  0  0  0  0
  5  7  1  0  0  0  0
  2  3  1  0  0  0  0
  2  4  1  0  0  0  0
  2  5  1  0  0  0  0
  1  2  1  0  0  0  0
 24 25  2  0  0  0  0
 24 26  1  0  0  0  0
 20 21  1  0  0  0  0
 20 22  1  0  0  0  0
 20 23  1  0  0  0  0
 17 18  1  0  0  0  0
 17 19  1  0  0  0  0
 17 20  1  0  0  0  0
 13 14  1  0  0  0  0
 13 15  1  0  0  0  0
 13 16  1  0  0  0  0
 11 12  1  0  0  0  0
 11 13  1  0  0  0  0
 11 17  1  0  0  0  0
  9 10  1  0  0  0  0
  9 11  1  0  0  0  0
  9 24  1  0  0  0  0
  7  8  1  0  0  0  0
  7  9  1  0  0  0  0
 28 29  1  0  0  0  0
 28 30  1  0  0  0  0
 28 31  1  0  0  0  0
 26 27  1  0  0  0  0
 26 28  1  0  0  0  0
M  END
$$$$
default_name
  -OEChem-02102213163D

 31 30  0     1  0  0  0  0  0999 V2000
   -3.0760   -3.6390    1.5496 H   0  0  0  0  0  0  0  0  0  0  0  0
   -3.0940   -2.6290    1.1426 C   0  0  0  0  0  0  0  0  0  0  0  0
   -3.7160   -1.9930    1.7706 H   0  0  0  0  0  0  0  0  0  0  0  0
   -3.4880   -2.6500    0.1286 H   0  0  0  0  0  0  0  0  0  0  0  0
   -1.6860   -2.0850    1.1196 C   0  0  0  0  0  0  0  0  0  0  0  0
   -0.7540   -2.7700    1.5226 O   0  0  0  0  0  0  0  0  0  0  0  0
   -1.5320   -0.8490    0.6496 N   0  0  0  0  0  0  0  0  0  0  0  0
   -2.3500   -0.3360    0.3566 H   0  0  0  0  0  0  0  0  0  0  0  0
   -0.2470   -0.1410    0.5576 C   0  0  1  0  0  0  0  0  0  0  0  0
    0.4239   -0.7541   -0.0450 H   0  0  0  0  0  0  0  0  0  0  0  0
   -0.4317    1.2160   -0.1683 C   0  0  1  0  0  0  0  0  0  0  0  0
   -1.4765    1.2747   -0.4794 H   0  0  0  0  0  0  0  0  0  0  0  0
   -0.1482    2.4188    0.7516 C   0  0  0  0  0  0  0  0  0  0  0  0
    0.9065    2.4484    1.0309 H   0  0  0  0  0  0  0  0  0  0  0  0
   -0.4094    3.3490    0.2495 H   0  0  0  0  0  0  0  0  0  0  0  0
   -0.7503    2.3496    1.6583 H   0  0  0  0  0  0  0  0  0  0  0  0
    0.4337    1.2827   -1.4467 C   0  0  0  0  0  0  0  0  0  0  0  0
   -0.1432    0.9360   -2.3051 H   0  0  0  0  0  0  0  0  0  0  0  0
    0.7194    2.3197   -1.6229 H   0  0  0  0  0  0  0  0  0  0  0  0
    1.7264    0.4600   -1.3608 C   0  0  0  0  0  0  0  0  0  0  0  0
    1.4987   -0.6035   -1.2912 H   0  0  0  0  0  0  0  0  0  0  0  0
    2.3205    0.6292   -2.2591 H   0  0  0  0  0  0  0  0  0  0  0  0
    2.3064    0.7664   -0.4896 H   0  0  0  0  0  0  0  0  0  0  0  0
    0.3833   -0.0008    1.9525 C   0  0  0  0  0  0  0  0  0  0  0  0
    1.5803   -0.2304    2.1189 O   0  0  0  0  0  0  0  0  0  0  0  0
   -0.4170    0.3858    2.9541 N   0  0  0  0  0  0  0  0  0  0  0  0
   -1.3850    0.5669    2.7398 H   0  0  0  0  0  0  0  0  0  0  0  0
    0.0265    0.5600    4.3358 C   0  0  0  0  0  0  0  0  0  0  0  0
    0.8964    1.2200    4.3632 H   0  0  0  0  0  0  0  0  0  0  0  0
   -0.7726    0.9946    4.9382 H   0  0  0  0  0  0  0  0  0  0  0  0
    0.3119   -0.4069    4.7547 H   0  0  0  0  0  0  0  0  0  0  0  0
  5  6  2  0  0  0  0
  5  7  1  0  0  0  0
  2  3  1  0  0  0  0
  2  4  1  0  0  0  0
  2  5  1  0  0  0  0
  1  2  1  0  0  0  0
 24 25  2  0  0  0  0
 24 26  1  0  0  0  0
 20 21  1  0  0  0  0
 20 22  1  0  0  0  0
 20 23  1  0  0  0  0
 17 18  1  0  0  0  0
 17 19  1  0  0  0  0
 17 20  1  0  0  0  0
 13 14  1  0  0  0  0
 13 15  1  0  0  0  0
 13 16  1  0  0  0  0
 11 12  1  0  0  0  0
 11 13  1  0  0  0  0
 11 17  1  0  0  0  0
  9 10  1  0  0  0  0
  9 11  1  0  0  0  0
  9 24  1  0  0  0  0
  7  8  1  0  0  0  0
  7  9  1  0  0  0  0
 28 29  1  0  0  0  0
 28 30  1  0  0  0  0
 28 31  1  0  0  0  0
 26 27  1  0  0  0  0
 26 28  1  0  0  0  0
M  END
$$$$
default_name
  -OEChem-02102213163D

 31 30  0     1  0  0  0  0  0999 V2000
   -3.0760   -3.6390    1.5496 H   0  0  0  0  0  0  0  0  0  0  0  0
   -3.0940   -2.6290    1.1426 C   0  0  0  0  0  0  0  0  0  0  0  0
   -3.7160   -1.9930    1.7706 H   0  0  0  0  0  0  0  0  0  0  0  0
   -3.4880   -2.6500    0.1286 H   0  0  0  0  0  0  0  0  0  0  0  0
   -1.6860   -2.0850    1.1196 C   0  0  0  0  0  0  0  0  0  0  0  0
   -0.7540   -2.7700    1.5226 O   0  0  0  0  0  0  0  0  0  0  0  0
   -1.5320   -0.8490    0.6496 N   0  0  0  0  0  0  0  0  0  0  0  0
   -2.3500   -0.3360    0.3566 H   0  0  0  0  0  0  0  0  0  0  0  0
   -0.2470   -0.1410    0.5576 C   0  0  1  0  0  0  0  0  0  0  0  0
    0.4239   -0.7541   -0.0450 H   0  0  0  0  0  0  0  0  0  0  0  0
   -0.4317    1.2160   -0.1683 C   0  0  1  0  0  0  0  0  0  0  0  0
   -1.4765    1.2747   -0.4794 H   0  0  0  0  0  0  0  0  0  0  0  0
   -0.1482    2.4188    0.7516 C   0  0  0  0  0  0  0  0  0  0  0  0
    0.9065    2.4484    1.0309 H   0  0  0  0  0  0  0  0  0  0  0  0
   -0.4094    3.3490    0.2495 H   0  0  0  0  0  0  0  0  0  0  0  0
   -0.7503    2.3496    1.6583 H   0  0  0  0  0  0  0  0  0  0  0  0
    0.4337    1.2827   -1.4467 C   0  0  0  0  0  0  0  0  0  0  0  0
   -0.2003    1.1964   -2.3302 H   0  0  0  0  0  0  0  0  0  0  0  0
    0.9365    2.2492   -1.4797 H   0  0  0  0  0  0  0  0  0  0  0  0
    1.5189    0.1997   -1.5148 C   0  0  0  0  0  0  0  0  0  0  0  0
    1.0676   -0.7893   -1.5927 H   0  0  0  0  0  0  0  0  0  0  0  0
    2.1397    0.3677   -2.3952 H   0  0  0  0  0  0  0  0  0  0  0  0
    2.1472    0.2446   -0.6246 H   0  0  0  0  0  0  0  0  0  0  0  0
    0.3833   -0.0008    1.9525 C   0  0  0  0  0  0  0  0  0  0  0  0
    1.5803   -0.2304    2.1189 O   0  0  0  0  0  0  0  0  0  0  0  0
   -0.4170    0.3858    2.9541 N   0  0  0  0  0  0  0  0  0  0  0  0
   -1.3850    0.5669    2.7398 H   0  0  0  0  0  0  0  0  0  0  0  0
    0.0265    0.5600    4.3358 C   0  0  0  0  0  0  0  0  0  0  0  0
    0.8964    1.2200    4.3632 H   0  0  0  0  0  0  0  0  0  0  0  0
   -0.7726    0.9946    4.9382 H   0  0  0  0  0  0  0  0  0  0  0  0
    0.3119   -0.4069    4.7547 H   0  0  0  0  0  0  0  0  0  0  0  0
  5  6  2  0  0  0  0
  5  7  1  0  0  0  0
  2  3  1  0  0  0  0
  2  4  1  0  0  0  0
  2  5  1  0  0  0  0
  1  2  1  0  0  0  0
 24 25  2  0  0  0  0
 24 26  1  0  0  0  0
 20 21  1  0  0  0  0
 20 22  1  0  0  0  0
 20 23  1  0  0  0  0
 17 18  1  0  0  0  0
 17 19  1  0  0  0  0
 17 20  1  0  0  0  0
 13 14  1  0  0  0  0
 13 15  1  0  0  0  0
 13 16  1  0  0  0  0
 11 12  1  0  0  0  0
 11 13  1  0  0  0  0
 11 17  1  0  0  0  0
  9 10  1  0  0  0  0
  9 11  1  0  0  0  0
  9 24  1  0  0  0  0
  7  8  1  0  0  0  0
  7  9  1  0  0  0  0
 28 29  1  0  0  0  0
 28 30  1  0  0  0  0
 28 31  1  0  0  0  0
 26 27  1  0  0  0  0
 26 28  1  0  0  0  0
M  END
$$$$
default_name
  -OEChem-02102213163D

 31 30  0     1  0  0  0  0  0999 V2000
   -3.0760   -3.6390    1.5496 H   0  0  0  0  0  0  0  0  0  0  0  0
   -3.0940   -2.6290    1.1426 C   0  0  0  0  0  0  0  0  0  0  0  0
   -3.7160   -1.9930    1.7706 H   0  0  0  0  0  0  0  0  0  0  0  0
   -3.4880   -2.6500    0.1286 H   0  0  0  0  0  0  0  0  0  0  0  0
   -1.6860   -2.0850    1.1196 C   0  0  0  0  0  0  0  0  0  0  0  0
   -0.7540   -2.7700    1.5226 O   0  0  0  0  0  0  0  0  0  0  0  0
   -1.5320   -0.8490    0.6496 N   0  0  0  0  0  0  0  0  0  0  0  0
   -2.3500   -0.3360    0.3566 H   0  0  0  0  0  0  0  0  0  0  0  0
   -0.2470   -0.1410    0.5576 C   0  0  1  0  0  0  0  0  0  0  0  0
    0.4239   -0.7541   -0.0450 H   0  0  0  0  0  0  0  0  0  0  0  0
   -0.4317    1.2160   -0.1683 C   0  0  1  0  0  0  0  0  0  0  0  0
   -1.4765    1.2747   -0.4794 H   0  0  0  0  0  0  0  0  0  0  0  0
   -0.1482    2.4188    0.7516 C   0  0  0  0  0  0  0  0  0  0  0  0
    0.9065    2.4484    1.0309 H   0  0  0  0  0  0  0  0  0  0  0  0
   -0.4094    3.3490    0.2495 H   0  0  0  0  0  0  0  0  0  0  0  0
   -0.7503    2.3496    1.6583 H   0  0  0  0  0  0  0  0  0  0  0  0
    0.4337    1.2827   -1.4467 C   0  0  0  0  0  0  0  0  0  0  0  0
   -0.1999    1.4637   -2.3160 H   0  0  0  0  0  0  0  0  0  0  0  0
    1.1326    2.1139   -1.3540 H   0  0  0  0  0  0  0  0  0  0  0  0
    1.2610    0.0150   -1.6990 C   0  0  0  0  0  0  0  0  0  0  0  0
    0.6081   -0.8327   -1.9060 H   0  0  0  0  0  0  0  0  0  0  0  0
    1.9074    0.1736   -2.5625 H   0  0  0  0  0  0  0  0  0  0  0  0
    1.8802   -0.2058   -0.8289 H   0  0  0  0  0  0  0  0  0  0  0  0
    0.3833   -0.0008    1.9525 C   0  0  0  0  0  0  0  0  0  0  0  0
    1.5803   -0.2304    2.1189 O   0  0  0  0  0  0  0  0  0  0  0  0
   -0.4170    0.3858    2.9541 N   0  0  0  0  0  0  0  0  0  0  0  0
   -1.3850    0.5669    2.7398 H   0  0  0  0  0  0  0  0  0  0  0  0
    0.0265    0.5600    4.3358 C   0  0  0  0  0  0  0  0  0  0  0  0
    0.8964    1.2200    4.3632 H   0  0  0  0  0  0  0  0  0  0  0  0
   -0.7726    0.9946    4.9382 H   0  0  0  0  0  0  0  0  0  0  0  0
    0.3119   -0.4069    4.7547 H   0  0  0  0  0  0  0  0  0  0  0  0
  5  6  2  0  0  0  0
  5  7  1  0  0  0  0
  2  3  1  0  0  0  0
  2  4  1  0  0  0  0
  2  5  1  0  0  0  0
  1  2  1  0  0  0  0
 24 25  2  0  0  0  0
 24 26  1  0  0  0  0
 20 21  1  0  0  0  0
 20 22  1  0  0  0  0
 20 23  1  0  0  0  0
 17 18  1  0  0  0  0
 17 19  1  0  0  0  0
 17 20  1  0  0  0  0
 13 14  1  0  0  0  0
 13 15  1  0  0  0  0
 13 16  1  0  0  0  0
 11 12  1  0  0  0  0
 11 13  1  0  0  0  0
 11 17  1  0  0  0  0
  9 10  1  0  0  0  0
  9 11  1  0  0  0  0
  9 24  1  0  0  0  0
  7  8  1  0  0  0  0
  7  9  1  0  0  0  0
 28 29  1  0  0  0  0
 28 30  1  0  0  0  0
 28 31  1  0  0  0  0
 26 27  1  0  0  0  0
 26 28  1  0  0  0  0
M  END
$$$$
default_name
  -OEChem-02102213163D

 31 30  0     1  0  0  0  0  0999 V2000
   -3.0760   -3.6390    1.5496 H   0  0  0  0  0  0  0  0  0  0  0  0
   -3.0940   -2.6290    1.1426 C   0  0  0  0  0  0  0  0  0  0  0  0
   -3.7160   -1.9930    1.7706 H   0  0  0  0  0  0  0  0  0  0  0  0
   -3.4880   -2.6500    0.1286 H   0  0  0  0  0  0  0  0  0  0  0  0
   -1.6860   -2.0850    1.1196 C   0  0  0  0  0  0  0  0  0  0  0  0
   -0.7540   -2.7700    1.5226 O   0  0  0  0  0  0  0  0  0  0  0  0
   -1.5320   -0.8490    0.6496 N   0  0  0  0  0  0  0  0  0  0  0  0
   -2.3500   -0.3360    0.3566 H   0  0  0  0  0  0  0  0  0  0  0  0
   -0.2470   -0.1410    0.5576 C   0  0  1  0  0  0  0  0  0  0  0  0
    0.4239   -0.7541   -0.0450 H   0  0  0  0  0  0  0  0  0  0  0  0
   -0.4317    1.2160   -0.1683 C   0  0  1  0  0  0  0  0  0  0  0  0
   -1.4765    1.2747   -0.4794 H   0  0  0  0  0  0  0  0  0  0  0  0
   -0.1482    2.4188    0.7516 C   0  0  0  0  0  0  0  0  0  0  0  0
    0.9065    2.4484    1.0309 H   0  0  0  0  0  0  0  0  0  0  0  0
   -0.4094    3.3490    0.2495 H   0  0  0  0  0  0  0  0  0  0  0  0
   -0.7503    2.3496    1.6583 H   0  0  0  0  0  0  0  0  0  0  0  0
    0.4337    1.2827   -1.4467 C   0  0  0  0  0  0  0  0  0  0  0  0
   -0.1422    1.7197   -2.2636 H   0  0  0  0  0  0  0  0  0  0  0  0
    1.2945    1.9230   -1.2544 H   0  0  0  0  0  0  0  0  0  0  0  0
    0.9703   -0.0815   -1.9009 C   0  0  0  0  0  0  0  0  0  0  0  0
    0.1514   -0.7308   -2.2098 H   0  0  0  0  0  0  0  0  0  0  0  0
    1.6397    0.0600   -2.7497 H   0  0  0  0  0  0  0  0  0  0  0  0
    1.5235   -0.5540   -1.0885 H   0  0  0  0  0  0  0  0  0  0  0  0
    0.3833   -0.0008    1.9525 C   0  0  0  0  0  0  0  0  0  0  0  0
    1.5803   -0.2304    2.1189 O   0  0  0  0  0  0  0  0  0  0  0  0
   -0.4170    0.3858    2.9541 N   0  0  0  0  0  0  0  0  0  0  0  0
   -1.3850    0.5669    2.7398 H   0  0  0  0  0  0  0  0  0  0  0  0
    0.0265    0.5600    4.3358 C   0  0  0  0  0  0  0  0  0  0  0  0
    0.8964    1.2200    4.3632 H   0  0  0  0  0  0  0  0  0  0  0  0
   -0.7726    0.9946    4.9382 H   0  0  0  0  0  0  0  0  0  0  0  0
    0.3119   -0.4069    4.7547 H   0  0  0  0  0  0  0  0  0  0  0  0
  5  6  2  0  0  0  0
  5  7  1  0  0  0  0
  2  3  1  0  0  0  0
  2  4  1  0  0  0  0
  2  5  1  0  0  0  0
  1  2  1  0  0  0  0
 24 25  2  0  0  0  0
 24 26  1  0  0  0  0
 20 21  1  0  0  0  0
 20 22  1  0  0  0  0
 20 23  1  0  0  0  0
 17 18  1  0  0  0  0
 17 19  1  0  0  0  0
 17 20  1  0  0  0  0
 13 14  1  0  0  0  0
 13 15  1  0  0  0  0
 13 16  1  0  0  0  0
 11 12  1  0  0  0  0
 11 13  1  0  0  0  0
 11 17  1  0  0  0  0
  9 10  1  0  0  0  0
  9 11  1  0  0  0  0
  9 24  1  0  0  0  0
  7  8  1  0  0  0  0
  7  9  1  0  0  0  0
 28 29  1  0  0  0  0
 28 30  1  0  0  0  0
 28 31  1  0  0  0  0
 26 27  1  0  0  0  0
 26 28  1  0  0  0  0
M  END
$$$$
default_name
  -OEChem-02102213163D

 31 30  0     1  0  0  0  0  0999 V2000
   -3.0760   -3.6390    1.5496 H   0  0  0  0  0  0  0  0  0  0  0  0
   -3.0940   -2.6290    1.1426 C   0  0  0  0  0  0  0  0  0  0  0  0
   -3.7160   -1.9930    1.7706 H   0  0  0  0  0  0  0  0  0  0  0  0
   -3.4880   -2.6500    0.1286 H   0  0  0  0  0  0  0  0  0  0  0  0
   -1.6860   -2.0850    1.1196 C   0  0  0  0  0  0  0  0  0  0  0  0
   -0.7540   -2.7700    1.5226 O   0  0  0  0  0  0  0  0  0  0  0  0
   -1.5320   -0.8490    0.6496 N   0  0  0  0  0  0  0  0  0  0  0  0
   -2.3500   -0.3360    0.3566 H   0  0  0  0  0  0  0  0  0  0  0  0
   -0.2470   -0.1410    0.5576 C   0  0  1  0  0  0  0  0  0  0  0  0
    0.4239   -0.7541   -0.0450 H   0  0  0  0  0  0  0  0  0  0  0  0
   -0.4317    1.2160   -0.1683 C   0  0  1  0  0  0  0  0  0  0  0  0
   -1.4765    1.2747   -0.4794 H   0  0  0  0  0  0  0  0  0  0  0  0
   -0.1482    2.4188    0.7516 C   0  0  0  0  0  0  0  0  0  0  0  0
    0.9065    2.4484    1.0309 H   0  0  0  0  0  0  0  0  0  0  0  0
   -0.4094    3.3490    0.2495 H   0  0  0  0  0  0  0  0  0  0  0  0
   -0.7503    2.3496    1.6583 H   0  0  0  0  0  0  0  0  0  0  0  0
    0.4337    1.2827   -1.4467 C   0  0  0  0  0  0  0  0  0  0  0  0
   -0.0311    1.9471   -2.1764 H   0  0  0  0  0  0  0  0  0  0  0  0
    1.4111    1.6895   -1.1876 H   0  0  0  0  0  0  0  0  0  0  0  0
    0.6666   -0.0832   -2.1065 C   0  0  0  0  0  0  0  0  0  0  0  0
   -0.2713   -0.4906   -2.4834 H   0  0  0  0  0  0  0  0  0  0  0  0
    1.3547    0.0348   -2.9440 H   0  0  0  0  0  0  0  0  0  0  0  0
    1.1016   -0.7764   -1.3857 H   0  0  0  0  0  0  0  0  0  0  0  0
    0.3833   -0.0008    1.9525 C   0  0  0  0  0  0  0  0  0  0  0  0
    1.5803   -0.2304    2.1189 O   0  0  0  0  0  0  0  0  0  0  0  0
   -0.4170    0.3858    2.9541 N   0  0  0  0  0  0  0  0  0  0  0  0
   -1.3850    0.5669    2.7398 H   0  0  0  0  0  0  0  0  0  0  0  0
    0.0265    0.5600    4.3358 C   0  0  0  0  0  0  0  0  0  0  0  0
    0.8964    1.2200    4.3632 H   0  0  0  0  0  0  0  0  0  0  0  0
   -0.7726    0.9946    4.9382 H   0  0  0  0  0  0  0  0  0  0  0  0
    0.3119   -0.4069    4.7547 H   0  0  0  0  0  0  0  0  0  0  0  0
  5  6  2  0  0  0  0
  5  7  1  0  0  0  0
  2  3  1  0  0  0  0
  2  4  1  0  0  0  0
  2  5  1  0  0  0  0
  1  2  1  0  0  0  0
 24 25  2  0  0  0  0
 24 26  1  0  0  0  0
 20 21  1  0  0  0  0
 20 22  1  0  0  0  0
 20 23  1  0  0  0  0
 17 18  1  0  0  0  0
 17 19  1  0  0  0  0
 17 20  1  0  0  0  0
 13 14  1  0  0  0  0
 13 15  1  0  0  0  0
 13 16  1  0  0  0  0
 11 12  1  0  0  0  0
 11 13  1  0  0  0  0
 11 17  1  0  0  0  0
  9 10  1  0  0  0  0
  9 11  1  0  0  0  0
  9 24  1  0  0  0  0
  7  8  1  0  0  0  0
  7  9  1  0  0  0  0
 28 29  1  0  0  0  0
 28 30  1  0  0  0  0
 28 31  1  0  0  0  0
 26 27  1  0  0  0  0
 26 28  1  0  0  0  0
M  END
$$$$
default_name
  -OEChem-02102213163D

 31 30  0     1  0  0  0  0  0999 V2000
   -3.0760   -3.6390    1.5496 H   0  0  0  0  0  0  0  0  0  0  0  0
   -3.0940   -2.6290    1.1426 C   0  0  0  0  0  0  0  0  0  0  0  0
   -3.7160   -1.9930    1.7706 H   0  0  0  0  0  0  0  0  0  0  0  0
   -3.4880   -2.6500    0.1286 H   0  0  0  0  0  0  0  0  0  0  0  0
   -1.6860   -2.0850    1.1196 C   0  0  0  0  0  0  0  0  0  0  0  0
   -0.7540   -2.7700    1.5226 O   0  0  0  0  0  0  0  0  0  0  0  0
   -1.5320   -0.8490    0.6496 N   0  0  0  0  0  0  0  0  0  0  0  0
   -2.3500   -0.3360    0.3566 H   0  0  0  0  0  0  0  0  0  0  0  0
   -0.2470   -0.1410    0.5576 C   0  0  1  0  0  0  0  0  0  0  0  0
    0.4239   -0.7541   -0.0450 H   0  0  0  0  0  0  0  0  0  0  0  0
   -0.4317    1.2160   -0.1683 C   0  0  1  0  0  0  0  0  0  0  0  0
   -1.4765    1.2747   -0.4794 H   0  0  0  0  0  0  0  0  0  0  0  0
   -0.1482    2.4188    0.7516 C   0  0  0  0  0  0  0  0  0  0  0  0
    0.9065    2.4484    1.0309 H   0  0  0  0  0  0  0  0  0  0  0  0
   -0.4094    3.3490    0.2495 H   0  0  0  0  0  0  0  0  0  0  0  0
   -0.7503    2.3496    1.6583 H   0  0  0  0  0  0  0  0  0  0  0  0
    0.4337    1.2827   -1.4467 C   0  0  0  0  0  0  0  0  0  0  0  0
    0.1260    2.1303   -2.0606 H   0  0  0  0  0  0  0  0  0  0  0  0
    1.4745    1.4293   -1.1583 H   0  0  0  0  0  0  0  0  0  0  0  0
    0.3706    0.0101   -2.3020 C   0  0  0  0  0  0  0  0  0  0  0  0
   -0.6312   -0.1284   -2.7082 H   0  0  0  0  0  0  0  0  0  0  0  0
    1.0718    0.0997   -3.1321 H   0  0  0  0  0  0  0  0  0  0  0  0
    0.6431   -0.8577   -1.7003 H   0  0  0  0  0  0  0  0  0  0  0  0
    0.3833   -0.0008    1.9525 C   0  0  0  0  0  0  0  0  0  0  0  0
    1.5803   -0.2304    2.1189 O   0  0  0  0  0  0  0  0  0  0  0  0
   -0.4170    0.3858    2.9541 N   0  0  0  0  0  0  0  0  0  0  0  0
   -1.3850    0.5669    2.7398 H   0  0  0  0  0  0  0  0  0  0  0  0
    0.0265    0.5600    4.3358 C   0  0  0  0  0  0  0  0  0  0  0  0
    0.8964    1.2200    4.3632 H   0  0  0  0  0  0  0  0  0  0  0  0
   -0.7726    0.9946    4.9382 H   0  0  0  0  0  0  0  0  0  0  0  0
    0.3119   -0.4069    4.7547 H   0  0  0  0  0  0  0  0  0  0  0  0
  5  6  2  0  0  0  0
  5  7  1  0  0  0  0
  2  3  1  0  0  0  0
  2  4  1  0  0  0  0
  2  5  1  0  0  0  0
  1  2  1  0  0  0  0
 24 25  2  0  0  0  0
 24 26  1  0  0  0  0
 20 21  1  0  0  0  0
 20 22  1  0  0  0  0
 20 23  1  0  0  0  0
 17 18  1  0  0  0  0
 17 19  1  0  0  0  0
 17 20  1  0  0  0  0
 13 14  1  0  0  0  0
 13 15  1  0  0  0  0
 13 16  1  0  0  0  0
 11 12  1  0  0  0  0
 11 13  1  0  0  0  0
 11 17  1  0  0  0  0
  9 10  1  0  0  0  0
  9 11  1  0  0  0  0
  9 24  1  0  0  0  0
  7  8  1  0  0  0  0
  7  9  1  0  0  0  0
 28 29  1  0  0  0  0
 28 30  1  0  0  0  0
 28 31  1  0  0  0  0
 26 27  1  0  0  0  0
 26 28  1  0  0  0  0
M  END
$$$$
default_name
  -OEChem-02102213163D

 31 30  0     1  0  0  0  0  0999 V2000
   -3.0760   -3.6390    1.5496 H   0  0  0  0  0  0  0  0  0  0  0  0
   -3.0940   -2.6290    1.1426 C   0  0  0  0  0  0  0  0  0  0  0  0
   -3.7160   -1.9930    1.7706 H   0  0  0  0  0  0  0  0  0  0  0  0
   -3.4880   -2.6500    0.1286 H   0  0  0  0  0  0  0  0  0  0  0  0
   -1.6860   -2.0850    1.1196 C   0  0  0  0  0  0  0  0  0  0  0  0
   -0.7540   -2.7700    1.5226 O   0  0  0  0  0  0  0  0  0  0  0  0
   -1.5320   -0.8490    0.6496 N   0  0  0  0  0  0  0  0  0  0  0  0
   -2.3500   -0.3360    0.3566 H   0  0  0  0  0  0  0  0  0  0  0  0
   -0.2470   -0.1410    0.5576 C   0  0  1  0  0  0  0  0  0  0  0  0
    0.4239   -0.7541   -0.0450 H   0  0  0  0  0  0  0  0  0  0  0  0
   -0.4317    1.2160   -0.1683 C   0  0  1  0  0  0  0  0  0  0  0  0
   -1.4765    1.2747   -0.4794 H   0  0  0  0  0  0  0  0  0  0  0  0
   -0.1482    2.4188    0.7516 C   0  0  0  0  0  0  0  0  0  0  0  0
    0.9065    2.4484    1.0309 H   0  0  0  0  0  0  0  0  0  0  0  0
   -0.4094    3.3490    0.2495 H   0  0  0  0  0  0  0  0  0  0  0  0
   -0.7503    2.3496    1.6583 H   0  0  0  0  0  0  0  0  0  0  0  0
    0.4337    1.2827   -1.4467 C   0  0  0  0  0  0  0  0  0  0  0  0
    0.3182    2.2568   -1.9238 H   0  0  0  0  0  0  0  0  0  0  0  0
    1.4804    1.1602   -1.1684 H   0  0  0  0  0  0  0  0  0  0  0  0
    0.1025    0.1918   -2.4741 C   0  0  0  0  0  0  0  0  0  0  0  0
   -0.9038    0.3312   -2.8687 H   0  0  0  0  0  0  0  0  0  0  0  0
    0.8103    0.2501   -3.3012 H   0  0  0  0  0  0  0  0  0  0  0  0
    0.1792   -0.7925   -2.0109 H   0  0  0  0  0  0  0  0  0  0  0  0
    0.3833   -0.0008    1.9525 C   0  0  0  0  0  0  0  0  0  0  0  0
    1.5803   -0.2304    2.1189 O   0  0  0  0  0  0  0  0  0  0  0  0
   -0.4170    0.3858    2.9541 N   0  0  0  0  0  0  0  0  0  0  0  0
   -1.3850    0.5669    2.7398 H   0  0  0  0  0  0  0  0  0  0  0  0
    0.0265    0.5600    4.3358 C   0  0  0  0  0  0  0  0  0  0  0  0
    0.8964    1.2200    4.3632 H   0  0  0  0  0  0  0  0  0  0  0  0
   -0.7726    0.9946    4.9382 H   0  0  0  0  0  0  0  0  0  0  0  0
    0.3119   -0.4069    4.7547 H   0  0  0  0  0  0  0  0  0  0  0  0
  5  6  2  0  0  0  0
  5  7  1  0  0  0  0
  2  3  1  0  0  0  0
  2  4  1  0  0  0  0
  2  5  1  0  0  0  0
  1  2  1  0  0  0  0
 24 25  2  0  0  0  0
 24 26  1  0  0  0  0
 20 21  1  0  0  0  0
 20 22  1  0  0  0  0
 20 23  1  0  0  0  0
 17 18  1  0  0  0  0
 17 19  1  0  0  0  0
 17 20  1  0  0  0  0
 13 14  1  0  0  0  0
 13 15  1  0  0  0  0
 13 16  1  0  0  0  0
 11 12  1  0  0  0  0
 11 13  1  0  0  0  0
 11 17  1  0  0  0  0
  9 10  1  0  0  0  0
  9 11  1  0  0  0  0
  9 24  1  0  0  0  0
  7  8  1  0  0  0  0
  7  9  1  0  0  0  0
 28 29  1  0  0  0  0
 28 30  1  0  0  0  0
 28 31  1  0  0  0  0
 26 27  1  0  0  0  0
 26 28  1  0  0  0  0
M  END
$$$$
default_name
  -OEChem-02102213163D

 31 30  0     1  0  0  0  0  0999 V2000
   -3.0760   -3.6390    1.5496 H   0  0  0  0  0  0  0  0  0  0  0  0
   -3.0940   -2.6290    1.1426 C   0  0  0  0  0  0  0  0  0  0  0  0
   -3.7160   -1.9930    1.7706 H   0  0  0  0  0  0  0  0  0  0  0  0
   -3.4880   -2.6500    0.1286 H   0  0  0  0  0  0  0  0  0  0  0  0
   -1.6860   -2.0850    1.1196 C   0  0  0  0  0  0  0  0  0  0  0  0
   -0.7540   -2.7700    1.5226 O   0  0  0  0  0  0  0  0  0  0  0  0
   -1.5320   -0.8490    0.6496 N   0  0  0  0  0  0  0  0  0  0  0  0
   -2.3500   -0.3360    0.3566 H   0  0  0  0  0  0  0  0  0  0  0  0
   -0.2470   -0.1410    0.5576 C   0  0  1  0  0  0  0  0  0  0  0  0
    0.4239   -0.7541   -0.0450 H   0  0  0  0  0  0  0  0  0  0  0  0
   -0.4317    1.2160   -0.1683 C   0  0  1  0  0  0  0  0  0  0  0  0
   -1.4765    1.2747   -0.4794 H   0  0  0  0  0  0  0  0  0  0  0  0
   -0.1482    2.4188    0.7516 C   0  0  0  0  0  0  0  0  0  0  0  0
    0.9065    2.4484    1.0309 H   0  0  0  0  0  0  0  0  0  0  0  0
   -0.4094    3.3490    0.2495 H   0  0  0  0  0  0  0  0  0  0  0  0
   -0.7503    2.3496    1.6583 H   0  0  0  0  0  0  0  0  0  0  0  0
    0.4337    1.2827   -1.4467 C   0  0  0  0  0  0  0  0  0  0  0  0
    0.5325    2.3181   -1.7756 H   0  0  0  0  0  0  0  0  0  0  0  0
    1.4283    0.9004   -1.2172 H   0  0  0  0  0  0  0  0  0  0  0  0
   -0.1196    0.4497   -2.6109 C   0  0  0  0  0  0  0  0  0  0  0  0
   -1.0705    0.8567   -2.9541 H   0  0  0  0  0  0  0  0  0  0  0  0
    0.5881    0.4760   -3.4398 H   0  0  0  0  0  0  0  0  0  0  0  0
   -0.2583   -0.5852   -2.2962 H   0  0  0  0  0  0  0  0  0  0  0  0
    0.3833   -0.0008    1.9525 C   0  0  0  0  0  0  0  0  0  0  0  0
    1.5803   -0.2304    2.1189 O   0  0  0  0  0  0  0  0  0  0  0  0
   -0.4170    0.3858    2.9541 N   0  0  0  0  0  0  0  0  0  0  0  0
   -1.3850    0.5669    2.7398 H   0  0  0  0  0  0  0  0  0  0  0  0
    0.0265    0.5600    4.3358 C   0  0  0  0  0  0  0  0  0  0  0  0
    0.8964    1.2200    4.3632 H   0  0  0  0  0  0  0  0  0  0  0  0
   -0.7726    0.9946    4.9382 H   0  0  0  0  0  0  0  0  0  0  0  0
    0.3119   -0.4069    4.7547 H   0  0  0  0  0  0  0  0  0  0  0  0
  5  6  2  0  0  0  0
  5  7  1  0  0  0  0
  2  3  1  0  0  0  0
  2  4  1  0  0  0  0
  2  5  1  0  0  0  0
  1  2  1  0  0  0  0
 24 25  2  0  0  0  0
 24 26  1  0  0  0  0
 20 21  1  0  0  0  0
 20 22  1  0  0  0  0
 20 23  1  0  0  0  0
 17 18  1  0  0  0  0
 17 19  1  0  0  0  0
 17 20  1  0  0  0  0
 13 14  1  0  0  0  0
 13 15  1  0  0  0  0
 13 16  1  0  0  0  0
 11 12  1  0  0  0  0
 11 13  1  0  0  0  0
 11 17  1  0  0  0  0
  9 10  1  0  0  0  0
  9 11  1  0  0  0  0
  9 24  1  0  0  0  0
  7  8  1  0  0  0  0
  7  9  1  0  0  0  0
 28 29  1  0  0  0  0
 28 30  1  0  0  0  0
 28 31  1  0  0  0  0
 26 27  1  0  0  0  0
 26 28  1  0  0  0  0
M  END
$$$$
default_name
  -OEChem-02102213163D

 31 30  0     1  0  0  0  0  0999 V2000
   -3.0760   -3.6390    1.5496 H   0  0  0  0  0  0  0  0  0  0  0  0
   -3.0940   -2.6290    1.1426 C   0  0  0  0  0  0  0  0  0  0  0  0
   -3.7160   -1.9930    1.7706 H   0  0  0  0  0  0  0  0  0  0  0  0
   -3.4880   -2.6500    0.1286 H   0  0  0  0  0  0  0  0  0  0  0  0
   -1.6860   -2.0850    1.1196 C   0  0  0  0  0  0  0  0  0  0  0  0
   -0.7540   -2.7700    1.5226 O   0  0  0  0  0  0  0  0  0  0  0  0
   -1.5320   -0.8490    0.6496 N   0  0  0  0  0  0  0  0  0  0  0  0
   -2.3500   -0.3360    0.3566 H   0  0  0  0  0  0  0  0  0  0  0  0
   -0.2470   -0.1410    0.5576 C   0  0  1  0  0  0  0  0  0  0  0  0
    0.4239   -0.7541   -0.0450 H   0  0  0  0  0  0  0  0  0  0  0  0
   -0.4317    1.2160   -0.1683 C   0  0  1  0  0  0  0  0  0  0  0  0
   -1.4765    1.2747   -0.4794 H   0  0  0  0  0  0  0  0  0  0  0  0
   -0.1482    2.4188    0.7516 C   0  0  0  0  0  0  0  0  0  0  0  0
    0.9065    2.4484    1.0309 H   0  0  0  0  0  0  0  0  0  0  0  0
   -0.4094    3.3490    0.2495 H   0  0  0  0  0  0  0  0  0  0  0  0
   -0.7503    2.3496    1.6583 H   0  0  0  0  0  0  0  0  0  0  0  0
    0.4337    1.2827   -1.4467 C   0  0  0  0  0  0  0  0  0  0  0  0
    0.7542    2.3099   -1.6259 H   0  0  0  0  0  0  0  0  0  0  0  0
    1.3218    0.6677   -1.3015 H   0  0  0  0  0  0  0  0  0  0  0  0
   -0.2803    0.7662   -2.7032 C   0  0  0  0  0  0  0  0  0  0  0  0
   -1.1200    1.4124   -2.9586 H   0  0  0  0  0  0  0  0  0  0  0  0
    0.4202    0.7618   -3.5385 H   0  0  0  0  0  0  0  0  0  0  0  0
   -0.6397   -0.2499   -2.5369 H   0  0  0  0  0  0  0  0  0  0  0  0
    0.3833   -0.0008    1.9525 C   0  0  0  0  0  0  0  0  0  0  0  0
    1.5803   -0.2304    2.1189 O   0  0  0  0  0  0  0  0  0  0  0  0
   -0.4170    0.3858    2.9541 N   0  0  0  0  0  0  0  0  0  0  0  0
   -1.3850    0.5669    2.7398 H   0  0  0  0  0  0  0  0  0  0  0  0
    0.0265    0.5600    4.3358 C   0  0  0  0  0  0  0  0  0  0  0  0
    0.8964    1.2200    4.3632 H   0  0  0  0  0  0  0  0  0  0  0  0
   -0.7726    0.9946    4.9382 H   0  0  0  0  0  0  0  0  0  0  0  0
    0.3119   -0.4069    4.7547 H   0  0  0  0  0  0  0  0  0  0  0  0
  5  6  2  0  0  0  0
  5  7  1  0  0  0  0
  2  3  1  0  0  0  0
  2  4  1  0  0  0  0
  2  5  1  0  0  0  0
  1  2  1  0  0  0  0
 24 25  2  0  0  0  0
 24 26  1  0  0  0  0
 20 21  1  0  0  0  0
 20 22  1  0  0  0  0
 20 23  1  0  0  0  0
 17 18  1  0  0  0  0
 17 19  1  0  0  0  0
 17 20  1  0  0  0  0
 13 14  1  0  0  0  0
 13 15  1  0  0  0  0
 13 16  1  0  0  0  0
 11 12  1  0  0  0  0
 11 13  1  0  0  0  0
 11 17  1  0  0  0  0
  9 10  1  0  0  0  0
  9 11  1  0  0  0  0
  9 24  1  0  0  0  0
  7  8  1  0  0  0  0
  7  9  1  0  0  0  0
 28 29  1  0  0  0  0
 28 30  1  0  0  0  0
 28 31  1  0  0  0  0
 26 27  1  0  0  0  0
 26 28  1  0  0  0  0
M  END
$$$$
default_name
  -OEChem-02102213163D

 31 30  0     1  0  0  0  0  0999 V2000
   -3.0760   -3.6390    1.5496 H   0  0  0  0  0  0  0  0  0  0  0  0
   -3.0940   -2.6290    1.1426 C   0  0  0  0  0  0  0  0  0  0  0  0
   -3.7160   -1.9930    1.7706 H   0  0  0  0  0  0  0  0  0  0  0  0
   -3.4880   -2.6500    0.1286 H   0  0  0  0  0  0  0  0  0  0  0  0
   -1.6860   -2.0850    1.1196 C   0  0  0  0  0  0  0  0  0  0  0  0
   -0.7540   -2.7700    1.5226 O   0  0  0  0  0  0  0  0  0  0  0  0
   -1.5320   -0.8490    0.6496 N   0  0  0  0  0  0  0  0  0  0  0  0
   -2.3500   -0.3360    0.3566 H   0  0  0  0  0  0  0  0  0  0  0  0
   -0.2470   -0.1410    0.5576 C   0  0  1  0  0  0  0  0  0  0  0  0
    0.4239   -0.7541   -0.0450 H   0  0  0  0  0  0  0  0  0  0  0  0
   -0.4317    1.2160   -0.1683 C   0  0  1  0  0  0  0  0  0  0  0  0
   -1.4765    1.2747   -0.4794 H   0  0  0  0  0  0  0  0  0  0  0  0
   -0.1482    2.4188    0.7516 C   0  0  0  0  0  0  0  0  0  0  0  0
    0.9065    2.4484    1.0309 H   0  0  0  0  0  0  0  0  0  0  0  0
   -0.4094    3.3490    0.2495 H   0  0  0  0  0  0  0  0  0  0  0  0
   -0.7503    2.3496    1.6583 H   0  0  0  0  0  0  0  0  0  0  0  0
    0.4337    1.2827   -1.4467 C   0  0  0  0  0  0  0  0  0  0  0  0
    0.9683    2.2327   -1.4850 H   0  0  0  0  0  0  0  0  0  0  0  0
    1.1681    0.4780   -1.4154 H   0  0  0  0  0  0  0  0  0  0  0  0
   -0.3688    1.1198   -2.7447 C   0  0  0  0  0  0  0  0  0  0  0  0
   -1.0488    1.9603   -2.8818 H   0  0  0  0  0  0  0  0  0  0  0  0
    0.3182    1.0882   -3.5905 H   0  0  0  0  0  0  0  0  0  0  0  0
   -0.9390    0.1906   -2.7165 H   0  0  0  0  0  0  0  0  0  0  0  0
    0.3833   -0.0008    1.9525 C   0  0  0  0  0  0  0  0  0  0  0  0
    1.5803   -0.2304    2.1189 O   0  0  0  0  0  0  0  0  0  0  0  0
   -0.4170    0.3858    2.9541 N   0  0  0  0  0  0  0  0  0  0  0  0
   -1.3850    0.5669    2.7398 H   0  0  0  0  0  0  0  0  0  0  0  0
    0.0265    0.5600    4.3358 C   0  0  0  0  0  0  0  0  0  0  0  0
    0.8964    1.2200    4.3632 H   0  0  0  0  0  0  0  0  0  0  0  0
   -0.7726    0.9946    4.9382 H   0  0  0  0  0  0  0  0  0  0  0  0
    0.3119   -0.4069    4.7547 H   0  0  0  0  0  0  0  0  0  0  0  0
  5  6  2  0  0  0  0
  5  7  1  0  0  0  0
  2  3  1  0  0  0  0
  2  4  1  0  0  0  0
  2  5  1  0  0  0  0
  1  2  1  0  0  0  0
 24 25  2  0  0  0  0
 24 26  1  0  0  0  0
 20 21  1  0  0  0  0
 20 22  1  0  0  0  0
 20 23  1  0  0  0  0
 17 18  1  0  0  0  0
 17 19  1  0  0  0  0
 17 20  1  0  0  0  0
 13 14  1  0  0  0  0
 13 15  1  0  0  0  0
 13 16  1  0  0  0  0
 11 12  1  0  0  0  0
 11 13  1  0  0  0  0
 11 17  1  0  0  0  0
  9 10  1  0  0  0  0
  9 11  1  0  0  0  0
  9 24  1  0  0  0  0
  7  8  1  0  0  0  0
  7  9  1  0  0  0  0
 28 29  1  0  0  0  0
 28 30  1  0  0  0  0
 28 31  1  0  0  0  0
 26 27  1  0  0  0  0
 26 28  1  0  0  0  0
M  END
$$$$
default_name
  -OEChem-02102213163D

 31 30  0     1  0  0  0  0  0999 V2000
   -3.0760   -3.6390    1.5496 H   0  0  0  0  0  0  0  0  0  0  0  0
   -3.0940   -2.6290    1.1426 C   0  0  0  0  0  0  0  0  0  0  0  0
   -3.7160   -1.9930    1.7706 H   0  0  0  0  0  0  0  0  0  0  0  0
   -3.4880   -2.6500    0.1286 H   0  0  0  0  0  0  0  0  0  0  0  0
   -1.6860   -2.0850    1.1196 C   0  0  0  0  0  0  0  0  0  0  0  0
   -0.7540   -2.7700    1.5226 O   0  0  0  0  0  0  0  0  0  0  0  0
   -1.5320   -0.8490    0.6496 N   0  0  0  0  0  0  0  0  0  0  0  0
   -2.3500   -0.3360    0.3566 H   0  0  0  0  0  0  0  0  0  0  0  0
   -0.2470   -0.1410    0.5576 C   0  0  1  0  0  0  0  0  0  0  0  0
    0.4239   -0.7541   -0.0450 H   0  0  0  0  0  0  0  0  0  0  0  0
   -0.4317    1.2160   -0.1683 C   0  0  1  0  0  0  0  0  0  0  0  0
   -1.4765    1.2747   -0.4794 H   0  0  0  0  0  0  0  0  0  0  0  0
   -0.1482    2.4188    0.7516 C   0  0  0  0  0  0  0  0  0  0  0  0
    0.9065    2.4484    1.0309 H   0  0  0  0  0  0  0  0  0  0  0  0
   -0.4094    3.3490    0.2495 H   0  0  0  0  0  0  0  0  0  0  0  0
   -0.7503    2.3496    1.6583 H   0  0  0  0  0  0  0  0  0  0  0  0
    0.4337    1.2827   -1.4467 C   0  0  0  0  0  0  0  0  0  0  0  0
    1.1602    2.0920   -1.3624 H   0  0  0  0  0  0  0  0  0  0  0  0
    0.9778    0.3441   -1.5512 H   0  0  0  0  0  0  0  0  0  0  0  0
   -0.3791    1.4862   -2.7325 C   0  0  0  0  0  0  0  0  0  0  0  0
   -0.8619    2.4633   -2.7290 H   0  0  0  0  0  0  0  0  0  0  0  0
    0.2890    1.4328   -3.5923 H   0  0  0  0  0  0  0  0  0  0  0  0
   -1.1358    0.7061   -2.8228 H   0  0  0  0  0  0  0  0  0  0  0  0
    0.3833   -0.0008    1.9525 C   0  0  0  0  0  0  0  0  0  0  0  0
    1.5803   -0.2304    2.1189 O   0  0  0  0  0  0  0  0  0  0  0  0
   -0.4170    0.3858    2.9541 N   0  0  0  0  0  0  0  0  0  0  0  0
   -1.3850    0.5669    2.7398 H   0  0  0  0  0  0  0  0  0  0  0  0
    0.0265    0.5600    4.3358 C   0  0  0  0  0  0  0  0  0  0  0  0
    0.8964    1.2200    4.3632 H   0  0  0  0  0  0  0  0  0  0  0  0
   -0.7726    0.9946    4.9382 H   0  0  0  0  0  0  0  0  0  0  0  0
    0.3119   -0.4069    4.7547 H   0  0  0  0  0  0  0  0  0  0  0  0
  5  6  2  0  0  0  0
  5  7  1  0  0  0  0
  2  3  1  0  0  0  0
  2  4  1  0  0  0  0
  2  5  1  0  0  0  0
  1  2  1  0  0  0  0
 24 25  2  0  0  0  0
 24 26  1  0  0  0  0
 20 21  1  0  0  0  0
 20 22  1  0  0  0  0
 20 23  1  0  0  0  0
 17 18  1  0  0  0  0
 17 19  1  0  0  0  0
 17 20  1  0  0  0  0
 13 14  1  0  0  0  0
 13 15  1  0  0  0  0
 13 16  1  0  0  0  0
 11 12  1  0  0  0  0
 11 13  1  0  0  0  0
 11 17  1  0  0  0  0
  9 10  1  0  0  0  0
  9 11  1  0  0  0  0
  9 24  1  0  0  0  0
  7  8  1  0  0  0  0
  7  9  1  0  0  0  0
 28 29  1  0  0  0  0
 28 30  1  0  0  0  0
 28 31  1  0  0  0  0
 26 27  1  0  0  0  0
 26 28  1  0  0  0  0
M  END
$$$$
default_name
  -OEChem-02102213163D

 31 30  0     1  0  0  0  0  0999 V2000
   -3.0760   -3.6390    1.5496 H   0  0  0  0  0  0  0  0  0  0  0  0
   -3.0940   -2.6290    1.1426 C   0  0  0  0  0  0  0  0  0  0  0  0
   -3.7160   -1.9930    1.7706 H   0  0  0  0  0  0  0  0  0  0  0  0
   -3.4880   -2.6500    0.1286 H   0  0  0  0  0  0  0  0  0  0  0  0
   -1.6860   -2.0850    1.1196 C   0  0  0  0  0  0  0  0  0  0  0  0
   -0.7540   -2.7700    1.5226 O   0  0  0  0  0  0  0  0  0  0  0  0
   -1.5320   -0.8490    0.6496 N   0  0  0  0  0  0  0  0  0  0  0  0
   -2.3500   -0.3360    0.3566 H   0  0  0  0  0  0  0  0  0  0  0  0
   -0.2470   -0.1410    0.5576 C   0  0  1  0  0  0  0  0  0  0  0  0
    0.4239   -0.7541   -0.0450 H   0  0  0  0  0  0  0  0  0  0  0  0
   -0.4317    1.2160   -0.1683 C   0  0  1  0  0  0  0  0  0  0  0  0
   -1.4765    1.2747   -0.4794 H   0  0  0  0  0  0  0  0  0  0  0  0
   -0.1482    2.4188    0.7516 C   0  0  0  0  0  0  0  0  0  0  0  0
    0.9065    2.4484    1.0309 H   0  0  0  0  0  0  0  0  0  0  0  0
   -0.4094    3.3490    0.2495 H   0  0  0  0  0  0  0  0  0  0  0  0
   -0.7503    2.3496    1.6583 H   0  0  0  0  0  0  0  0  0  0  0  0
    0.4337    1.2827   -1.4467 C   0  0  0  0  0  0  0  0  0  0  0  0
    1.3168    1.8972   -1.2666 H   0  0  0  0  0  0  0  0  0  0  0  0
    0.7638    0.2752   -1.6997 H   0  0  0  0  0  0  0  0  0  0  0  0
   -0.3105    1.8406   -2.6675 C   0  0  0  0  0  0  0  0  0  0  0  0
   -0.5719    2.8869   -2.5105 H   0  0  0  0  0  0  0  0  0  0  0  0
    0.3345    1.7722   -3.5438 H   0  0  0  0  0  0  0  0  0  0  0  0
   -1.2167    1.2617   -2.8486 H   0  0  0  0  0  0  0  0  0  0  0  0
    0.3833   -0.0008    1.9525 C   0  0  0  0  0  0  0  0  0  0  0  0
    1.5803   -0.2304    2.1189 O   0  0  0  0  0  0  0  0  0  0  0  0
   -0.4170    0.3858    2.9541 N   0  0  0  0  0  0  0  0  0  0  0  0
   -1.3850    0.5669    2.7398 H   0  0  0  0  0  0  0  0  0  0  0  0
    0.0265    0.5600    4.3358 C   0  0  0  0  0  0  0  0  0  0  0  0
    0.8964    1.2200    4.3632 H   0  0  0  0  0  0  0  0  0  0  0  0
   -0.7726    0.9946    4.9382 H   0  0  0  0  0  0  0  0  0  0  0  0
    0.3119   -0.4069    4.7547 H   0  0  0  0  0  0  0  0  0  0  0  0
  5  6  2  0  0  0  0
  5  7  1  0  0  0  0
  2  3  1  0  0  0  0
  2  4  1  0  0  0  0
  2  5  1  0  0  0  0
  1  2  1  0  0  0  0
 24 25  2  0  0  0  0
 24 26  1  0  0  0  0
 20 21  1  0  0  0  0
 20 22  1  0  0  0  0
 20 23  1  0  0  0  0
 17 18  1  0  0  0  0
 17 19  1  0  0  0  0
 17 20  1  0  0  0  0
 13 14  1  0  0  0  0
 13 15  1  0  0  0  0
 13 16  1  0  0  0  0
 11 12  1  0  0  0  0
 11 13  1  0  0  0  0
 11 17  1  0  0  0  0
  9 10  1  0  0  0  0
  9 11  1  0  0  0  0
  9 24  1  0  0  0  0
  7  8  1  0  0  0  0
  7  9  1  0  0  0  0
 28 29  1  0  0  0  0
 28 30  1  0  0  0  0
 28 31  1  0  0  0  0
 26 27  1  0  0  0  0
 26 28  1  0  0  0  0
M  END
$$$$
default_name
  -OEChem-02102213163D

 31 30  0     1  0  0  0  0  0999 V2000
   -3.0760   -3.6390    1.5496 H   0  0  0  0  0  0  0  0  0  0  0  0
   -3.0940   -2.6290    1.1426 C   0  0  0  0  0  0  0  0  0  0  0  0
   -3.7160   -1.9930    1.7706 H   0  0  0  0  0  0  0  0  0  0  0  0
   -3.4880   -2.6500    0.1286 H   0  0  0  0  0  0  0  0  0  0  0  0
   -1.6860   -2.0850    1.1196 C   0  0  0  0  0  0  0  0  0  0  0  0
   -0.7540   -2.7700    1.5226 O   0  0  0  0  0  0  0  0  0  0  0  0
   -1.5320   -0.8490    0.6496 N   0  0  0  0  0  0  0  0  0  0  0  0
   -2.3500   -0.3360    0.3566 H   0  0  0  0  0  0  0  0  0  0  0  0
   -0.2470   -0.1410    0.5576 C   0  0  1  0  0  0  0  0  0  0  0  0
    0.4239   -0.7541   -0.0450 H   0  0  0  0  0  0  0  0  0  0  0  0
   -0.4317    1.2160   -0.1683 C   0  0  1  0  0  0  0  0  0  0  0  0
   -1.4765    1.2747   -0.4794 H   0  0  0  0  0  0  0  0  0  0  0  0
   -0.1482    2.4188    0.7516 C   0  0  0  0  0  0  0  0  0  0  0  0
    0.9065    2.4484    1.0309 H   0  0  0  0  0  0  0  0  0  0  0  0
   -0.4094    3.3490    0.2495 H   0  0  0  0  0  0  0  0  0  0  0  0
   -0.7503    2.3496    1.6583 H   0  0  0  0  0  0  0  0  0  0  0  0
    0.4337    1.2827   -1.4467 C   0  0  0  0  0  0  0  0  0  0  0  0
    1.4274    1.6616   -1.2041 H   0  0  0  0  0  0  0  0  0  0  0  0
    0.5407    0.2761   -1.8507 H   0  0  0  0  0  0  0  0  0  0  0  0
   -0.1675    2.1588   -2.5541 C   0  0  0  0  0  0  0  0  0  0  0  0
   -0.1987    3.2024   -2.2414 H   0  0  0  0  0  0  0  0  0  0  0  0
    0.4517    2.0832   -3.4482 H   0  0  0  0  0  0  0  0  0  0  0  0
   -1.1762    1.8193   -2.7920 H   0  0  0  0  0  0  0  0  0  0  0  0
    0.3833   -0.0008    1.9525 C   0  0  0  0  0  0  0  0  0  0  0  0
    1.5803   -0.2304    2.1189 O   0  0  0  0  0  0  0  0  0  0  0  0
   -0.4170    0.3858    2.9541 N   0  0  0  0  0  0  0  0  0  0  0  0
   -1.3850    0.5669    2.7398 H   0  0  0  0  0  0  0  0  0  0  0  0
    0.0265    0.5600    4.3358 C   0  0  0  0  0  0  0  0  0  0  0  0
    0.8964    1.2200    4.3632 H   0  0  0  0  0  0  0  0  0  0  0  0
   -0.7726    0.9946    4.9382 H   0  0  0  0  0  0  0  0  0  0  0  0
    0.3119   -0.4069    4.7547 H   0  0  0  0  0  0  0  0  0  0  0  0
  5  6  2  0  0  0  0
  5  7  1  0  0  0  0
  2  3  1  0  0  0  0
  2  4  1  0  0  0  0
  2  5  1  0  0  0  0
  1  2  1  0  0  0  0
 24 25  2  0  0  0  0
 24 26  1  0  0  0  0
 20 21  1  0  0  0  0
 20 22  1  0  0  0  0
 20 23  1  0  0  0  0
 17 18  1  0  0  0  0
 17 19  1  0  0  0  0
 17 20  1  0  0  0  0
 13 14  1  0  0  0  0
 13 15  1  0  0  0  0
 13 16  1  0  0  0  0
 11 12  1  0  0  0  0
 11 13  1  0  0  0  0
 11 17  1  0  0  0  0
  9 10  1  0  0  0  0
  9 11  1  0  0  0  0
  9 24  1  0  0  0  0
  7  8  1  0  0  0  0
  7  9  1  0  0  0  0
 28 29  1  0  0  0  0
 28 30  1  0  0  0  0
 28 31  1  0  0  0  0
 26 27  1  0  0  0  0
 26 28  1  0  0  0  0
M  END
$$$$
default_name
  -OEChem-02102213163D

 31 30  0     1  0  0  0  0  0999 V2000
   -3.0760   -3.6390    1.5496 H   0  0  0  0  0  0  0  0  0  0  0  0
   -3.0940   -2.6290    1.1426 C   0  0  0  0  0  0  0  0  0  0  0  0
   -3.7160   -1.9930    1.7706 H   0  0  0  0  0  0  0  0  0  0  0  0
   -3.4880   -2.6500    0.1286 H   0  0  0  0  0  0  0  0  0  0  0  0
   -1.6860   -2.0850    1.1196 C   0  0  0  0  0  0  0  0  0  0  0  0
   -0.7540   -2.7700    1.5226 O   0  0  0  0  0  0  0  0  0  0  0  0
   -1.5320   -0.8490    0.6496 N   0  0  0  0  0  0  0  0  0  0  0  0
   -2.3500   -0.3360    0.3566 H   0  0  0  0  0  0  0  0  0  0  0  0
   -0.2470   -0.1410    0.5576 C   0  0  1  0  0  0  0  0  0  0  0  0
    0.4239   -0.7541   -0.0450 H   0  0  0  0  0  0  0  0  0  0  0  0
   -0.4317    1.2160   -0.1683 C   0  0  1  0  0  0  0  0  0  0  0  0
   -1.4765    1.2747   -0.4794 H   0  0  0  0  0  0  0  0  0  0  0  0
   -0.1482    2.4188    0.7516 C   0  0  0  0  0  0  0  0  0  0  0  0
    0.9065    2.4484    1.0309 H   0  0  0  0  0  0  0  0  0  0  0  0
   -0.4094    3.3490    0.2495 H   0  0  0  0  0  0  0  0  0  0  0  0
   -0.7503    2.3496    1.6583 H   0  0  0  0  0  0  0  0  0  0  0  0
    0.4337    1.2827   -1.4467 C   0  0  0  0  0  0  0  0  0  0  0  0
    1.4845    1.4013   -1.1790 H   0  0  0  0  0  0  0  0  0  0  0  0
    0.3236    0.3465   -1.9939 H   0  0  0  0  0  0  0  0  0  0  0  0
    0.0400    2.4191   -2.4001 C   0  0  0  0  0  0  0  0  0  0  0  0
    0.2324    3.3881   -1.9399 H   0  0  0  0  0  0  0  0  0  0  0  0
    0.6325    2.3447   -3.3122 H   0  0  0  0  0  0  0  0  0  0  0  0
   -1.0170    2.3411   -2.6570 H   0  0  0  0  0  0  0  0  0  0  0  0
    0.3833   -0.0008    1.9525 C   0  0  0  0  0  0  0  0  0  0  0  0
    1.5803   -0.2304    2.1189 O   0  0  0  0  0  0  0  0  0  0  0  0
   -0.4170    0.3858    2.9541 N   0  0  0  0  0  0  0  0  0  0  0  0
   -1.3850    0.5669    2.7398 H   0  0  0  0  0  0  0  0  0  0  0  0
    0.0265    0.5600    4.3358 C   0  0  0  0  0  0  0  0  0  0  0  0
    0.8964    1.2200    4.3632 H   0  0  0  0  0  0  0  0  0  0  0  0
   -0.7726    0.9946    4.9382 H   0  0  0  0  0  0  0  0  0  0  0  0
    0.3119   -0.4069    4.7547 H   0  0  0  0  0  0  0  0  0  0  0  0
  5  6  2  0  0  0  0
  5  7  1  0  0  0  0
  2  3  1  0  0  0  0
  2  4  1  0  0  0  0
  2  5  1  0  0  0  0
  1  2  1  0  0  0  0
 24 25  2  0  0  0  0
 24 26  1  0  0  0  0
 20 21  1  0  0  0  0
 20 22  1  0  0  0  0
 20 23  1  0  0  0  0
 17 18  1  0  0  0  0
 17 19  1  0  0  0  0
 17 20  1  0  0  0  0
 13 14  1  0  0  0  0
 13 15  1  0  0  0  0
 13 16  1  0  0  0  0
 11 12  1  0  0  0  0
 11 13  1  0  0  0  0
 11 17  1  0  0  0  0
  9 10  1  0  0  0  0
  9 11  1  0  0  0  0
  9 24  1  0  0  0  0
  7  8  1  0  0  0  0
  7  9  1  0  0  0  0
 28 29  1  0  0  0  0
 28 30  1  0  0  0  0
 28 31  1  0  0  0  0
 26 27  1  0  0  0  0
 26 28  1  0  0  0  0
M  END
$$$$
default_name
  -OEChem-02102213163D

 31 30  0     1  0  0  0  0  0999 V2000
   -3.0760   -3.6390    1.5496 H   0  0  0  0  0  0  0  0  0  0  0  0
   -3.0940   -2.6290    1.1426 C   0  0  0  0  0  0  0  0  0  0  0  0
   -3.7160   -1.9930    1.7706 H   0  0  0  0  0  0  0  0  0  0  0  0
   -3.4880   -2.6500    0.1286 H   0  0  0  0  0  0  0  0  0  0  0  0
   -1.6860   -2.0850    1.1196 C   0  0  0  0  0  0  0  0  0  0  0  0
   -0.7540   -2.7700    1.5226 O   0  0  0  0  0  0  0  0  0  0  0  0
   -1.5320   -0.8490    0.6496 N   0  0  0  0  0  0  0  0  0  0  0  0
   -2.3500   -0.3360    0.3566 H   0  0  0  0  0  0  0  0  0  0  0  0
   -0.2470   -0.1410    0.5576 C   0  0  1  0  0  0  0  0  0  0  0  0
    0.4239   -0.7541   -0.0450 H   0  0  0  0  0  0  0  0  0  0  0  0
   -0.4317    1.2160   -0.1683 C   0  0  1  0  0  0  0  0  0  0  0  0
   -1.5056    1.3994   -0.2390 H   0  0  0  0  0  0  0  0  0  0  0  0
    0.1940    2.3894    0.6096 C   0  0  0  0  0  0  0  0  0  0  0  0
    1.2806    2.2919    0.6431 H   0  0  0  0  0  0  0  0  0  0  0  0
   -0.0637    3.3363    0.1378 H   0  0  0  0  0  0  0  0  0  0  0  0
   -0.1888    2.4112    1.6305 H   0  0  0  0  0  0  0  0  0  0  0  0
    0.1204    1.1527   -1.6101 C   0  0  0  0  0  0  0  0  0  0  0  0
    1.1760    0.8783   -1.5927 H   0  0  0  0  0  0  0  0  0  0  0  0
   -0.4235    0.3850   -2.1605 H   0  0  0  0  0  0  0  0  0  0  0  0
   -0.0312    2.4672   -2.3875 C   0  0  0  0  0  0  0  0  0  0  0  0
    0.5817    3.2491   -1.9395 H   0  0  0  0  0  0  0  0  0  0  0  0
    0.2968    2.3163   -3.4162 H   0  0  0  0  0  0  0  0  0  0  0  0
   -1.0759    2.7801   -2.3911 H   0  0  0  0  0  0  0  0  0  0  0  0
    0.3833   -0.0008    1.9525 C   0  0  0  0  0  0  0  0  0  0  0  0
    1.5803   -0.2304    2.1189 O   0  0  0  0  0  0  0  0  0  0  0  0
   -0.4170    0.3858    2.9541 N   0  0  0  0  0  0  0  0  0  0  0  0
   -1.3850    0.5669    2.7398 H   0  0  0  0  0  0  0  0  0  0  0  0
    0.0265    0.5600    4.3358 C   0  0  0  0  0  0  0  0  0  0  0  0
    0.8964    1.2200    4.3632 H   0  0  0  0  0  0  0  0  0  0  0  0
   -0.7726    0.9946    4.9382 H   0  0  0  0  0  0  0  0  0  0  0  0
    0.3119   -0.4069    4.7547 H   0  0  0  0  0  0  0  0  0  0  0  0
  5  6  2  0  0  0  0
  5  7  1  0  0  0  0
  2  3  1  0  0  0  0
  2  4  1  0  0  0  0
  2  5  1  0  0  0  0
  1  2  1  0  0  0  0
 24 25  2  0  0  0  0
 24 26  1  0  0  0  0
 20 21  1  0  0  0  0
 20 22  1  0  0  0  0
 20 23  1  0  0  0  0
 17 18  1  0  0  0  0
 17 19  1  0  0  0  0
 17 20  1  0  0  0  0
 13 14  1  0  0  0  0
 13 15  1  0  0  0  0
 13 16  1  0  0  0  0
 11 12  1  0  0  0  0
 11 13  1  0  0  0  0
 11 17  1  0  0  0  0
  9 10  1  0  0  0  0
  9 11  1  0  0  0  0
  9 24  1  0  0  0  0
  7  8  1  0  0  0  0
  7  9  1  0  0  0  0
 28 29  1  0  0  0  0
 28 30  1  0  0  0  0
 28 31  1  0  0  0  0
 26 27  1  0  0  0  0
 26 28  1  0  0  0  0
M  END
$$$$
default_name
  -OEChem-02102213163D

 31 30  0     1  0  0  0  0  0999 V2000
   -3.0760   -3.6390    1.5496 H   0  0  0  0  0  0  0  0  0  0  0  0
   -3.0940   -2.6290    1.1426 C   0  0  0  0  0  0  0  0  0  0  0  0
   -3.7160   -1.9930    1.7706 H   0  0  0  0  0  0  0  0  0  0  0  0
   -3.4880   -2.6500    0.1286 H   0  0  0  0  0  0  0  0  0  0  0  0
   -1.6860   -2.0850    1.1196 C   0  0  0  0  0  0  0  0  0  0  0  0
   -0.7540   -2.7700    1.5226 O   0  0  0  0  0  0  0  0  0  0  0  0
   -1.5320   -0.8490    0.6496 N   0  0  0  0  0  0  0  0  0  0  0  0
   -2.3500   -0.3360    0.3566 H   0  0  0  0  0  0  0  0  0  0  0  0
   -0.2470   -0.1410    0.5576 C   0  0  1  0  0  0  0  0  0  0  0  0
    0.4239   -0.7541   -0.0450 H   0  0  0  0  0  0  0  0  0  0  0  0
   -0.4317    1.2160   -0.1683 C   0  0  1  0  0  0  0  0  0  0  0  0
   -1.5056    1.3994   -0.2390 H   0  0  0  0  0  0  0  0  0  0  0  0
    0.1940    2.3894    0.6096 C   0  0  0  0  0  0  0  0  0  0  0  0
    1.2806    2.2919    0.6431 H   0  0  0  0  0  0  0  0  0  0  0  0
   -0.0637    3.3363    0.1378 H   0  0  0  0  0  0  0  0  0  0  0  0
   -0.1888    2.4112    1.6305 H   0  0  0  0  0  0  0  0  0  0  0  0
    0.1204    1.1527   -1.6101 C   0  0  0  0  0  0  0  0  0  0  0  0
    1.0781    0.6306   -1.6193 H   0  0  0  0  0  0  0  0  0  0  0  0
   -0.5803    0.5929   -2.2296 H   0  0  0  0  0  0  0  0  0  0  0  0
    0.3072    2.5300   -2.2607 C   0  0  0  0  0  0  0  0  0  0  0  0
    1.0805    3.0962   -1.7418 H   0  0  0  0  0  0  0  0  0  0  0  0
    0.6116    2.3987   -3.2993 H   0  0  0  0  0  0  0  0  0  0  0  0
   -0.6310    3.0855   -2.2341 H   0  0  0  0  0  0  0  0  0  0  0  0
    0.3833   -0.0008    1.9525 C   0  0  0  0  0  0  0  0  0  0  0  0
    1.5803   -0.2304    2.1189 O   0  0  0  0  0  0  0  0  0  0  0  0
   -0.4170    0.3858    2.9541 N   0  0  0  0  0  0  0  0  0  0  0  0
   -1.3850    0.5669    2.7398 H   0  0  0  0  0  0  0  0  0  0  0  0
    0.0265    0.5600    4.3358 C   0  0  0  0  0  0  0  0  0  0  0  0
    0.8964    1.2200    4.3632 H   0  0  0  0  0  0  0  0  0  0  0  0
   -0.7726    0.9946    4.9382 H   0  0  0  0  0  0  0  0  0  0  0  0
    0.3119   -0.4069    4.7547 H   0  0  0  0  0  0  0  0  0  0  0  0
  5  6  2  0  0  0  0
  5  7  1  0  0  0  0
  2  3  1  0  0  0  0
  2  4  1  0  0  0  0
  2  5  1  0  0  0  0
  1  2  1  0  0  0  0
 24 25  2  0  0  0  0
 24 26  1  0  0  0  0
 20 21  1  0  0  0  0
 20 22  1  0  0  0  0
 20 23  1  0  0  0  0
 17 18  1  0  0  0  0
 17 19  1  0  0  0  0
 17 20  1  0  0  0  0
 13 14  1  0  0  0  0
 13 15  1  0  0  0  0
 13 16  1  0  0  0  0
 11 12  1  0  0  0  0
 11 13  1  0  0  0  0
 11 17  1  0  0  0  0
  9 10  1  0  0  0  0
  9 11  1  0  0  0  0
  9 24  1  0  0  0  0
  7  8  1  0  0  0  0
  7  9  1  0  0  0  0
 28 29  1  0  0  0  0
 28 30  1  0  0  0  0
 28 31  1  0  0  0  0
 26 27  1  0  0  0  0
 26 28  1  0  0  0  0
M  END
$$$$
default_name
  -OEChem-02102213163D

 31 30  0     1  0  0  0  0  0999 V2000
   -3.0760   -3.6390    1.5496 H   0  0  0  0  0  0  0  0  0  0  0  0
   -3.0940   -2.6290    1.1426 C   0  0  0  0  0  0  0  0  0  0  0  0
   -3.7160   -1.9930    1.7706 H   0  0  0  0  0  0  0  0  0  0  0  0
   -3.4880   -2.6500    0.1286 H   0  0  0  0  0  0  0  0  0  0  0  0
   -1.6860   -2.0850    1.1196 C   0  0  0  0  0  0  0  0  0  0  0  0
   -0.7540   -2.7700    1.5226 O   0  0  0  0  0  0  0  0  0  0  0  0
   -1.5320   -0.8490    0.6496 N   0  0  0  0  0  0  0  0  0  0  0  0
   -2.3500   -0.3360    0.3566 H   0  0  0  0  0  0  0  0  0  0  0  0
   -0.2470   -0.1410    0.5576 C   0  0  1  0  0  0  0  0  0  0  0  0
    0.4239   -0.7541   -0.0450 H   0  0  0  0  0  0  0  0  0  0  0  0
   -0.4317    1.2160   -0.1683 C   0  0  1  0  0  0  0  0  0  0  0  0
   -1.5056    1.3994   -0.2390 H   0  0  0  0  0  0  0  0  0  0  0  0
    0.1940    2.3894    0.6096 C   0  0  0  0  0  0  0  0  0  0  0  0
    1.2806    2.2919    0.6431 H   0  0  0  0  0  0  0  0  0  0  0  0
   -0.0637    3.3363    0.1378 H   0  0  0  0  0  0  0  0  0  0  0  0
   -0.1888    2.4112    1.6305 H   0  0  0  0  0  0  0  0  0  0  0  0
    0.1204    1.1527   -1.6101 C   0  0  0  0  0  0  0  0  0  0  0  0
    0.9240    0.4174   -1.6690 H   0  0  0  0  0  0  0  0  0  0  0  0
   -0.6808    0.8380   -2.2788 H   0  0  0  0  0  0  0  0  0  0  0  0
    0.6479    2.4973   -2.1288 C   0  0  0  0  0  0  0  0  0  0  0  0
    1.5232    2.8097   -1.5597 H   0  0  0  0  0  0  0  0  0  0  0  0
    0.9345    2.3915   -3.1753 H   0  0  0  0  0  0  0  0  0  0  0  0
   -0.1291    3.2584   -2.0495 H   0  0  0  0  0  0  0  0  0  0  0  0
    0.3833   -0.0008    1.9525 C   0  0  0  0  0  0  0  0  0  0  0  0
    1.5803   -0.2304    2.1189 O   0  0  0  0  0  0  0  0  0  0  0  0
   -0.4170    0.3858    2.9541 N   0  0  0  0  0  0  0  0  0  0  0  0
   -1.3850    0.5669    2.7398 H   0  0  0  0  0  0  0  0  0  0  0  0
    0.0265    0.5600    4.3358 C   0  0  0  0  0  0  0  0  0  0  0  0
    0.8964    1.2200    4.3632 H   0  0  0  0  0  0  0  0  0  0  0  0
   -0.7726    0.9946    4.9382 H   0  0  0  0  0  0  0  0  0  0  0  0
    0.3119   -0.4069    4.7547 H   0  0  0  0  0  0  0  0  0  0  0  0
  5  6  2  0  0  0  0
  5  7  1  0  0  0  0
  2  3  1  0  0  0  0
  2  4  1  0  0  0  0
  2  5  1  0  0  0  0
  1  2  1  0  0  0  0
 24 25  2  0  0  0  0
 24 26  1  0  0  0  0
 20 21  1  0  0  0  0
 20 22  1  0  0  0  0
 20 23  1  0  0  0  0
 17 18  1  0  0  0  0
 17 19  1  0  0  0  0
 17 20  1  0  0  0  0
 13 14  1  0  0  0  0
 13 15  1  0  0  0  0
 13 16  1  0  0  0  0
 11 12  1  0  0  0  0
 11 13  1  0  0  0  0
 11 17  1  0  0  0  0
  9 10  1  0  0  0  0
  9 11  1  0  0  0  0
  9 24  1  0  0  0  0
  7  8  1  0  0  0  0
  7  9  1  0  0  0  0
 28 29  1  0  0  0  0
 28 30  1  0  0  0  0
 28 31  1  0  0  0  0
 26 27  1  0  0  0  0
 26 28  1  0  0  0  0
M  END
$$$$
default_name
  -OEChem-02102213163D

 31 30  0     1  0  0  0  0  0999 V2000
   -3.0760   -3.6390    1.5496 H   0  0  0  0  0  0  0  0  0  0  0  0
   -3.0940   -2.6290    1.1426 C   0  0  0  0  0  0  0  0  0  0  0  0
   -3.7160   -1.9930    1.7706 H   0  0  0  0  0  0  0  0  0  0  0  0
   -3.4880   -2.6500    0.1286 H   0  0  0  0  0  0  0  0  0  0  0  0
   -1.6860   -2.0850    1.1196 C   0  0  0  0  0  0  0  0  0  0  0  0
   -0.7540   -2.7700    1.5226 O   0  0  0  0  0  0  0  0  0  0  0  0
   -1.5320   -0.8490    0.6496 N   0  0  0  0  0  0  0  0  0  0  0  0
   -2.3500   -0.3360    0.3566 H   0  0  0  0  0  0  0  0  0  0  0  0
   -0.2470   -0.1410    0.5576 C   0  0  1  0  0  0  0  0  0  0  0  0
    0.4239   -0.7541   -0.0450 H   0  0  0  0  0  0  0  0  0  0  0  0
   -0.4317    1.2160   -0.1683 C   0  0  1  0  0  0  0  0  0  0  0  0
   -1.5056    1.3994   -0.2390 H   0  0  0  0  0  0  0  0  0  0  0  0
    0.1940    2.3894    0.6096 C   0  0  0  0  0  0  0  0  0  0  0  0
    1.2806    2.2919    0.6431 H   0  0  0  0  0  0  0  0  0  0  0  0
   -0.0637    3.3363    0.1378 H   0  0  0  0  0  0  0  0  0  0  0  0
   -0.1888    2.4112    1.6305 H   0  0  0  0  0  0  0  0  0  0  0  0
    0.1204    1.1527   -1.6101 C   0  0  0  0  0  0  0  0  0  0  0  0
    0.7242    0.2533   -1.7383 H   0  0  0  0  0  0  0  0  0  0  0  0
   -0.7181    1.1035   -2.3048 H   0  0  0  0  0  0  0  0  0  0  0  0
    0.9676    2.3712   -2.0008 C   0  0  0  0  0  0  0  0  0  0  0  0
    1.8798    2.4093   -1.4056 H   0  0  0  0  0  0  0  0  0  0  0  0
    1.2432    2.2950   -3.0529 H   0  0  0  0  0  0  0  0  0  0  0  0
    0.3955    3.2872   -1.8499 H   0  0  0  0  0  0  0  0  0  0  0  0
    0.3833   -0.0008    1.9525 C   0  0  0  0  0  0  0  0  0  0  0  0
    1.5803   -0.2304    2.1189 O   0  0  0  0  0  0  0  0  0  0  0  0
   -0.4170    0.3858    2.9541 N   0  0  0  0  0  0  0  0  0  0  0  0
   -1.3850    0.5669    2.7398 H   0  0  0  0  0  0  0  0  0  0  0  0
    0.0265    0.5600    4.3358 C   0  0  0  0  0  0  0  0  0  0  0  0
    0.8964    1.2200    4.3632 H   0  0  0  0  0  0  0  0  0  0  0  0
   -0.7726    0.9946    4.9382 H   0  0  0  0  0  0  0  0  0  0  0  0
    0.3119   -0.4069    4.7547 H   0  0  0  0  0  0  0  0  0  0  0  0
  5  6  2  0  0  0  0
  5  7  1  0  0  0  0
  2  3  1  0  0  0  0
  2  4  1  0  0  0  0
  2  5  1  0  0  0  0
  1  2  1  0  0  0  0
 24 25  2  0  0  0  0
 24 26  1  0  0  0  0
 20 21  1  0  0  0  0
 20 22  1  0  0  0  0
 20 23  1  0  0  0  0
 17 18  1  0  0  0  0
 17 19  1  0  0  0  0
 17 20  1  0  0  0  0
 13 14  1  0  0  0  0
 13 15  1  0  0  0  0
 13 16  1  0  0  0  0
 11 12  1  0  0  0  0
 11 13  1  0  0  0  0
 11 17  1  0  0  0  0
  9 10  1  0  0  0  0
  9 11  1  0  0  0  0
  9 24  1  0  0  0  0
  7  8  1  0  0  0  0
  7  9  1  0  0  0  0
 28 29  1  0  0  0  0
 28 30  1  0  0  0  0
 28 31  1  0  0  0  0
 26 27  1  0  0  0  0
 26 28  1  0  0  0  0
M  END
$$$$
default_name
  -OEChem-02102213163D

 31 30  0     1  0  0  0  0  0999 V2000
   -3.0760   -3.6390    1.5496 H   0  0  0  0  0  0  0  0  0  0  0  0
   -3.0940   -2.6290    1.1426 C   0  0  0  0  0  0  0  0  0  0  0  0
   -3.7160   -1.9930    1.7706 H   0  0  0  0  0  0  0  0  0  0  0  0
   -3.4880   -2.6500    0.1286 H   0  0  0  0  0  0  0  0  0  0  0  0
   -1.6860   -2.0850    1.1196 C   0  0  0  0  0  0  0  0  0  0  0  0
   -0.7540   -2.7700    1.5226 O   0  0  0  0  0  0  0  0  0  0  0  0
   -1.5320   -0.8490    0.6496 N   0  0  0  0  0  0  0  0  0  0  0  0
   -2.3500   -0.3360    0.3566 H   0  0  0  0  0  0  0  0  0  0  0  0
   -0.2470   -0.1410    0.5576 C   0  0  1  0  0  0  0  0  0  0  0  0
    0.4239   -0.7541   -0.0450 H   0  0  0  0  0  0  0  0  0  0  0  0
   -0.4317    1.2160   -0.1683 C   0  0  1  0  0  0  0  0  0  0  0  0
   -1.5056    1.3994   -0.2390 H   0  0  0  0  0  0  0  0  0  0  0  0
    0.1940    2.3894    0.6096 C   0  0  0  0  0  0  0  0  0  0  0  0
    1.2806    2.2919    0.6431 H   0  0  0  0  0  0  0  0  0  0  0  0
   -0.0637    3.3363    0.1378 H   0  0  0  0  0  0  0  0  0  0  0  0
   -0.1888    2.4112    1.6305 H   0  0  0  0  0  0  0  0  0  0  0  0
    0.1204    1.1527   -1.6101 C   0  0  0  0  0  0  0  0  0  0  0  0
    0.4923    0.1494   -1.8225 H   0  0  0  0  0  0  0  0  0  0  0  0
   -0.6898    1.3714   -2.3057 H   0  0  0  0  0  0  0  0  0  0  0  0
    1.2447    2.1603   -1.8855 C   0  0  0  0  0  0  0  0  0  0  0  0
    2.1258    1.9221   -1.2900 H   0  0  0  0  0  0  0  0  0  0  0  0
    1.5168    2.1160   -2.9403 H   0  0  0  0  0  0  0  0  0  0  0  0
    0.9070    3.1699   -1.6489 H   0  0  0  0  0  0  0  0  0  0  0  0
    0.3833   -0.0008    1.9525 C   0  0  0  0  0  0  0  0  0  0  0  0
    1.5803   -0.2304    2.1189 O   0  0  0  0  0  0  0  0  0  0  0  0
   -0.4170    0.3858    2.9541 N   0  0  0  0  0  0  0  0  0  0  0  0
   -1.3850    0.5669    2.7398 H   0  0  0  0  0  0  0  0  0  0  0  0
    0.0265    0.5600    4.3358 C   0  0  0  0  0  0  0  0  0  0  0  0
    0.8964    1.2200    4.3632 H   0  0  0  0  0  0  0  0  0  0  0  0
   -0.7726    0.9946    4.9382 H   0  0  0  0  0  0  0  0  0  0  0  0
    0.3119   -0.4069    4.7547 H   0  0  0  0  0  0  0  0  0  0  0  0
  5  6  2  0  0  0  0
  5  7  1  0  0  0  0
  2  3  1  0  0  0  0
  2  4  1  0  0  0  0
  2  5  1  0  0  0  0
  1  2  1  0  0  0  0
 24 25  2  0  0  0  0
 24 26  1  0  0  0  0
 20 21  1  0  0  0  0
 20 22  1  0  0  0  0
 20 23  1  0  0  0  0
 17 18  1  0  0  0  0
 17 19  1  0  0  0  0
 17 20  1  0  0  0  0
 13 14  1  0  0  0  0
 13 15  1  0  0  0  0
 13 16  1  0  0  0  0
 11 12  1  0  0  0  0
 11 13  1  0  0  0  0
 11 17  1  0  0  0  0
  9 10  1  0  0  0  0
  9 11  1  0  0  0  0
  9 24  1  0  0  0  0
  7  8  1  0  0  0  0
  7  9  1  0  0  0  0
 28 29  1  0  0  0  0
 28 30  1  0  0  0  0
 28 31  1  0  0  0  0
 26 27  1  0  0  0  0
 26 28  1  0  0  0  0
M  END
$$$$
default_name
  -OEChem-02102213163D

 31 30  0     1  0  0  0  0  0999 V2000
   -3.0760   -3.6390    1.5496 H   0  0  0  0  0  0  0  0  0  0  0  0
   -3.0940   -2.6290    1.1426 C   0  0  0  0  0  0  0  0  0  0  0  0
   -3.7160   -1.9930    1.7706 H   0  0  0  0  0  0  0  0  0  0  0  0
   -3.4880   -2.6500    0.1286 H   0  0  0  0  0  0  0  0  0  0  0  0
   -1.6860   -2.0850    1.1196 C   0  0  0  0  0  0  0  0  0  0  0  0
   -0.7540   -2.7700    1.5226 O   0  0  0  0  0  0  0  0  0  0  0  0
   -1.5320   -0.8490    0.6496 N   0  0  0  0  0  0  0  0  0  0  0  0
   -2.3500   -0.3360    0.3566 H   0  0  0  0  0  0  0  0  0  0  0  0
   -0.2470   -0.1410    0.5576 C   0  0  1  0  0  0  0  0  0  0  0  0
    0.4239   -0.7541   -0.0450 H   0  0  0  0  0  0  0  0  0  0  0  0
   -0.4317    1.2160   -0.1683 C   0  0  1  0  0  0  0  0  0  0  0  0
   -1.5056    1.3994   -0.2390 H   0  0  0  0  0  0  0  0  0  0  0  0
    0.1940    2.3894    0.6096 C   0  0  0  0  0  0  0  0  0  0  0  0
    1.2806    2.2919    0.6431 H   0  0  0  0  0  0  0  0  0  0  0  0
   -0.0637    3.3363    0.1378 H   0  0  0  0  0  0  0  0  0  0  0  0
   -0.1888    2.4112    1.6305 H   0  0  0  0  0  0  0  0  0  0  0  0
    0.1204    1.1527   -1.6101 C   0  0  0  0  0  0  0  0  0  0  0  0
    0.2441    0.1129   -1.9159 H   0  0  0  0  0  0  0  0  0  0  0  0
   -0.5977    1.6235   -2.2815 H   0  0  0  0  0  0  0  0  0  0  0  0
    1.4602    1.8790   -1.7906 C   0  0  0  0  0  0  0  0  0  0  0  0
    2.2446    1.3814   -1.2208 H   0  0  0  0  0  0  0  0  0  0  0  0
    1.7367    1.8665   -2.8451 H   0  0  0  0  0  0  0  0  0  0  0  0
    1.3706    2.9145   -1.4602 H   0  0  0  0  0  0  0  0  0  0  0  0
    0.3833   -0.0008    1.9525 C   0  0  0  0  0  0  0  0  0  0  0  0
    1.5803   -0.2304    2.1189 O   0  0  0  0  0  0  0  0  0  0  0  0
   -0.4170    0.3858    2.9541 N   0  0  0  0  0  0  0  0  0  0  0  0
   -1.3850    0.5669    2.7398 H   0  0  0  0  0  0  0  0  0  0  0  0
    0.0265    0.5600    4.3358 C   0  0  0  0  0  0  0  0  0  0  0  0
    0.8964    1.2200    4.3632 H   0  0  0  0  0  0  0  0  0  0  0  0
   -0.7726    0.9946    4.9382 H   0  0  0  0  0  0  0  0  0  0  0  0
    0.3119   -0.4069    4.7547 H   0  0  0  0  0  0  0  0  0  0  0  0
  5  6  2  0  0  0  0
  5  7  1  0  0  0  0
  2  3  1  0  0  0  0
  2  4  1  0  0  0  0
  2  5  1  0  0  0  0
  1  2  1  0  0  0  0
 24 25  2  0  0  0  0
 24 26  1  0  0  0  0
 20 21  1  0  0  0  0
 20 22  1  0  0  0  0
 20 23  1  0  0  0  0
 17 18  1  0  0  0  0
 17 19  1  0  0  0  0
 17 20  1  0  0  0  0
 13 14  1  0  0  0  0
 13 15  1  0  0  0  0
 13 16  1  0  0  0  0
 11 12  1  0  0  0  0
 11 13  1  0  0  0  0
 11 17  1  0  0  0  0
  9 10  1  0  0  0  0
  9 11  1  0  0  0  0
  9 24  1  0  0  0  0
  7  8  1  0  0  0  0
  7  9  1  0  0  0  0
 28 29  1  0  0  0  0
 28 30  1  0  0  0  0
 28 31  1  0  0  0  0
 26 27  1  0  0  0  0
 26 28  1  0  0  0  0
M  END
$$$$
default_name
  -OEChem-02102213163D

 31 30  0     1  0  0  0  0  0999 V2000
   -3.0760   -3.6390    1.5496 H   0  0  0  0  0  0  0  0  0  0  0  0
   -3.0940   -2.6290    1.1426 C   0  0  0  0  0  0  0  0  0  0  0  0
   -3.7160   -1.9930    1.7706 H   0  0  0  0  0  0  0  0  0  0  0  0
   -3.4880   -2.6500    0.1286 H   0  0  0  0  0  0  0  0  0  0  0  0
   -1.6860   -2.0850    1.1196 C   0  0  0  0  0  0  0  0  0  0  0  0
   -0.7540   -2.7700    1.5226 O   0  0  0  0  0  0  0  0  0  0  0  0
   -1.5320   -0.8490    0.6496 N   0  0  0  0  0  0  0  0  0  0  0  0
   -2.3500   -0.3360    0.3566 H   0  0  0  0  0  0  0  0  0  0  0  0
   -0.2470   -0.1410    0.5576 C   0  0  1  0  0  0  0  0  0  0  0  0
    0.4239   -0.7541   -0.0450 H   0  0  0  0  0  0  0  0  0  0  0  0
   -0.4317    1.2160   -0.1683 C   0  0  1  0  0  0  0  0  0  0  0  0
   -1.5056    1.3994   -0.2390 H   0  0  0  0  0  0  0  0  0  0  0  0
    0.1940    2.3894    0.6096 C   0  0  0  0  0  0  0  0  0  0  0  0
    1.2806    2.2919    0.6431 H   0  0  0  0  0  0  0  0  0  0  0  0
   -0.0637    3.3363    0.1378 H   0  0  0  0  0  0  0  0  0  0  0  0
   -0.1888    2.4112    1.6305 H   0  0  0  0  0  0  0  0  0  0  0  0
    0.1204    1.1527   -1.6101 C   0  0  0  0  0  0  0  0  0  0  0  0
   -0.0034    0.1462   -2.0122 H   0  0  0  0  0  0  0  0  0  0  0  0
   -0.4481    1.8424   -2.2339 H   0  0  0  0  0  0  0  0  0  0  0  0
    1.5994    1.5466   -1.7227 C   0  0  0  0  0  0  0  0  0  0  0  0
    2.2281    0.8240   -1.2026 H   0  0  0  0  0  0  0  0  0  0  0  0
    1.8878    1.5637   -2.7740 H   0  0  0  0  0  0  0  0  0  0  0  0
    1.7548    2.5383   -1.2966 H   0  0  0  0  0  0  0  0  0  0  0  0
    0.3833   -0.0008    1.9525 C   0  0  0  0  0  0  0  0  0  0  0  0
    1.5803   -0.2304    2.1189 O   0  0  0  0  0  0  0  0  0  0  0  0
   -0.4170    0.3858    2.9541 N   0  0  0  0  0  0  0  0  0  0  0  0
   -1.3850    0.5669    2.7398 H   0  0  0  0  0  0  0  0  0  0  0  0
    0.0265    0.5600    4.3358 C   0  0  0  0  0  0  0  0  0  0  0  0
    0.8964    1.2200    4.3632 H   0  0  0  0  0  0  0  0  0  0  0  0
   -0.7726    0.9946    4.9382 H   0  0  0  0  0  0  0  0  0  0  0  0
    0.3119   -0.4069    4.7547 H   0  0  0  0  0  0  0  0  0  0  0  0
  5  6  2  0  0  0  0
  5  7  1  0  0  0  0
  2  3  1  0  0  0  0
  2  4  1  0  0  0  0
  2  5  1  0  0  0  0
  1  2  1  0  0  0  0
 24 25  2  0  0  0  0
 24 26  1  0  0  0  0
 20 21  1  0  0  0  0
 20 22  1  0  0  0  0
 20 23  1  0  0  0  0
 17 18  1  0  0  0  0
 17 19  1  0  0  0  0
 17 20  1  0  0  0  0
 13 14  1  0  0  0  0
 13 15  1  0  0  0  0
 13 16  1  0  0  0  0
 11 12  1  0  0  0  0
 11 13  1  0  0  0  0
 11 17  1  0  0  0  0
  9 10  1  0  0  0  0
  9 11  1  0  0  0  0
  9 24  1  0  0  0  0
  7  8  1  0  0  0  0
  7  9  1  0  0  0  0
 28 29  1  0  0  0  0
 28 30  1  0  0  0  0
 28 31  1  0  0  0  0
 26 27  1  0  0  0  0
 26 28  1  0  0  0  0
M  END
$$$$
default_name
  -OEChem-02102213163D

 31 30  0     1  0  0  0  0  0999 V2000
   -3.0760   -3.6390    1.5496 H   0  0  0  0  0  0  0  0  0  0  0  0
   -3.0940   -2.6290    1.1426 C   0  0  0  0  0  0  0  0  0  0  0  0
   -3.7160   -1.9930    1.7706 H   0  0  0  0  0  0  0  0  0  0  0  0
   -3.4880   -2.6500    0.1286 H   0  0  0  0  0  0  0  0  0  0  0  0
   -1.6860   -2.0850    1.1196 C   0  0  0  0  0  0  0  0  0  0  0  0
   -0.7540   -2.7700    1.5226 O   0  0  0  0  0  0  0  0  0  0  0  0
   -1.5320   -0.8490    0.6496 N   0  0  0  0  0  0  0  0  0  0  0  0
   -2.3500   -0.3360    0.3566 H   0  0  0  0  0  0  0  0  0  0  0  0
   -0.2470   -0.1410    0.5576 C   0  0  1  0  0  0  0  0  0  0  0  0
    0.4239   -0.7541   -0.0450 H   0  0  0  0  0  0  0  0  0  0  0  0
   -0.4317    1.2160   -0.1683 C   0  0  1  0  0  0  0  0  0  0  0  0
   -1.5056    1.3994   -0.2390 H   0  0  0  0  0  0  0  0  0  0  0  0
    0.1940    2.3894    0.6096 C   0  0  0  0  0  0  0  0  0  0  0  0
    1.2806    2.2919    0.6431 H   0  0  0  0  0  0  0  0  0  0  0  0
   -0.0637    3.3363    0.1378 H   0  0  0  0  0  0  0  0  0  0  0  0
   -0.1888    2.4112    1.6305 H   0  0  0  0  0  0  0  0  0  0  0  0
    0.1204    1.1527   -1.6101 C   0  0  0  0  0  0  0  0  0  0  0  0
   -0.2334    0.2471   -2.1047 H   0  0  0  0  0  0  0  0  0  0  0  0
   -0.2513    2.0134   -2.1660 H   0  0  0  0  0  0  0  0  0  0  0  0
    1.6528    1.1855   -1.6864 C   0  0  0  0  0  0  0  0  0  0  0  0
    2.0773    0.2880   -1.2369 H   0  0  0  0  0  0  0  0  0  0  0  0
    1.9599    1.2281   -2.7316 H   0  0  0  0  0  0  0  0  0  0  0  0
    2.0333    2.0670   -1.1693 H   0  0  0  0  0  0  0  0  0  0  0  0
    0.3833   -0.0008    1.9525 C   0  0  0  0  0  0  0  0  0  0  0  0
    1.5803   -0.2304    2.1189 O   0  0  0  0  0  0  0  0  0  0  0  0
   -0.4170    0.3858    2.9541 N   0  0  0  0  0  0  0  0  0  0  0  0
   -1.3850    0.5669    2.7398 H   0  0  0  0  0  0  0  0  0  0  0  0
    0.0265    0.5600    4.3358 C   0  0  0  0  0  0  0  0  0  0  0  0
    0.8964    1.2200    4.3632 H   0  0  0  0  0  0  0  0  0  0  0  0
   -0.7726    0.9946    4.9382 H   0  0  0  0  0  0  0  0  0  0  0  0
    0.3119   -0.4069    4.7547 H   0  0  0  0  0  0  0  0  0  0  0  0
  5  6  2  0  0  0  0
  5  7  1  0  0  0  0
  2  3  1  0  0  0  0
  2  4  1  0  0  0  0
  2  5  1  0  0  0  0
  1  2  1  0  0  0  0
 24 25  2  0  0  0  0
 24 26  1  0  0  0  0
 20 21  1  0  0  0  0
 20 22  1  0  0  0  0
 20 23  1  0  0  0  0
 17 18  1  0  0  0  0
 17 19  1  0  0  0  0
 17 20  1  0  0  0  0
 13 14  1  0  0  0  0
 13 15  1  0  0  0  0
 13 16  1  0  0  0  0
 11 12  1  0  0  0  0
 11 13  1  0  0  0  0
 11 17  1  0  0  0  0
  9 10  1  0  0  0  0
  9 11  1  0  0  0  0
  9 24  1  0  0  0  0
  7  8  1  0  0  0  0
  7  9  1  0  0  0  0
 28 29  1  0  0  0  0
 28 30  1  0  0  0  0
 28 31  1  0  0  0  0
 26 27  1  0  0  0  0
 26 28  1  0  0  0  0
M  END
$$$$
default_name
  -OEChem-02102213163D

 31 30  0     1  0  0  0  0  0999 V2000
   -3.0760   -3.6390    1.5496 H   0  0  0  0  0  0  0  0  0  0  0  0
   -3.0940   -2.6290    1.1426 C   0  0  0  0  0  0  0  0  0  0  0  0
   -3.7160   -1.9930    1.7706 H   0  0  0  0  0  0  0  0  0  0  0  0
   -3.4880   -2.6500    0.1286 H   0  0  0  0  0  0  0  0  0  0  0  0
   -1.6860   -2.0850    1.1196 C   0  0  0  0  0  0  0  0  0  0  0  0
   -0.7540   -2.7700    1.5226 O   0  0  0  0  0  0  0  0  0  0  0  0
   -1.5320   -0.8490    0.6496 N   0  0  0  0  0  0  0  0  0  0  0  0
   -2.3500   -0.3360    0.3566 H   0  0  0  0  0  0  0  0  0  0  0  0
   -0.2470   -0.1410    0.5576 C   0  0  1  0  0  0  0  0  0  0  0  0
    0.4239   -0.7541   -0.0450 H   0  0  0  0  0  0  0  0  0  0  0  0
   -0.4317    1.2160   -0.1683 C   0  0  1  0  0  0  0  0  0  0  0  0
   -1.5056    1.3994   -0.2390 H   0  0  0  0  0  0  0  0  0  0  0  0
    0.1940    2.3894    0.6096 C   0  0  0  0  0  0  0  0  0  0  0  0
    1.2806    2.2919    0.6431 H   0  0  0  0  0  0  0  0  0  0  0  0
   -0.0637    3.3363    0.1378 H   0  0  0  0  0  0  0  0  0  0  0  0
   -0.1888    2.4112    1.6305 H   0  0  0  0  0  0  0  0  0  0  0  0
    0.1204    1.1527   -1.6101 C   0  0  0  0  0  0  0  0  0  0  0  0
   -0.4303    0.4086   -2.1872 H   0  0  0  0  0  0  0  0  0  0  0  0
   -0.0206    2.1247   -2.0826 H   0  0  0  0  0  0  0  0  0  0  0  0
    1.6169    0.8205   -1.6842 C   0  0  0  0  0  0  0  0  0  0  0  0
    1.8025   -0.1902   -1.3211 H   0  0  0  0  0  0  0  0  0  0  0  0
    1.9480    0.8826   -2.7210 H   0  0  0  0  0  0  0  0  0  0  0  0
    2.1871    1.5328   -1.0869 H   0  0  0  0  0  0  0  0  0  0  0  0
    0.3833   -0.0008    1.9525 C   0  0  0  0  0  0  0  0  0  0  0  0
    1.5803   -0.2304    2.1189 O   0  0  0  0  0  0  0  0  0  0  0  0
   -0.4170    0.3858    2.9541 N   0  0  0  0  0  0  0  0  0  0  0  0
   -1.3850    0.5669    2.7398 H   0  0  0  0  0  0  0  0  0  0  0  0
    0.0265    0.5600    4.3358 C   0  0  0  0  0  0  0  0  0  0  0  0
    0.8964    1.2200    4.3632 H   0  0  0  0  0  0  0  0  0  0  0  0
   -0.7726    0.9946    4.9382 H   0  0  0  0  0  0  0  0  0  0  0  0
    0.3119   -0.4069    4.7547 H   0  0  0  0  0  0  0  0  0  0  0  0
  5  6  2  0  0  0  0
  5  7  1  0  0  0  0
  2  3  1  0  0  0  0
  2  4  1  0  0  0  0
  2  5  1  0  0  0  0
  1  2  1  0  0  0  0
 24 25  2  0  0  0  0
 24 26  1  0  0  0  0
 20 21  1  0  0  0  0
 20 22  1  0  0  0  0
 20 23  1  0  0  0  0
 17 18  1  0  0  0  0
 17 19  1  0  0  0  0
 17 20  1  0  0  0  0
 13 14  1  0  0  0  0
 13 15  1  0  0  0  0
 13 16  1  0  0  0  0
 11 12  1  0  0  0  0
 11 13  1  0  0  0  0
 11 17  1  0  0  0  0
  9 10  1  0  0  0  0
  9 11  1  0  0  0  0
  9 24  1  0  0  0  0
  7  8  1  0  0  0  0
  7  9  1  0  0  0  0
 28 29  1  0  0  0  0
 28 30  1  0  0  0  0
 28 31  1  0  0  0  0
 26 27  1  0  0  0  0
 26 28  1  0  0  0  0
M  END
$$$$
default_name
  -OEChem-02102213163D

 31 30  0     1  0  0  0  0  0999 V2000
   -3.0760   -3.6390    1.5496 H   0  0  0  0  0  0  0  0  0  0  0  0
   -3.0940   -2.6290    1.1426 C   0  0  0  0  0  0  0  0  0  0  0  0
   -3.7160   -1.9930    1.7706 H   0  0  0  0  0  0  0  0  0  0  0  0
   -3.4880   -2.6500    0.1286 H   0  0  0  0  0  0  0  0  0  0  0  0
   -1.6860   -2.0850    1.1196 C   0  0  0  0  0  0  0  0  0  0  0  0
   -0.7540   -2.7700    1.5226 O   0  0  0  0  0  0  0  0  0  0  0  0
   -1.5320   -0.8490    0.6496 N   0  0  0  0  0  0  0  0  0  0  0  0
   -2.3500   -0.3360    0.3566 H   0  0  0  0  0  0  0  0  0  0  0  0
   -0.2470   -0.1410    0.5576 C   0  0  1  0  0  0  0  0  0  0  0  0
    0.4239   -0.7541   -0.0450 H   0  0  0  0  0  0  0  0  0  0  0  0
   -0.4317    1.2160   -0.1683 C   0  0  1  0  0  0  0  0  0  0  0  0
   -1.5056    1.3994   -0.2390 H   0  0  0  0  0  0  0  0  0  0  0  0
    0.1940    2.3894    0.6096 C   0  0  0  0  0  0  0  0  0  0  0  0
    1.2806    2.2919    0.6431 H   0  0  0  0  0  0  0  0  0  0  0  0
   -0.0637    3.3363    0.1378 H   0  0  0  0  0  0  0  0  0  0  0  0
   -0.1888    2.4112    1.6305 H   0  0  0  0  0  0  0  0  0  0  0  0
    0.1204    1.1527   -1.6101 C   0  0  0  0  0  0  0  0  0  0  0  0
   -0.5806    0.6198   -2.2540 H   0  0  0  0  0  0  0  0  0  0  0  0
    0.2282    2.1689   -1.9892 H   0  0  0  0  0  0  0  0  0  0  0  0
    1.4939    0.4764   -1.7161 C   0  0  0  0  0  0  0  0  0  0  0  0
    1.4225   -0.5779   -1.4495 H   0  0  0  0  0  0  0  0  0  0  0  0
    1.8530    0.5508   -2.7428 H   0  0  0  0  0  0  0  0  0  0  0  0
    2.2058    0.9720   -1.0551 H   0  0  0  0  0  0  0  0  0  0  0  0
    0.3833   -0.0008    1.9525 C   0  0  0  0  0  0  0  0  0  0  0  0
    1.5803   -0.2304    2.1189 O   0  0  0  0  0  0  0  0  0  0  0  0
   -0.4170    0.3858    2.9541 N   0  0  0  0  0  0  0  0  0  0  0  0
   -1.3850    0.5669    2.7398 H   0  0  0  0  0  0  0  0  0  0  0  0
    0.0265    0.5600    4.3358 C   0  0  0  0  0  0  0  0  0  0  0  0
    0.8964    1.2200    4.3632 H   0  0  0  0  0  0  0  0  0  0  0  0
   -0.7726    0.9946    4.9382 H   0  0  0  0  0  0  0  0  0  0  0  0
    0.3119   -0.4069    4.7547 H   0  0  0  0  0  0  0  0  0  0  0  0
  5  6  2  0  0  0  0
  5  7  1  0  0  0  0
  2  3  1  0  0  0  0
  2  4  1  0  0  0  0
  2  5  1  0  0  0  0
  1  2  1  0  0  0  0
 24 25  2  0  0  0  0
 24 26  1  0  0  0  0
 20 21  1  0  0  0  0
 20 22  1  0  0  0  0
 20 23  1  0  0  0  0
 17 18  1  0  0  0  0
 17 19  1  0  0  0  0
 17 20  1  0  0  0  0
 13 14  1  0  0  0  0
 13 15  1  0  0  0  0
 13 16  1  0  0  0  0
 11 12  1  0  0  0  0
 11 13  1  0  0  0  0
 11 17  1  0  0  0  0
  9 10  1  0  0  0  0
  9 11  1  0  0  0  0
  9 24  1  0  0  0  0
  7  8  1  0  0  0  0
  7  9  1  0  0  0  0
 28 29  1  0  0  0  0
 28 30  1  0  0  0  0
 28 31  1  0  0  0  0
 26 27  1  0  0  0  0
 26 28  1  0  0  0  0
M  END
$$$$
default_name
  -OEChem-02102213163D

 31 30  0     1  0  0  0  0  0999 V2000
   -3.0760   -3.6390    1.5496 H   0  0  0  0  0  0  0  0  0  0  0  0
   -3.0940   -2.6290    1.1426 C   0  0  0  0  0  0  0  0  0  0  0  0
   -3.7160   -1.9930    1.7706 H   0  0  0  0  0  0  0  0  0  0  0  0
   -3.4880   -2.6500    0.1286 H   0  0  0  0  0  0  0  0  0  0  0  0
   -1.6860   -2.0850    1.1196 C   0  0  0  0  0  0  0  0  0  0  0  0
   -0.7540   -2.7700    1.5226 O   0  0  0  0  0  0  0  0  0  0  0  0
   -1.5320   -0.8490    0.6496 N   0  0  0  0  0  0  0  0  0  0  0  0
   -2.3500   -0.3360    0.3566 H   0  0  0  0  0  0  0  0  0  0  0  0
   -0.2470   -0.1410    0.5576 C   0  0  1  0  0  0  0  0  0  0  0  0
    0.4239   -0.7541   -0.0450 H   0  0  0  0  0  0  0  0  0  0  0  0
   -0.4317    1.2160   -0.1683 C   0  0  1  0  0  0  0  0  0  0  0  0
   -1.5056    1.3994   -0.2390 H   0  0  0  0  0  0  0  0  0  0  0  0
    0.1940    2.3894    0.6096 C   0  0  0  0  0  0  0  0  0  0  0  0
    1.2806    2.2919    0.6431 H   0  0  0  0  0  0  0  0  0  0  0  0
   -0.0637    3.3363    0.1378 H   0  0  0  0  0  0  0  0  0  0  0  0
   -0.1888    2.4112    1.6305 H   0  0  0  0  0  0  0  0  0  0  0  0
    0.1204    1.1527   -1.6101 C   0  0  0  0  0  0  0  0  0  0  0  0
   -0.6741    0.8662   -2.3006 H   0  0  0  0  0  0  0  0  0  0  0  0
    0.4783    2.1428   -1.8923 H   0  0  0  0  0  0  0  0  0  0  0  0
    1.2925    0.1766   -1.7801 C   0  0  0  0  0  0  0  0  0  0  0  0
    0.9632   -0.8488   -1.6135 H   0  0  0  0  0  0  0  0  0  0  0  0
    1.6813    0.2552   -2.7956 H   0  0  0  0  0  0  0  0  0  0  0  0
    2.0881    0.4229   -1.0761 H   0  0  0  0  0  0  0  0  0  0  0  0
    0.3833   -0.0008    1.9525 C   0  0  0  0  0  0  0  0  0  0  0  0
    1.5803   -0.2304    2.1189 O   0  0  0  0  0  0  0  0  0  0  0  0
   -0.4170    0.3858    2.9541 N   0  0  0  0  0  0  0  0  0  0  0  0
   -1.3850    0.5669    2.7398 H   0  0  0  0  0  0  0  0  0  0  0  0
    0.0265    0.5600    4.3358 C   0  0  0  0  0  0  0  0  0  0  0  0
    0.8964    1.2200    4.3632 H   0  0  0  0  0  0  0  0  0  0  0  0
   -0.7726    0.9946    4.9382 H   0  0  0  0  0  0  0  0  0  0  0  0
    0.3119   -0.4069    4.7547 H   0  0  0  0  0  0  0  0  0  0  0  0
  5  6  2  0  0  0  0
  5  7  1  0  0  0  0
  2  3  1  0  0  0  0
  2  4  1  0  0  0  0
  2  5  1  0  0  0  0
  1  2  1  0  0  0  0
 24 25  2  0  0  0  0
 24 26  1  0  0  0  0
 20 21  1  0  0  0  0
 20 22  1  0  0  0  0
 20 23  1  0  0  0  0
 17 18  1  0  0  0  0
 17 19  1  0  0  0  0
 17 20  1  0  0  0  0
 13 14  1  0  0  0  0
 13 15  1  0  0  0  0
 13 16  1  0  0  0  0
 11 12  1  0  0  0  0
 11 13  1  0  0  0  0
 11 17  1  0  0  0  0
  9 10  1  0  0  0  0
  9 11  1  0  0  0  0
  9 24  1  0  0  0  0
  7  8  1  0  0  0  0
  7  9  1  0  0  0  0
 28 29  1  0  0  0  0
 28 30  1  0  0  0  0
 28 31  1  0  0  0  0
 26 27  1  0  0  0  0
 26 28  1  0  0  0  0
M  END
$$$$
default_name
  -OEChem-02102213163D

 31 30  0     1  0  0  0  0  0999 V2000
   -3.0760   -3.6390    1.5496 H   0  0  0  0  0  0  0  0  0  0  0  0
   -3.0940   -2.6290    1.1426 C   0  0  0  0  0  0  0  0  0  0  0  0
   -3.7160   -1.9930    1.7706 H   0  0  0  0  0  0  0  0  0  0  0  0
   -3.4880   -2.6500    0.1286 H   0  0  0  0  0  0  0  0  0  0  0  0
   -1.6860   -2.0850    1.1196 C   0  0  0  0  0  0  0  0  0  0  0  0
   -0.7540   -2.7700    1.5226 O   0  0  0  0  0  0  0  0  0  0  0  0
   -1.5320   -0.8490    0.6496 N   0  0  0  0  0  0  0  0  0  0  0  0
   -2.3500   -0.3360    0.3566 H   0  0  0  0  0  0  0  0  0  0  0  0
   -0.2470   -0.1410    0.5576 C   0  0  1  0  0  0  0  0  0  0  0  0
    0.4239   -0.7541   -0.0450 H   0  0  0  0  0  0  0  0  0  0  0  0
   -0.4317    1.2160   -0.1683 C   0  0  1  0  0  0  0  0  0  0  0  0
   -1.5056    1.3994   -0.2390 H   0  0  0  0  0  0  0  0  0  0  0  0
    0.1940    2.3894    0.6096 C   0  0  0  0  0  0  0  0  0  0  0  0
    1.2806    2.2919    0.6431 H   0  0  0  0  0  0  0  0  0  0  0  0
   -0.0637    3.3363    0.1378 H   0  0  0  0  0  0  0  0  0  0  0  0
   -0.1888    2.4112    1.6305 H   0  0  0  0  0  0  0  0  0  0  0  0
    0.1204    1.1527   -1.6101 C   0  0  0  0  0  0  0  0  0  0  0  0
   -0.7043    1.1312   -2.3238 H   0  0  0  0  0  0  0  0  0  0  0  0
    0.7125    2.0482   -1.7985 H   0  0  0  0  0  0  0  0  0  0  0  0
    1.0261   -0.0583   -1.8718 C   0  0  0  0  0  0  0  0  0  0  0  0
    0.4559   -0.9844   -1.8018 H   0  0  0  0  0  0  0  0  0  0  0  0
    1.4447    0.0161   -2.8757 H   0  0  0  0  0  0  0  0  0  0  0  0
    1.8420   -0.0771   -1.1484 H   0  0  0  0  0  0  0  0  0  0  0  0
    0.3833   -0.0008    1.9525 C   0  0  0  0  0  0  0  0  0  0  0  0
    1.5803   -0.2304    2.1189 O   0  0  0  0  0  0  0  0  0  0  0  0
   -0.4170    0.3858    2.9541 N   0  0  0  0  0  0  0  0  0  0  0  0
   -1.3850    0.5669    2.7398 H   0  0  0  0  0  0  0  0  0  0  0  0
    0.0265    0.5600    4.3358 C   0  0  0  0  0  0  0  0  0  0  0  0
    0.8964    1.2200    4.3632 H   0  0  0  0  0  0  0  0  0  0  0  0
   -0.7726    0.9946    4.9382 H   0  0  0  0  0  0  0  0  0  0  0  0
    0.3119   -0.4069    4.7547 H   0  0  0  0  0  0  0  0  0  0  0  0
  5  6  2  0  0  0  0
  5  7  1  0  0  0  0
  2  3  1  0  0  0  0
  2  4  1  0  0  0  0
  2  5  1  0  0  0  0
  1  2  1  0  0  0  0
 24 25  2  0  0  0  0
 24 26  1  0  0  0  0
 20 21  1  0  0  0  0
 20 22  1  0  0  0  0
 20 23  1  0  0  0  0
 17 18  1  0  0  0  0
 17 19  1  0  0  0  0
 17 20  1  0  0  0  0
 13 14  1  0  0  0  0
 13 15  1  0  0  0  0
 13 16  1  0  0  0  0
 11 12  1  0  0  0  0
 11 13  1  0  0  0  0
 11 17  1  0  0  0  0
  9 10  1  0  0  0  0
  9 11  1  0  0  0  0
  9 24  1  0  0  0  0
  7  8  1  0  0  0  0
  7  9  1  0  0  0  0
 28 29  1  0  0  0  0
 28 30  1  0  0  0  0
 28 31  1  0  0  0  0
 26 27  1  0  0  0  0
 26 28  1  0  0  0  0
M  END
$$$$
default_name
  -OEChem-02102213163D

 31 30  0     1  0  0  0  0  0999 V2000
   -3.0760   -3.6390    1.5496 H   0  0  0  0  0  0  0  0  0  0  0  0
   -3.0940   -2.6290    1.1426 C   0  0  0  0  0  0  0  0  0  0  0  0
   -3.7160   -1.9930    1.7706 H   0  0  0  0  0  0  0  0  0  0  0  0
   -3.4880   -2.6500    0.1286 H   0  0  0  0  0  0  0  0  0  0  0  0
   -1.6860   -2.0850    1.1196 C   0  0  0  0  0  0  0  0  0  0  0  0
   -0.7540   -2.7700    1.5226 O   0  0  0  0  0  0  0  0  0  0  0  0
   -1.5320   -0.8490    0.6496 N   0  0  0  0  0  0  0  0  0  0  0  0
   -2.3500   -0.3360    0.3566 H   0  0  0  0  0  0  0  0  0  0  0  0
   -0.2470   -0.1410    0.5576 C   0  0  1  0  0  0  0  0  0  0  0  0
    0.4239   -0.7541   -0.0450 H   0  0  0  0  0  0  0  0  0  0  0  0
   -0.4317    1.2160   -0.1683 C   0  0  1  0  0  0  0  0  0  0  0  0
   -1.5056    1.3994   -0.2390 H   0  0  0  0  0  0  0  0  0  0  0  0
    0.1940    2.3894    0.6096 C   0  0  0  0  0  0  0  0  0  0  0  0
    1.2806    2.2919    0.6431 H   0  0  0  0  0  0  0  0  0  0  0  0
   -0.0637    3.3363    0.1378 H   0  0  0  0  0  0  0  0  0  0  0  0
   -0.1888    2.4112    1.6305 H   0  0  0  0  0  0  0  0  0  0  0  0
    0.1204    1.1527   -1.6101 C   0  0  0  0  0  0  0  0  0  0  0  0
   -0.6693    1.3965   -2.3220 H   0  0  0  0  0  0  0  0  0  0  0  0
    0.9148    1.8916   -1.7142 H   0  0  0  0  0  0  0  0  0  0  0  0
    0.7131   -0.2125   -1.9849 C   0  0  0  0  0  0  0  0  0  0  0  0
   -0.0649   -0.9754   -2.0016 H   0  0  0  0  0  0  0  0  0  0  0  0
    1.1592   -0.1504   -2.9777 H   0  0  0  0  0  0  0  0  0  0  0  0
    1.4843   -0.4940   -1.2670 H   0  0  0  0  0  0  0  0  0  0  0  0
    0.3833   -0.0008    1.9525 C   0  0  0  0  0  0  0  0  0  0  0  0
    1.5803   -0.2304    2.1189 O   0  0  0  0  0  0  0  0  0  0  0  0
   -0.4170    0.3858    2.9541 N   0  0  0  0  0  0  0  0  0  0  0  0
   -1.3850    0.5669    2.7398 H   0  0  0  0  0  0  0  0  0  0  0  0
    0.0265    0.5600    4.3358 C   0  0  0  0  0  0  0  0  0  0  0  0
    0.8964    1.2200    4.3632 H   0  0  0  0  0  0  0  0  0  0  0  0
   -0.7726    0.9946    4.9382 H   0  0  0  0  0  0  0  0  0  0  0  0
    0.3119   -0.4069    4.7547 H   0  0  0  0  0  0  0  0  0  0  0  0
  5  6  2  0  0  0  0
  5  7  1  0  0  0  0
  2  3  1  0  0  0  0
  2  4  1  0  0  0  0
  2  5  1  0  0  0  0
  1  2  1  0  0  0  0
 24 25  2  0  0  0  0
 24 26  1  0  0  0  0
 20 21  1  0  0  0  0
 20 22  1  0  0  0  0
 20 23  1  0  0  0  0
 17 18  1  0  0  0  0
 17 19  1  0  0  0  0
 17 20  1  0  0  0  0
 13 14  1  0  0  0  0
 13 15  1  0  0  0  0
 13 16  1  0  0  0  0
 11 12  1  0  0  0  0
 11 13  1  0  0  0  0
 11 17  1  0  0  0  0
  9 10  1  0  0  0  0
  9 11  1  0  0  0  0
  9 24  1  0  0  0  0
  7  8  1  0  0  0  0
  7  9  1  0  0  0  0
 28 29  1  0  0  0  0
 28 30  1  0  0  0  0
 28 31  1  0  0  0  0
 26 27  1  0  0  0  0
 26 28  1  0  0  0  0
M  END
$$$$
default_name
  -OEChem-02102213163D

 31 30  0     1  0  0  0  0  0999 V2000
   -3.0760   -3.6390    1.5496 H   0  0  0  0  0  0  0  0  0  0  0  0
   -3.0940   -2.6290    1.1426 C   0  0  0  0  0  0  0  0  0  0  0  0
   -3.7160   -1.9930    1.7706 H   0  0  0  0  0  0  0  0  0  0  0  0
   -3.4880   -2.6500    0.1286 H   0  0  0  0  0  0  0  0  0  0  0  0
   -1.6860   -2.0850    1.1196 C   0  0  0  0  0  0  0  0  0  0  0  0
   -0.7540   -2.7700    1.5226 O   0  0  0  0  0  0  0  0  0  0  0  0
   -1.5320   -0.8490    0.6496 N   0  0  0  0  0  0  0  0  0  0  0  0
   -2.3500   -0.3360    0.3566 H   0  0  0  0  0  0  0  0  0  0  0  0
   -0.2470   -0.1410    0.5576 C   0  0  1  0  0  0  0  0  0  0  0  0
    0.4239   -0.7541   -0.0450 H   0  0  0  0  0  0  0  0  0  0  0  0
   -0.4317    1.2160   -0.1683 C   0  0  1  0  0  0  0  0  0  0  0  0
   -1.5056    1.3994   -0.2390 H   0  0  0  0  0  0  0  0  0  0  0  0
    0.1940    2.3894    0.6096 C   0  0  0  0  0  0  0  0  0  0  0  0
    1.2806    2.2919    0.6431 H   0  0  0  0  0  0  0  0  0  0  0  0
   -0.0637    3.3363    0.1378 H   0  0  0  0  0  0  0  0  0  0  0  0
   -0.1888    2.4112    1.6305 H   0  0  0  0  0  0  0  0  0  0  0  0
    0.1204    1.1527   -1.6101 C   0  0  0  0  0  0  0  0  0  0  0  0
   -0.5714    1.6443   -2.2954 H   0  0  0  0  0  0  0  0  0  0  0  0
    1.0716    1.6837   -1.6450 H   0  0  0  0  0  0  0  0  0  0  0  0
    0.3747   -0.2753   -2.1117 C   0  0  0  0  0  0  0  0  0  0  0  0
   -0.5637   -0.8225   -2.1993 H   0  0  0  0  0  0  0  0  0  0  0  0
    0.8443   -0.2327   -3.0947 H   0  0  0  0  0  0  0  0  0  0  0  0
    1.0393   -0.7994   -1.4240 H   0  0  0  0  0  0  0  0  0  0  0  0
    0.3833   -0.0008    1.9525 C   0  0  0  0  0  0  0  0  0  0  0  0
    1.5803   -0.2304    2.1189 O   0  0  0  0  0  0  0  0  0  0  0  0
   -0.4170    0.3858    2.9541 N   0  0  0  0  0  0  0  0  0  0  0  0
   -1.3850    0.5669    2.7398 H   0  0  0  0  0  0  0  0  0  0  0  0
    0.0265    0.5600    4.3358 C   0  0  0  0  0  0  0  0  0  0  0  0
    0.8964    1.2200    4.3632 H   0  0  0  0  0  0  0  0  0  0  0  0
   -0.7726    0.9946    4.9382 H   0  0  0  0  0  0  0  0  0  0  0  0
    0.3119   -0.4069    4.7547 H   0  0  0  0  0  0  0  0  0  0  0  0
  5  6  2  0  0  0  0
  5  7  1  0  0  0  0
  2  3  1  0  0  0  0
  2  4  1  0  0  0  0
  2  5  1  0  0  0  0
  1  2  1  0  0  0  0
 24 25  2  0  0  0  0
 24 26  1  0  0  0  0
 20 21  1  0  0  0  0
 20 22  1  0  0  0  0
 20 23  1  0  0  0  0
 17 18  1  0  0  0  0
 17 19  1  0  0  0  0
 17 20  1  0  0  0  0
 13 14  1  0  0  0  0
 13 15  1  0  0  0  0
 13 16  1  0  0  0  0
 11 12  1  0  0  0  0
 11 13  1  0  0  0  0
 11 17  1  0  0  0  0
  9 10  1  0  0  0  0
  9 11  1  0  0  0  0
  9 24  1  0  0  0  0
  7  8  1  0  0  0  0
  7  9  1  0  0  0  0
 28 29  1  0  0  0  0
 28 30  1  0  0  0  0
 28 31  1  0  0  0  0
 26 27  1  0  0  0  0
 26 28  1  0  0  0  0
M  END
$$$$
default_name
  -OEChem-02102213163D

 31 30  0     1  0  0  0  0  0999 V2000
   -3.0760   -3.6390    1.5496 H   0  0  0  0  0  0  0  0  0  0  0  0
   -3.0940   -2.6290    1.1426 C   0  0  0  0  0  0  0  0  0  0  0  0
   -3.7160   -1.9930    1.7706 H   0  0  0  0  0  0  0  0  0  0  0  0
   -3.4880   -2.6500    0.1286 H   0  0  0  0  0  0  0  0  0  0  0  0
   -1.6860   -2.0850    1.1196 C   0  0  0  0  0  0  0  0  0  0  0  0
   -0.7540   -2.7700    1.5226 O   0  0  0  0  0  0  0  0  0  0  0  0
   -1.5320   -0.8490    0.6496 N   0  0  0  0  0  0  0  0  0  0  0  0
   -2.3500   -0.3360    0.3566 H   0  0  0  0  0  0  0  0  0  0  0  0
   -0.2470   -0.1410    0.5576 C   0  0  1  0  0  0  0  0  0  0  0  0
    0.4239   -0.7541   -0.0450 H   0  0  0  0  0  0  0  0  0  0  0  0
   -0.4317    1.2160   -0.1683 C   0  0  1  0  0  0  0  0  0  0  0  0
   -1.5056    1.3994   -0.2390 H   0  0  0  0  0  0  0  0  0  0  0  0
    0.1940    2.3894    0.6096 C   0  0  0  0  0  0  0  0  0  0  0  0
    1.2806    2.2919    0.6431 H   0  0  0  0  0  0  0  0  0  0  0  0
   -0.0637    3.3363    0.1378 H   0  0  0  0  0  0  0  0  0  0  0  0
   -0.1888    2.4112    1.6305 H   0  0  0  0  0  0  0  0  0  0  0  0
    0.1204    1.1527   -1.6101 C   0  0  0  0  0  0  0  0  0  0  0  0
   -0.4173    1.8574   -2.2458 H   0  0  0  0  0  0  0  0  0  0  0  0
    1.1721    1.4386   -1.5958 H   0  0  0  0  0  0  0  0  0  0  0  0
    0.0340   -0.2425   -2.2435 C   0  0  0  0  0  0  0  0  0  0  0  0
   -1.0065   -0.5361   -2.3814 H   0  0  0  0  0  0  0  0  0  0  0  0
    0.5215   -0.2255   -3.2186 H   0  0  0  0  0  0  0  0  0  0  0  0
    0.5375   -0.9723   -1.6085 H   0  0  0  0  0  0  0  0  0  0  0  0
    0.3833   -0.0008    1.9525 C   0  0  0  0  0  0  0  0  0  0  0  0
    1.5803   -0.2304    2.1189 O   0  0  0  0  0  0  0  0  0  0  0  0
   -0.4170    0.3858    2.9541 N   0  0  0  0  0  0  0  0  0  0  0  0
   -1.3850    0.5669    2.7398 H   0  0  0  0  0  0  0  0  0  0  0  0
    0.0265    0.5600    4.3358 C   0  0  0  0  0  0  0  0  0  0  0  0
    0.8964    1.2200    4.3632 H   0  0  0  0  0  0  0  0  0  0  0  0
   -0.7726    0.9946    4.9382 H   0  0  0  0  0  0  0  0  0  0  0  0
    0.3119   -0.4069    4.7547 H   0  0  0  0  0  0  0  0  0  0  0  0
  5  6  2  0  0  0  0
  5  7  1  0  0  0  0
  2  3  1  0  0  0  0
  2  4  1  0  0  0  0
  2  5  1  0  0  0  0
  1  2  1  0  0  0  0
 24 25  2  0  0  0  0
 24 26  1  0  0  0  0
 20 21  1  0  0  0  0
 20 22  1  0  0  0  0
 20 23  1  0  0  0  0
 17 18  1  0  0  0  0
 17 19  1  0  0  0  0
 17 20  1  0  0  0  0
 13 14  1  0  0  0  0
 13 15  1  0  0  0  0
 13 16  1  0  0  0  0
 11 12  1  0  0  0  0
 11 13  1  0  0  0  0
 11 17  1  0  0  0  0
  9 10  1  0  0  0  0
  9 11  1  0  0  0  0
  9 24  1  0  0  0  0
  7  8  1  0  0  0  0
  7  9  1  0  0  0  0
 28 29  1  0  0  0  0
 28 30  1  0  0  0  0
 28 31  1  0  0  0  0
 26 27  1  0  0  0  0
 26 28  1  0  0  0  0
M  END
$$$$
default_name
  -OEChem-02102213163D

 31 30  0     1  0  0  0  0  0999 V2000
   -3.0760   -3.6390    1.5496 H   0  0  0  0  0  0  0  0  0  0  0  0
   -3.0940   -2.6290    1.1426 C   0  0  0  0  0  0  0  0  0  0  0  0
   -3.7160   -1.9930    1.7706 H   0  0  0  0  0  0  0  0  0  0  0  0
   -3.4880   -2.6500    0.1286 H   0  0  0  0  0  0  0  0  0  0  0  0
   -1.6860   -2.0850    1.1196 C   0  0  0  0  0  0  0  0  0  0  0  0
   -0.7540   -2.7700    1.5226 O   0  0  0  0  0  0  0  0  0  0  0  0
   -1.5320   -0.8490    0.6496 N   0  0  0  0  0  0  0  0  0  0  0  0
   -2.3500   -0.3360    0.3566 H   0  0  0  0  0  0  0  0  0  0  0  0
   -0.2470   -0.1410    0.5576 C   0  0  1  0  0  0  0  0  0  0  0  0
    0.4239   -0.7541   -0.0450 H   0  0  0  0  0  0  0  0  0  0  0  0
   -0.4317    1.2160   -0.1683 C   0  0  1  0  0  0  0  0  0  0  0  0
   -1.5056    1.3994   -0.2390 H   0  0  0  0  0  0  0  0  0  0  0  0
    0.1940    2.3894    0.6096 C   0  0  0  0  0  0  0  0  0  0  0  0
    1.2806    2.2919    0.6431 H   0  0  0  0  0  0  0  0  0  0  0  0
   -0.0637    3.3363    0.1378 H   0  0  0  0  0  0  0  0  0  0  0  0
   -0.1888    2.4112    1.6305 H   0  0  0  0  0  0  0  0  0  0  0  0
    0.1204    1.1527   -1.6101 C   0  0  0  0  0  0  0  0  0  0  0  0
   -0.2175    2.0215   -2.1765 H   0  0  0  0  0  0  0  0  0  0  0  0
    1.2094    1.1731   -1.5698 H   0  0  0  0  0  0  0  0  0  0  0  0
   -0.2858   -0.1164   -2.3715 C   0  0  0  0  0  0  0  0  0  0  0  0
   -1.3630   -0.1356   -2.5355 H   0  0  0  0  0  0  0  0  0  0  0  0
    0.2127   -0.1290   -3.3410 H   0  0  0  0  0  0  0  0  0  0  0  0
    0.0129   -1.0011   -1.8081 H   0  0  0  0  0  0  0  0  0  0  0  0
    0.3833   -0.0008    1.9525 C   0  0  0  0  0  0  0  0  0  0  0  0
    1.5803   -0.2304    2.1189 O   0  0  0  0  0  0  0  0  0  0  0  0
   -0.4170    0.3858    2.9541 N   0  0  0  0  0  0  0  0  0  0  0  0
   -1.3850    0.5669    2.7398 H   0  0  0  0  0  0  0  0  0  0  0  0
    0.0265    0.5600    4.3358 C   0  0  0  0  0  0  0  0  0  0  0  0
    0.8964    1.2200    4.3632 H   0  0  0  0  0  0  0  0  0  0  0  0
   -0.7726    0.9946    4.9382 H   0  0  0  0  0  0  0  0  0  0  0  0
    0.3119   -0.4069    4.7547 H   0  0  0  0  0  0  0  0  0  0  0  0
  5  6  2  0  0  0  0
  5  7  1  0  0  0  0
  2  3  1  0  0  0  0
  2  4  1  0  0  0  0
  2  5  1  0  0  0  0
  1  2  1  0  0  0  0
 24 25  2  0  0  0  0
 24 26  1  0  0  0  0
 20 21  1  0  0  0  0
 20 22  1  0  0  0  0
 20 23  1  0  0  0  0
 17 18  1  0  0  0  0
 17 19  1  0  0  0  0
 17 20  1  0  0  0  0
 13 14  1  0  0  0  0
 13 15  1  0  0  0  0
 13 16  1  0  0  0  0
 11 12  1  0  0  0  0
 11 13  1  0  0  0  0
 11 17  1  0  0  0  0
  9 10  1  0  0  0  0
  9 11  1  0  0  0  0
  9 24  1  0  0  0  0
  7  8  1  0  0  0  0
  7  9  1  0  0  0  0
 28 29  1  0  0  0  0
 28 30  1  0  0  0  0
 28 31  1  0  0  0  0
 26 27  1  0  0  0  0
 26 28  1  0  0  0  0
M  END
$$$$
default_name
  -OEChem-02102213163D

 31 30  0     1  0  0  0  0  0999 V2000
   -3.0760   -3.6390    1.5496 H   0  0  0  0  0  0  0  0  0  0  0  0
   -3.0940   -2.6290    1.1426 C   0  0  0  0  0  0  0  0  0  0  0  0
   -3.7160   -1.9930    1.7706 H   0  0  0  0  0  0  0  0  0  0  0  0
   -3.4880   -2.6500    0.1286 H   0  0  0  0  0  0  0  0  0  0  0  0
   -1.6860   -2.0850    1.1196 C   0  0  0  0  0  0  0  0  0  0  0  0
   -0.7540   -2.7700    1.5226 O   0  0  0  0  0  0  0  0  0  0  0  0
   -1.5320   -0.8490    0.6496 N   0  0  0  0  0  0  0  0  0  0  0  0
   -2.3500   -0.3360    0.3566 H   0  0  0  0  0  0  0  0  0  0  0  0
   -0.2470   -0.1410    0.5576 C   0  0  1  0  0  0  0  0  0  0  0  0
    0.4239   -0.7541   -0.0450 H   0  0  0  0  0  0  0  0  0  0  0  0
   -0.4317    1.2160   -0.1683 C   0  0  1  0  0  0  0  0  0  0  0  0
   -1.5056    1.3994   -0.2390 H   0  0  0  0  0  0  0  0  0  0  0  0
    0.1940    2.3894    0.6096 C   0  0  0  0  0  0  0  0  0  0  0  0
    1.2806    2.2919    0.6431 H   0  0  0  0  0  0  0  0  0  0  0  0
   -0.0637    3.3363    0.1378 H   0  0  0  0  0  0  0  0  0  0  0  0
   -0.1888    2.4112    1.6305 H   0  0  0  0  0  0  0  0  0  0  0  0
    0.1204    1.1527   -1.6101 C   0  0  0  0  0  0  0  0  0  0  0  0
    0.0144    2.1254   -2.0923 H   0  0  0  0  0  0  0  0  0  0  0  0
    1.1811    0.9052   -1.5689 H   0  0  0  0  0  0  0  0  0  0  0  0
   -0.5628    0.0944   -2.4869 C   0  0  0  0  0  0  0  0  0  0  0  0
   -1.6091    0.3516   -2.6511 H   0  0  0  0  0  0  0  0  0  0  0  0
   -0.0609    0.0500   -3.4537 H   0  0  0  0  0  0  0  0  0  0  0  0
   -0.4986   -0.8838   -2.0092 H   0  0  0  0  0  0  0  0  0  0  0  0
    0.3833   -0.0008    1.9525 C   0  0  0  0  0  0  0  0  0  0  0  0
    1.5803   -0.2304    2.1189 O   0  0  0  0  0  0  0  0  0  0  0  0
   -0.4170    0.3858    2.9541 N   0  0  0  0  0  0  0  0  0  0  0  0
   -1.3850    0.5669    2.7398 H   0  0  0  0  0  0  0  0  0  0  0  0
    0.0265    0.5600    4.3358 C   0  0  0  0  0  0  0  0  0  0  0  0
    0.8964    1.2200    4.3632 H   0  0  0  0  0  0  0  0  0  0  0  0
   -0.7726    0.9946    4.9382 H   0  0  0  0  0  0  0  0  0  0  0  0
    0.3119   -0.4069    4.7547 H   0  0  0  0  0  0  0  0  0  0  0  0
  5  6  2  0  0  0  0
  5  7  1  0  0  0  0
  2  3  1  0  0  0  0
  2  4  1  0  0  0  0
  2  5  1  0  0  0  0
  1  2  1  0  0  0  0
 24 25  2  0  0  0  0
 24 26  1  0  0  0  0
 20 21  1  0  0  0  0
 20 22  1  0  0  0  0
 20 23  1  0  0  0  0
 17 18  1  0  0  0  0
 17 19  1  0  0  0  0
 17 20  1  0  0  0  0
 13 14  1  0  0  0  0
 13 15  1  0  0  0  0
 13 16  1  0  0  0  0
 11 12  1  0  0  0  0
 11 13  1  0  0  0  0
 11 17  1  0  0  0  0
  9 10  1  0  0  0  0
  9 11  1  0  0  0  0
  9 24  1  0  0  0  0
  7  8  1  0  0  0  0
  7  9  1  0  0  0  0
 28 29  1  0  0  0  0
 28 30  1  0  0  0  0
 28 31  1  0  0  0  0
 26 27  1  0  0  0  0
 26 28  1  0  0  0  0
M  END
$$$$
default_name
  -OEChem-02102213163D

 31 30  0     1  0  0  0  0  0999 V2000
   -3.0760   -3.6390    1.5496 H   0  0  0  0  0  0  0  0  0  0  0  0
   -3.0940   -2.6290    1.1426 C   0  0  0  0  0  0  0  0  0  0  0  0
   -3.7160   -1.9930    1.7706 H   0  0  0  0  0  0  0  0  0  0  0  0
   -3.4880   -2.6500    0.1286 H   0  0  0  0  0  0  0  0  0  0  0  0
   -1.6860   -2.0850    1.1196 C   0  0  0  0  0  0  0  0  0  0  0  0
   -0.7540   -2.7700    1.5226 O   0  0  0  0  0  0  0  0  0  0  0  0
   -1.5320   -0.8490    0.6496 N   0  0  0  0  0  0  0  0  0  0  0  0
   -2.3500   -0.3360    0.3566 H   0  0  0  0  0  0  0  0  0  0  0  0
   -0.2470   -0.1410    0.5576 C   0  0  1  0  0  0  0  0  0  0  0  0
    0.4239   -0.7541   -0.0450 H   0  0  0  0  0  0  0  0  0  0  0  0
   -0.4317    1.2160   -0.1683 C   0  0  1  0  0  0  0  0  0  0  0  0
   -1.5056    1.3994   -0.2390 H   0  0  0  0  0  0  0  0  0  0  0  0
    0.1940    2.3894    0.6096 C   0  0  0  0  0  0  0  0  0  0  0  0
    1.2806    2.2919    0.6431 H   0  0  0  0  0  0  0  0  0  0  0  0
   -0.0637    3.3363    0.1378 H   0  0  0  0  0  0  0  0  0  0  0  0
   -0.1888    2.4112    1.6305 H   0  0  0  0  0  0  0  0  0  0  0  0
    0.1204    1.1527   -1.6101 C   0  0  0  0  0  0  0  0  0  0  0  0
    0.2625    2.1619   -1.9988 H   0  0  0  0  0  0  0  0  0  0  0  0
    1.0890    0.6531   -1.5931 H   0  0  0  0  0  0  0  0  0  0  0  0
   -0.7783    0.3757   -2.5817 C   0  0  0  0  0  0  0  0  0  0  0  0
   -1.7279    0.8923   -2.7204 H   0  0  0  0  0  0  0  0  0  0  0  0
   -0.2807    0.2995   -3.5488 H   0  0  0  0  0  0  0  0  0  0  0  0
   -0.9623   -0.6284   -2.1979 H   0  0  0  0  0  0  0  0  0  0  0  0
    0.3833   -0.0008    1.9525 C   0  0  0  0  0  0  0  0  0  0  0  0
    1.5803   -0.2304    2.1189 O   0  0  0  0  0  0  0  0  0  0  0  0
   -0.4170    0.3858    2.9541 N   0  0  0  0  0  0  0  0  0  0  0  0
   -1.3850    0.5669    2.7398 H   0  0  0  0  0  0  0  0  0  0  0  0
    0.0265    0.5600    4.3358 C   0  0  0  0  0  0  0  0  0  0  0  0
    0.8964    1.2200    4.3632 H   0  0  0  0  0  0  0  0  0  0  0  0
   -0.7726    0.9946    4.9382 H   0  0  0  0  0  0  0  0  0  0  0  0
    0.3119   -0.4069    4.7547 H   0  0  0  0  0  0  0  0  0  0  0  0
  5  6  2  0  0  0  0
  5  7  1  0  0  0  0
  2  3  1  0  0  0  0
  2  4  1  0  0  0  0
  2  5  1  0  0  0  0
  1  2  1  0  0  0  0
 24 25  2  0  0  0  0
 24 26  1  0  0  0  0
 20 21  1  0  0  0  0
 20 22  1  0  0  0  0
 20 23  1  0  0  0  0
 17 18  1  0  0  0  0
 17 19  1  0  0  0  0
 17 20  1  0  0  0  0
 13 14  1  0  0  0  0
 13 15  1  0  0  0  0
 13 16  1  0  0  0  0
 11 12  1  0  0  0  0
 11 13  1  0  0  0  0
 11 17  1  0  0  0  0
  9 10  1  0  0  0  0
  9 11  1  0  0  0  0
  9 24  1  0  0  0  0
  7  8  1  0  0  0  0
  7  9  1  0  0  0  0
 28 29  1  0  0  0  0
 28 30  1  0  0  0  0
 28 31  1  0  0  0  0
 26 27  1  0  0  0  0
 26 28  1  0  0  0  0
M  END
$$$$
default_name
  -OEChem-02102213163D

 31 30  0     1  0  0  0  0  0999 V2000
   -3.0760   -3.6390    1.5496 H   0  0  0  0  0  0  0  0  0  0  0  0
   -3.0940   -2.6290    1.1426 C   0  0  0  0  0  0  0  0  0  0  0  0
   -3.7160   -1.9930    1.7706 H   0  0  0  0  0  0  0  0  0  0  0  0
   -3.4880   -2.6500    0.1286 H   0  0  0  0  0  0  0  0  0  0  0  0
   -1.6860   -2.0850    1.1196 C   0  0  0  0  0  0  0  0  0  0  0  0
   -0.7540   -2.7700    1.5226 O   0  0  0  0  0  0  0  0  0  0  0  0
   -1.5320   -0.8490    0.6496 N   0  0  0  0  0  0  0  0  0  0  0  0
   -2.3500   -0.3360    0.3566 H   0  0  0  0  0  0  0  0  0  0  0  0
   -0.2470   -0.1410    0.5576 C   0  0  1  0  0  0  0  0  0  0  0  0
    0.4239   -0.7541   -0.0450 H   0  0  0  0  0  0  0  0  0  0  0  0
   -0.4317    1.2160   -0.1683 C   0  0  1  0  0  0  0  0  0  0  0  0
   -1.5056    1.3994   -0.2390 H   0  0  0  0  0  0  0  0  0  0  0  0
    0.1940    2.3894    0.6096 C   0  0  0  0  0  0  0  0  0  0  0  0
    1.2806    2.2919    0.6431 H   0  0  0  0  0  0  0  0  0  0  0  0
   -0.0637    3.3363    0.1378 H   0  0  0  0  0  0  0  0  0  0  0  0
   -0.1888    2.4112    1.6305 H   0  0  0  0  0  0  0  0  0  0  0  0
    0.1204    1.1527   -1.6101 C   0  0  0  0  0  0  0  0  0  0  0  0
    0.5101    2.1286   -1.9026 H   0  0  0  0  0  0  0  0  0  0  0  0
    0.9394    0.4342   -1.6407 H   0  0  0  0  0  0  0  0  0  0  0  0
   -0.9175    0.7082   -2.6496 C   0  0  0  0  0  0  0  0  0  0  0  0
   -1.7113    1.4496   -2.7385 H   0  0  0  0  0  0  0  0  0  0  0  0
   -0.4319    0.6023   -3.6200 H   0  0  0  0  0  0  0  0  0  0  0  0
   -1.3464   -0.2522   -2.3615 H   0  0  0  0  0  0  0  0  0  0  0  0
    0.3833   -0.0008    1.9525 C   0  0  0  0  0  0  0  0  0  0  0  0
    1.5803   -0.2304    2.1189 O   0  0  0  0  0  0  0  0  0  0  0  0
   -0.4170    0.3858    2.9541 N   0  0  0  0  0  0  0  0  0  0  0  0
   -1.3850    0.5669    2.7398 H   0  0  0  0  0  0  0  0  0  0  0  0
    0.0265    0.5600    4.3358 C   0  0  0  0  0  0  0  0  0  0  0  0
    0.8964    1.2200    4.3632 H   0  0  0  0  0  0  0  0  0  0  0  0
   -0.7726    0.9946    4.9382 H   0  0  0  0  0  0  0  0  0  0  0  0
    0.3119   -0.4069    4.7547 H   0  0  0  0  0  0  0  0  0  0  0  0
  5  6  2  0  0  0  0
  5  7  1  0  0  0  0
  2  3  1  0  0  0  0
  2  4  1  0  0  0  0
  2  5  1  0  0  0  0
  1  2  1  0  0  0  0
 24 25  2  0  0  0  0
 24 26  1  0  0  0  0
 20 21  1  0  0  0  0
 20 22  1  0  0  0  0
 20 23  1  0  0  0  0
 17 18  1  0  0  0  0
 17 19  1  0  0  0  0
 17 20  1  0  0  0  0
 13 14  1  0  0  0  0
 13 15  1  0  0  0  0
 13 16  1  0  0  0  0
 11 12  1  0  0  0  0
 11 13  1  0  0  0  0
 11 17  1  0  0  0  0
  9 10  1  0  0  0  0
  9 11  1  0  0  0  0
  9 24  1  0  0  0  0
  7  8  1  0  0  0  0
  7  9  1  0  0  0  0
 28 29  1  0  0  0  0
 28 30  1  0  0  0  0
 28 31  1  0  0  0  0
 26 27  1  0  0  0  0
 26 28  1  0  0  0  0
M  END
$$$$
default_name
  -OEChem-02102213163D

 31 30  0     1  0  0  0  0  0999 V2000
   -3.0760   -3.6390    1.5496 H   0  0  0  0  0  0  0  0  0  0  0  0
   -3.0940   -2.6290    1.1426 C   0  0  0  0  0  0  0  0  0  0  0  0
   -3.7160   -1.9930    1.7706 H   0  0  0  0  0  0  0  0  0  0  0  0
   -3.4880   -2.6500    0.1286 H   0  0  0  0  0  0  0  0  0  0  0  0
   -1.6860   -2.0850    1.1196 C   0  0  0  0  0  0  0  0  0  0  0  0
   -0.7540   -2.7700    1.5226 O   0  0  0  0  0  0  0  0  0  0  0  0
   -1.5320   -0.8490    0.6496 N   0  0  0  0  0  0  0  0  0  0  0  0
   -2.3500   -0.3360    0.3566 H   0  0  0  0  0  0  0  0  0  0  0  0
   -0.2470   -0.1410    0.5576 C   0  0  1  0  0  0  0  0  0  0  0  0
    0.4239   -0.7541   -0.0450 H   0  0  0  0  0  0  0  0  0  0  0  0
   -0.4317    1.2160   -0.1683 C   0  0  1  0  0  0  0  0  0  0  0  0
   -1.5056    1.3994   -0.2390 H   0  0  0  0  0  0  0  0  0  0  0  0
    0.1940    2.3894    0.6096 C   0  0  0  0  0  0  0  0  0  0  0  0
    1.2806    2.2919    0.6431 H   0  0  0  0  0  0  0  0  0  0  0  0
   -0.0637    3.3363    0.1378 H   0  0  0  0  0  0  0  0  0  0  0  0
   -0.1888    2.4112    1.6305 H   0  0  0  0  0  0  0  0  0  0  0  0
    0.1204    1.1527   -1.6101 C   0  0  0  0  0  0  0  0  0  0  0  0
    0.7401    2.0278   -1.8101 H   0  0  0  0  0  0  0  0  0  0  0  0
    0.7426    0.2632   -1.7086 H   0  0  0  0  0  0  0  0  0  0  0  0
   -0.9709    1.0692   -2.6859 C   0  0  0  0  0  0  0  0  0  0  0  0
   -1.5605    1.9857   -2.7043 H   0  0  0  0  0  0  0  0  0  0  0  0
   -0.5039    0.9379   -3.6623 H   0  0  0  0  0  0  0  0  0  0  0  0
   -1.6249    0.2190   -2.4888 H   0  0  0  0  0  0  0  0  0  0  0  0
    0.3833   -0.0008    1.9525 C   0  0  0  0  0  0  0  0  0  0  0  0
    1.5803   -0.2304    2.1189 O   0  0  0  0  0  0  0  0  0  0  0  0
   -0.4170    0.3858    2.9541 N   0  0  0  0  0  0  0  0  0  0  0  0
   -1.3850    0.5669    2.7398 H   0  0  0  0  0  0  0  0  0  0  0  0
    0.0265    0.5600    4.3358 C   0  0  0  0  0  0  0  0  0  0  0  0
    0.8964    1.2200    4.3632 H   0  0  0  0  0  0  0  0  0  0  0  0
   -0.7726    0.9946    4.9382 H   0  0  0  0  0  0  0  0  0  0  0  0
    0.3119   -0.4069    4.7547 H   0  0  0  0  0  0  0  0  0  0  0  0
  5  6  2  0  0  0  0
  5  7  1  0  0  0  0
  2  3  1  0  0  0  0
  2  4  1  0  0  0  0
  2  5  1  0  0  0  0
  1  2  1  0  0  0  0
 24 25  2  0  0  0  0
 24 26  1  0  0  0  0
 20 21  1  0  0  0  0
 20 22  1  0  0  0  0
 20 23  1  0  0  0  0
 17 18  1  0  0  0  0
 17 19  1  0  0  0  0
 17 20  1  0  0  0  0
 13 14  1  0  0  0  0
 13 15  1  0  0  0  0
 13 16  1  0  0  0  0
 11 12  1  0  0  0  0
 11 13  1  0  0  0  0
 11 17  1  0  0  0  0
  9 10  1  0  0  0  0
  9 11  1  0  0  0  0
  9 24  1  0  0  0  0
  7  8  1  0  0  0  0
  7  9  1  0  0  0  0
 28 29  1  0  0  0  0
 28 30  1  0  0  0  0
 28 31  1  0  0  0  0
 26 27  1  0  0  0  0
 26 28  1  0  0  0  0
M  END
$$$$
default_name
  -OEChem-02102213163D

 31 30  0     1  0  0  0  0  0999 V2000
   -3.0760   -3.6390    1.5496 H   0  0  0  0  0  0  0  0  0  0  0  0
   -3.0940   -2.6290    1.1426 C   0  0  0  0  0  0  0  0  0  0  0  0
   -3.7160   -1.9930    1.7706 H   0  0  0  0  0  0  0  0  0  0  0  0
   -3.4880   -2.6500    0.1286 H   0  0  0  0  0  0  0  0  0  0  0  0
   -1.6860   -2.0850    1.1196 C   0  0  0  0  0  0  0  0  0  0  0  0
   -0.7540   -2.7700    1.5226 O   0  0  0  0  0  0  0  0  0  0  0  0
   -1.5320   -0.8490    0.6496 N   0  0  0  0  0  0  0  0  0  0  0  0
   -2.3500   -0.3360    0.3566 H   0  0  0  0  0  0  0  0  0  0  0  0
   -0.2470   -0.1410    0.5576 C   0  0  1  0  0  0  0  0  0  0  0  0
    0.4239   -0.7541   -0.0450 H   0  0  0  0  0  0  0  0  0  0  0  0
   -0.4317    1.2160   -0.1683 C   0  0  1  0  0  0  0  0  0  0  0  0
   -1.5056    1.3994   -0.2390 H   0  0  0  0  0  0  0  0  0  0  0  0
    0.1940    2.3894    0.6096 C   0  0  0  0  0  0  0  0  0  0  0  0
    1.2806    2.2919    0.6431 H   0  0  0  0  0  0  0  0  0  0  0  0
   -0.0637    3.3363    0.1378 H   0  0  0  0  0  0  0  0  0  0  0  0
   -0.1888    2.4112    1.6305 H   0  0  0  0  0  0  0  0  0  0  0  0
    0.1204    1.1527   -1.6101 C   0  0  0  0  0  0  0  0  0  0  0  0
    0.9370    1.8662   -1.7276 H   0  0  0  0  0  0  0  0  0  0  0  0
    0.5119    0.1518   -1.7921 H   0  0  0  0  0  0  0  0  0  0  0  0
   -0.9350    1.4343   -2.6882 C   0  0  0  0  0  0  0  0  0  0  0  0
   -1.2858    2.4639   -2.6201 H   0  0  0  0  0  0  0  0  0  0  0  0
   -0.4921    1.2834   -3.6729 H   0  0  0  0  0  0  0  0  0  0  0  0
   -1.7787    0.7533   -2.5712 H   0  0  0  0  0  0  0  0  0  0  0  0
    0.3833   -0.0008    1.9525 C   0  0  0  0  0  0  0  0  0  0  0  0
    1.5803   -0.2304    2.1189 O   0  0  0  0  0  0  0  0  0  0  0  0
   -0.4170    0.3858    2.9541 N   0  0  0  0  0  0  0  0  0  0  0  0
   -1.3850    0.5669    2.7398 H   0  0  0  0  0  0  0  0  0  0  0  0
    0.0265    0.5600    4.3358 C   0  0  0  0  0  0  0  0  0  0  0  0
    0.8964    1.2200    4.3632 H   0  0  0  0  0  0  0  0  0  0  0  0
   -0.7726    0.9946    4.9382 H   0  0  0  0  0  0  0  0  0  0  0  0
    0.3119   -0.4069    4.7547 H   0  0  0  0  0  0  0  0  0  0  0  0
  5  6  2  0  0  0  0
  5  7  1  0  0  0  0
  2  3  1  0  0  0  0
  2  4  1  0  0  0  0
  2  5  1  0  0  0  0
  1  2  1  0  0  0  0
 24 25  2  0  0  0  0
 24 26  1  0  0  0  0
 20 21  1  0  0  0  0
 20 22  1  0  0  0  0
 20 23  1  0  0  0  0
 17 18  1  0  0  0  0
 17 19  1  0  0  0  0
 17 20  1  0  0  0  0
 13 14  1  0  0  0  0
 13 15  1  0  0  0  0
 13 16  1  0  0  0  0
 11 12  1  0  0  0  0
 11 13  1  0  0  0  0
 11 17  1  0  0  0  0
  9 10  1  0  0  0  0
  9 11  1  0  0  0  0
  9 24  1  0  0  0  0
  7  8  1  0  0  0  0
  7  9  1  0  0  0  0
 28 29  1  0  0  0  0
 28 30  1  0  0  0  0
 28 31  1  0  0  0  0
 26 27  1  0  0  0  0
 26 28  1  0  0  0  0
M  END
$$$$
default_name
  -OEChem-02102213163D

 31 30  0     1  0  0  0  0  0999 V2000
   -3.0760   -3.6390    1.5496 H   0  0  0  0  0  0  0  0  0  0  0  0
   -3.0940   -2.6290    1.1426 C   0  0  0  0  0  0  0  0  0  0  0  0
   -3.7160   -1.9930    1.7706 H   0  0  0  0  0  0  0  0  0  0  0  0
   -3.4880   -2.6500    0.1286 H   0  0  0  0  0  0  0  0  0  0  0  0
   -1.6860   -2.0850    1.1196 C   0  0  0  0  0  0  0  0  0  0  0  0
   -0.7540   -2.7700    1.5226 O   0  0  0  0  0  0  0  0  0  0  0  0
   -1.5320   -0.8490    0.6496 N   0  0  0  0  0  0  0  0  0  0  0  0
   -2.3500   -0.3360    0.3566 H   0  0  0  0  0  0  0  0  0  0  0  0
   -0.2470   -0.1410    0.5576 C   0  0  1  0  0  0  0  0  0  0  0  0
    0.4239   -0.7541   -0.0450 H   0  0  0  0  0  0  0  0  0  0  0  0
   -0.4317    1.2160   -0.1683 C   0  0  1  0  0  0  0  0  0  0  0  0
   -1.5056    1.3994   -0.2390 H   0  0  0  0  0  0  0  0  0  0  0  0
    0.1940    2.3894    0.6096 C   0  0  0  0  0  0  0  0  0  0  0  0
    1.2806    2.2919    0.6431 H   0  0  0  0  0  0  0  0  0  0  0  0
   -0.0637    3.3363    0.1378 H   0  0  0  0  0  0  0  0  0  0  0  0
   -0.1888    2.4112    1.6305 H   0  0  0  0  0  0  0  0  0  0  0  0
    0.1204    1.1527   -1.6101 C   0  0  0  0  0  0  0  0  0  0  0  0
    1.0873    1.6551   -1.6608 H   0  0  0  0  0  0  0  0  0  0  0  0
    0.2631    0.1077   -1.8854 H   0  0  0  0  0  0  0  0  0  0  0  0
   -0.8121    1.7784   -2.6562 C   0  0  0  0  0  0  0  0  0  0  0  0
   -0.9058    2.8516   -2.4916 H   0  0  0  0  0  0  0  0  0  0  0  0
   -0.3971    1.6152   -3.6511 H   0  0  0  0  0  0  0  0  0  0  0  0
   -1.7974    1.3141   -2.6029 H   0  0  0  0  0  0  0  0  0  0  0  0
    0.3833   -0.0008    1.9525 C   0  0  0  0  0  0  0  0  0  0  0  0
    1.5803   -0.2304    2.1189 O   0  0  0  0  0  0  0  0  0  0  0  0
   -0.4170    0.3858    2.9541 N   0  0  0  0  0  0  0  0  0  0  0  0
   -1.3850    0.5669    2.7398 H   0  0  0  0  0  0  0  0  0  0  0  0
    0.0265    0.5600    4.3358 C   0  0  0  0  0  0  0  0  0  0  0  0
    0.8964    1.2200    4.3632 H   0  0  0  0  0  0  0  0  0  0  0  0
   -0.7726    0.9946    4.9382 H   0  0  0  0  0  0  0  0  0  0  0  0
    0.3119   -0.4069    4.7547 H   0  0  0  0  0  0  0  0  0  0  0  0
  5  6  2  0  0  0  0
  5  7  1  0  0  0  0
  2  3  1  0  0  0  0
  2  4  1  0  0  0  0
  2  5  1  0  0  0  0
  1  2  1  0  0  0  0
 24 25  2  0  0  0  0
 24 26  1  0  0  0  0
 20 21  1  0  0  0  0
 20 22  1  0  0  0  0
 20 23  1  0  0  0  0
 17 18  1  0  0  0  0
 17 19  1  0  0  0  0
 17 20  1  0  0  0  0
 13 14  1  0  0  0  0
 13 15  1  0  0  0  0
 13 16  1  0  0  0  0
 11 12  1  0  0  0  0
 11 13  1  0  0  0  0
 11 17  1  0  0  0  0
  9 10  1  0  0  0  0
  9 11  1  0  0  0  0
  9 24  1  0  0  0  0
  7  8  1  0  0  0  0
  7  9  1  0  0  0  0
 28 29  1  0  0  0  0
 28 30  1  0  0  0  0
 28 31  1  0  0  0  0
 26 27  1  0  0  0  0
 26 28  1  0  0  0  0
M  END
$$$$
default_name
  -OEChem-02102213163D

 31 30  0     1  0  0  0  0  0999 V2000
   -3.0760   -3.6390    1.5496 H   0  0  0  0  0  0  0  0  0  0  0  0
   -3.0940   -2.6290    1.1426 C   0  0  0  0  0  0  0  0  0  0  0  0
   -3.7160   -1.9930    1.7706 H   0  0  0  0  0  0  0  0  0  0  0  0
   -3.4880   -2.6500    0.1286 H   0  0  0  0  0  0  0  0  0  0  0  0
   -1.6860   -2.0850    1.1196 C   0  0  0  0  0  0  0  0  0  0  0  0
   -0.7540   -2.7700    1.5226 O   0  0  0  0  0  0  0  0  0  0  0  0
   -1.5320   -0.8490    0.6496 N   0  0  0  0  0  0  0  0  0  0  0  0
   -2.3500   -0.3360    0.3566 H   0  0  0  0  0  0  0  0  0  0  0  0
   -0.2470   -0.1410    0.5576 C   0  0  1  0  0  0  0  0  0  0  0  0
    0.4239   -0.7541   -0.0450 H   0  0  0  0  0  0  0  0  0  0  0  0
   -0.4317    1.2160   -0.1683 C   0  0  1  0  0  0  0  0  0  0  0  0
   -1.5056    1.3994   -0.2390 H   0  0  0  0  0  0  0  0  0  0  0  0
    0.1940    2.3894    0.6096 C   0  0  0  0  0  0  0  0  0  0  0  0
    1.2806    2.2919    0.6431 H   0  0  0  0  0  0  0  0  0  0  0  0
   -0.0637    3.3363    0.1378 H   0  0  0  0  0  0  0  0  0  0  0  0
   -0.1888    2.4112    1.6305 H   0  0  0  0  0  0  0  0  0  0  0  0
    0.1204    1.1527   -1.6101 C   0  0  0  0  0  0  0  0  0  0  0  0
    1.1807    1.4086   -1.6142 H   0  0  0  0  0  0  0  0  0  0  0  0
    0.0130    0.1338   -1.9823 H   0  0  0  0  0  0  0  0  0  0  0  0
   -0.6106    2.0781   -2.5922 C   0  0  0  0  0  0  0  0  0  0  0  0
   -0.4465    3.1225   -2.3276 H   0  0  0  0  0  0  0  0  0  0  0  0
   -0.2254    1.9108   -3.5983 H   0  0  0  0  0  0  0  0  0  0  0  0
   -1.6797    1.8632   -2.5820 H   0  0  0  0  0  0  0  0  0  0  0  0
    0.3833   -0.0008    1.9525 C   0  0  0  0  0  0  0  0  0  0  0  0
    1.5803   -0.2304    2.1189 O   0  0  0  0  0  0  0  0  0  0  0  0
   -0.4170    0.3858    2.9541 N   0  0  0  0  0  0  0  0  0  0  0  0
   -1.3850    0.5669    2.7398 H   0  0  0  0  0  0  0  0  0  0  0  0
    0.0265    0.5600    4.3358 C   0  0  0  0  0  0  0  0  0  0  0  0
    0.8964    1.2200    4.3632 H   0  0  0  0  0  0  0  0  0  0  0  0
   -0.7726    0.9946    4.9382 H   0  0  0  0  0  0  0  0  0  0  0  0
    0.3119   -0.4069    4.7547 H   0  0  0  0  0  0  0  0  0  0  0  0
  5  6  2  0  0  0  0
  5  7  1  0  0  0  0
  2  3  1  0  0  0  0
  2  4  1  0  0  0  0
  2  5  1  0  0  0  0
  1  2  1  0  0  0  0
 24 25  2  0  0  0  0
 24 26  1  0  0  0  0
 20 21  1  0  0  0  0
 20 22  1  0  0  0  0
 20 23  1  0  0  0  0
 17 18  1  0  0  0  0
 17 19  1  0  0  0  0
 17 20  1  0  0  0  0
 13 14  1  0  0  0  0
 13 15  1  0  0  0  0
 13 16  1  0  0  0  0
 11 12  1  0  0  0  0
 11 13  1  0  0  0  0
 11 17  1  0  0  0  0
  9 10  1  0  0  0  0
  9 11  1  0  0  0  0
  9 24  1  0  0  0  0
  7  8  1  0  0  0  0
  7  9  1  0  0  0  0
 28 29  1  0  0  0  0
 28 30  1  0  0  0  0
 28 31  1  0  0  0  0
 26 27  1  0  0  0  0
 26 28  1  0  0  0  0
M  END
$$$$
default_name
  -OEChem-02102213163D

 31 30  0     1  0  0  0  0  0999 V2000
   -3.0760   -3.6390    1.5496 H   0  0  0  0  0  0  0  0  0  0  0  0
   -3.0940   -2.6290    1.1426 C   0  0  0  0  0  0  0  0  0  0  0  0
   -3.7160   -1.9930    1.7706 H   0  0  0  0  0  0  0  0  0  0  0  0
   -3.4880   -2.6500    0.1286 H   0  0  0  0  0  0  0  0  0  0  0  0
   -1.6860   -2.0850    1.1196 C   0  0  0  0  0  0  0  0  0  0  0  0
   -0.7540   -2.7700    1.5226 O   0  0  0  0  0  0  0  0  0  0  0  0
   -1.5320   -0.8490    0.6496 N   0  0  0  0  0  0  0  0  0  0  0  0
   -2.3500   -0.3360    0.3566 H   0  0  0  0  0  0  0  0  0  0  0  0
   -0.2470   -0.1410    0.5576 C   0  0  1  0  0  0  0  0  0  0  0  0
    0.4239   -0.7541   -0.0450 H   0  0  0  0  0  0  0  0  0  0  0  0
   -0.4317    1.2160   -0.1683 C   0  0  1  0  0  0  0  0  0  0  0  0
   -1.5056    1.3994   -0.2390 H   0  0  0  0  0  0  0  0  0  0  0  0
    0.1940    2.3894    0.6096 C   0  0  0  0  0  0  0  0  0  0  0  0
    1.2806    2.2919    0.6431 H   0  0  0  0  0  0  0  0  0  0  0  0
   -0.0637    3.3363    0.1378 H   0  0  0  0  0  0  0  0  0  0  0  0
   -0.1888    2.4112    1.6305 H   0  0  0  0  0  0  0  0  0  0  0  0
    0.1204    1.1527   -1.6101 C   0  0  0  0  0  0  0  0  0  0  0  0
    1.2110    1.1436   -1.5910 H   0  0  0  0  0  0  0  0  0  0  0  0
   -0.2212    0.2284   -2.0761 H   0  0  0  0  0  0  0  0  0  0  0  0
   -0.3442    2.3130   -2.5006 C   0  0  0  0  0  0  0  0  0  0  0  0
    0.0609    3.2581   -2.1393 H   0  0  0  0  0  0  0  0  0  0  0  0
    0.0113    2.1499   -3.5182 H   0  0  0  0  0  0  0  0  0  0  0  0
   -1.4336    2.3632   -2.5097 H   0  0  0  0  0  0  0  0  0  0  0  0
    0.3833   -0.0008    1.9525 C   0  0  0  0  0  0  0  0  0  0  0  0
    1.5803   -0.2304    2.1189 O   0  0  0  0  0  0  0  0  0  0  0  0
   -0.4170    0.3858    2.9541 N   0  0  0  0  0  0  0  0  0  0  0  0
   -1.3850    0.5669    2.7398 H   0  0  0  0  0  0  0  0  0  0  0  0
    0.0265    0.5600    4.3358 C   0  0  0  0  0  0  0  0  0  0  0  0
    0.8964    1.2200    4.3632 H   0  0  0  0  0  0  0  0  0  0  0  0
   -0.7726    0.9946    4.9382 H   0  0  0  0  0  0  0  0  0  0  0  0
    0.3119   -0.4069    4.7547 H   0  0  0  0  0  0  0  0  0  0  0  0
  5  6  2  0  0  0  0
  5  7  1  0  0  0  0
  2  3  1  0  0  0  0
  2  4  1  0  0  0  0
  2  5  1  0  0  0  0
  1  2  1  0  0  0  0
 24 25  2  0  0  0  0
 24 26  1  0  0  0  0
 20 21  1  0  0  0  0
 20 22  1  0  0  0  0
 20 23  1  0  0  0  0
 17 18  1  0  0  0  0
 17 19  1  0  0  0  0
 17 20  1  0  0  0  0
 13 14  1  0  0  0  0
 13 15  1  0  0  0  0
 13 16  1  0  0  0  0
 11 12  1  0  0  0  0
 11 13  1  0  0  0  0
 11 17  1  0  0  0  0
  9 10  1  0  0  0  0
  9 11  1  0  0  0  0
  9 24  1  0  0  0  0
  7  8  1  0  0  0  0
  7  9  1  0  0  0  0
 28 29  1  0  0  0  0
 28 30  1  0  0  0  0
 28 31  1  0  0  0  0
 26 27  1  0  0  0  0
 26 28  1  0  0  0  0
M  END
$$$$
default_name
  -OEChem-02102213163D

 31 30  0     1  0  0  0  0  0999 V2000
   -3.0760   -3.6390    1.5496 H   0  0  0  0  0  0  0  0  0  0  0  0
   -3.0940   -2.6290    1.1426 C   0  0  0  0  0  0  0  0  0  0  0  0
   -3.7160   -1.9930    1.7706 H   0  0  0  0  0  0  0  0  0  0  0  0
   -3.4880   -2.6500    0.1286 H   0  0  0  0  0  0  0  0  0  0  0  0
   -1.6860   -2.0850    1.1196 C   0  0  0  0  0  0  0  0  0  0  0  0
   -0.7540   -2.7700    1.5226 O   0  0  0  0  0  0  0  0  0  0  0  0
   -1.5320   -0.8490    0.6496 N   0  0  0  0  0  0  0  0  0  0  0  0
   -2.3500   -0.3360    0.3566 H   0  0  0  0  0  0  0  0  0  0  0  0
   -0.2470   -0.1410    0.5576 C   0  0  1  0  0  0  0  0  0  0  0  0
    0.4239   -0.7541   -0.0450 H   0  0  0  0  0  0  0  0  0  0  0  0
   -0.4317    1.2160   -0.1683 C   0  0  1  0  0  0  0  0  0  0  0  0
   -1.4641    1.5307   -0.0041 H   0  0  0  0  0  0  0  0  0  0  0  0
    0.4888    2.3151    0.3957 C   0  0  0  0  0  0  0  0  0  0  0  0
    1.5351    2.0833    0.1886 H   0  0  0  0  0  0  0  0  0  0  0  0
    0.2434    3.2786   -0.0480 H   0  0  0  0  0  0  0  0  0  0  0  0
    0.3547    2.4017    1.4746 H   0  0  0  0  0  0  0  0  0  0  0  0
   -0.2351    1.0600   -1.6930 C   0  0  0  0  0  0  0  0  0  0  0  0
    0.7568    0.6563   -1.9009 H   0  0  0  0  0  0  0  0  0  0  0  0
   -0.9768    0.3570   -2.0721 H   0  0  0  0  0  0  0  0  0  0  0  0
   -0.4045    2.3698   -2.4745 C   0  0  0  0  0  0  0  0  0  0  0  0
    0.3822    3.0766   -2.2112 H   0  0  0  0  0  0  0  0  0  0  0  0
   -0.3403    2.1619   -3.5428 H   0  0  0  0  0  0  0  0  0  0  0  0
   -1.3781    2.8106   -2.2573 H   0  0  0  0  0  0  0  0  0  0  0  0
    0.3833   -0.0008    1.9525 C   0  0  0  0  0  0  0  0  0  0  0  0
    1.5803   -0.2304    2.1189 O   0  0  0  0  0  0  0  0  0  0  0  0
   -0.4170    0.3858    2.9541 N   0  0  0  0  0  0  0  0  0  0  0  0
   -1.3850    0.5669    2.7398 H   0  0  0  0  0  0  0  0  0  0  0  0
    0.0265    0.5600    4.3358 C   0  0  0  0  0  0  0  0  0  0  0  0
    0.8964    1.2200    4.3632 H   0  0  0  0  0  0  0  0  0  0  0  0
   -0.7726    0.9946    4.9382 H   0  0  0  0  0  0  0  0  0  0  0  0
    0.3119   -0.4069    4.7547 H   0  0  0  0  0  0  0  0  0  0  0  0
  5  6  2  0  0  0  0
  5  7  1  0  0  0  0
  2  3  1  0  0  0  0
  2  4  1  0  0  0  0
  2  5  1  0  0  0  0
  1  2  1  0  0  0  0
 24 25  2  0  0  0  0
 24 26  1  0  0  0  0
 20 21  1  0  0  0  0
 20 22  1  0  0  0  0
 20 23  1  0  0  0  0
 17 18  1  0  0  0  0
 17 19  1  0  0  0  0
 17 20  1  0  0  0  0
 13 14  1  0  0  0  0
 13 15  1  0  0  0  0
 13 16  1  0  0  0  0
 11 12  1  0  0  0  0
 11 13  1  0  0  0  0
 11 17  1  0  0  0  0
  9 10  1  0  0  0  0
  9 11  1  0  0  0  0
  9 24  1  0  0  0  0
  7  8  1  0  0  0  0
  7  9  1  0  0  0  0
 28 29  1  0  0  0  0
 28 30  1  0  0  0  0
 28 31  1  0  0  0  0
 26 27  1  0  0  0  0
 26 28  1  0  0  0  0
M  END
$$$$
default_name
  -OEChem-02102213163D

 31 30  0     1  0  0  0  0  0999 V2000
   -3.0760   -3.6390    1.5496 H   0  0  0  0  0  0  0  0  0  0  0  0
   -3.0940   -2.6290    1.1426 C   0  0  0  0  0  0  0  0  0  0  0  0
   -3.7160   -1.9930    1.7706 H   0  0  0  0  0  0  0  0  0  0  0  0
   -3.4880   -2.6500    0.1286 H   0  0  0  0  0  0  0  0  0  0  0  0
   -1.6860   -2.0850    1.1196 C   0  0  0  0  0  0  0  0  0  0  0  0
   -0.7540   -2.7700    1.5226 O   0  0  0  0  0  0  0  0  0  0  0  0
   -1.5320   -0.8490    0.6496 N   0  0  0  0  0  0  0  0  0  0  0  0
   -2.3500   -0.3360    0.3566 H   0  0  0  0  0  0  0  0  0  0  0  0
   -0.2470   -0.1410    0.5576 C   0  0  1  0  0  0  0  0  0  0  0  0
    0.4239   -0.7541   -0.0450 H   0  0  0  0  0  0  0  0  0  0  0  0
   -0.4317    1.2160   -0.1683 C   0  0  1  0  0  0  0  0  0  0  0  0
   -1.4641    1.5307   -0.0041 H   0  0  0  0  0  0  0  0  0  0  0  0
    0.4888    2.3151    0.3957 C   0  0  0  0  0  0  0  0  0  0  0  0
    1.5351    2.0833    0.1886 H   0  0  0  0  0  0  0  0  0  0  0  0
    0.2434    3.2786   -0.0480 H   0  0  0  0  0  0  0  0  0  0  0  0
    0.3547    2.4017    1.4746 H   0  0  0  0  0  0  0  0  0  0  0  0
   -0.2351    1.0600   -1.6930 C   0  0  0  0  0  0  0  0  0  0  0  0
    0.6269    0.4224   -1.8937 H   0  0  0  0  0  0  0  0  0  0  0  0
   -1.1196    0.5816   -2.1135 H   0  0  0  0  0  0  0  0  0  0  0  0
   -0.0411    2.3921   -2.4299 C   0  0  0  0  0  0  0  0  0  0  0  0
    0.8914    2.8660   -2.1240 H   0  0  0  0  0  0  0  0  0  0  0  0
    0.0004    2.2063   -3.5034 H   0  0  0  0  0  0  0  0  0  0  0  0
   -0.8763    3.0606   -2.2181 H   0  0  0  0  0  0  0  0  0  0  0  0
    0.3833   -0.0008    1.9525 C   0  0  0  0  0  0  0  0  0  0  0  0
    1.5803   -0.2304    2.1189 O   0  0  0  0  0  0  0  0  0  0  0  0
   -0.4170    0.3858    2.9541 N   0  0  0  0  0  0  0  0  0  0  0  0
   -1.3850    0.5669    2.7398 H   0  0  0  0  0  0  0  0  0  0  0  0
    0.0265    0.5600    4.3358 C   0  0  0  0  0  0  0  0  0  0  0  0
    0.8964    1.2200    4.3632 H   0  0  0  0  0  0  0  0  0  0  0  0
   -0.7726    0.9946    4.9382 H   0  0  0  0  0  0  0  0  0  0  0  0
    0.3119   -0.4069    4.7547 H   0  0  0  0  0  0  0  0  0  0  0  0
  5  6  2  0  0  0  0
  5  7  1  0  0  0  0
  2  3  1  0  0  0  0
  2  4  1  0  0  0  0
  2  5  1  0  0  0  0
  1  2  1  0  0  0  0
 24 25  2  0  0  0  0
 24 26  1  0  0  0  0
 20 21  1  0  0  0  0
 20 22  1  0  0  0  0
 20 23  1  0  0  0  0
 17 18  1  0  0  0  0
 17 19  1  0  0  0  0
 17 20  1  0  0  0  0
 13 14  1  0  0  0  0
 13 15  1  0  0  0  0
 13 16  1  0  0  0  0
 11 12  1  0  0  0  0
 11 13  1  0  0  0  0
 11 17  1  0  0  0  0
  9 10  1  0  0  0  0
  9 11  1  0  0  0  0
  9 24  1  0  0  0  0
  7  8  1  0  0  0  0
  7  9  1  0  0  0  0
 28 29  1  0  0  0  0
 28 30  1  0  0  0  0
 28 31  1  0  0  0  0
 26 27  1  0  0  0  0
 26 28  1  0  0  0  0
M  END
$$$$
default_name
  -OEChem-02102213163D

 31 30  0     1  0  0  0  0  0999 V2000
   -3.0760   -3.6390    1.5496 H   0  0  0  0  0  0  0  0  0  0  0  0
   -3.0940   -2.6290    1.1426 C   0  0  0  0  0  0  0  0  0  0  0  0
   -3.7160   -1.9930    1.7706 H   0  0  0  0  0  0  0  0  0  0  0  0
   -3.4880   -2.6500    0.1286 H   0  0  0  0  0  0  0  0  0  0  0  0
   -1.6860   -2.0850    1.1196 C   0  0  0  0  0  0  0  0  0  0  0  0
   -0.7540   -2.7700    1.5226 O   0  0  0  0  0  0  0  0  0  0  0  0
   -1.5320   -0.8490    0.6496 N   0  0  0  0  0  0  0  0  0  0  0  0
   -2.3500   -0.3360    0.3566 H   0  0  0  0  0  0  0  0  0  0  0  0
   -0.2470   -0.1410    0.5576 C   0  0  1  0  0  0  0  0  0  0  0  0
    0.4239   -0.7541   -0.0450 H   0  0  0  0  0  0  0  0  0  0  0  0
   -0.4317    1.2160   -0.1683 C   0  0  1  0  0  0  0  0  0  0  0  0
   -1.4641    1.5307   -0.0041 H   0  0  0  0  0  0  0  0  0  0  0  0
    0.4888    2.3151    0.3957 C   0  0  0  0  0  0  0  0  0  0  0  0
    1.5351    2.0833    0.1886 H   0  0  0  0  0  0  0  0  0  0  0  0
    0.2434    3.2786   -0.0480 H   0  0  0  0  0  0  0  0  0  0  0  0
    0.3547    2.4017    1.4746 H   0  0  0  0  0  0  0  0  0  0  0  0
   -0.2351    1.0600   -1.6930 C   0  0  0  0  0  0  0  0  0  0  0  0
    0.4416    0.2293   -1.8979 H   0  0  0  0  0  0  0  0  0  0  0  0
   -1.1991    0.8365   -2.1498 H   0  0  0  0  0  0  0  0  0  0  0  0
    0.3144    2.3193   -2.3766 C   0  0  0  0  0  0  0  0  0  0  0  0
    1.3272    2.5297   -2.0333 H   0  0  0  0  0  0  0  0  0  0  0  0
    0.3398    2.1609   -3.4550 H   0  0  0  0  0  0  0  0  0  0  0  0
   -0.3288    3.1727   -2.1590 H   0  0  0  0  0  0  0  0  0  0  0  0
    0.3833   -0.0008    1.9525 C   0  0  0  0  0  0  0  0  0  0  0  0
    1.5803   -0.2304    2.1189 O   0  0  0  0  0  0  0  0  0  0  0  0
   -0.4170    0.3858    2.9541 N   0  0  0  0  0  0  0  0  0  0  0  0
   -1.3850    0.5669    2.7398 H   0  0  0  0  0  0  0  0  0  0  0  0
    0.0265    0.5600    4.3358 C   0  0  0  0  0  0  0  0  0  0  0  0
    0.8964    1.2200    4.3632 H   0  0  0  0  0  0  0  0  0  0  0  0
   -0.7726    0.9946    4.9382 H   0  0  0  0  0  0  0  0  0  0  0  0
    0.3119   -0.4069    4.7547 H   0  0  0  0  0  0  0  0  0  0  0  0
  5  6  2  0  0  0  0
  5  7  1  0  0  0  0
  2  3  1  0  0  0  0
  2  4  1  0  0  0  0
  2  5  1  0  0  0  0
  1  2  1  0  0  0  0
 24 25  2  0  0  0  0
 24 26  1  0  0  0  0
 20 21  1  0  0  0  0
 20 22  1  0  0  0  0
 20 23  1  0  0  0  0
 17 18  1  0  0  0  0
 17 19  1  0  0  0  0
 17 20  1  0  0  0  0
 13 14  1  0  0  0  0
 13 15  1  0  0  0  0
 13 16  1  0  0  0  0
 11 12  1  0  0  0  0
 11 13  1  0  0  0  0
 11 17  1  0  0  0  0
  9 10  1  0  0  0  0
  9 11  1  0  0  0  0
  9 24  1  0  0  0  0
  7  8  1  0  0  0  0
  7  9  1  0  0  0  0
 28 29  1  0  0  0  0
 28 30  1  0  0  0  0
 28 31  1  0  0  0  0
 26 27  1  0  0  0  0
 26 28  1  0  0  0  0
M  END
$$$$
default_name
  -OEChem-02102213163D

 31 30  0     1  0  0  0  0  0999 V2000
   -3.0760   -3.6390    1.5496 H   0  0  0  0  0  0  0  0  0  0  0  0
   -3.0940   -2.6290    1.1426 C   0  0  0  0  0  0  0  0  0  0  0  0
   -3.7160   -1.9930    1.7706 H   0  0  0  0  0  0  0  0  0  0  0  0
   -3.4880   -2.6500    0.1286 H   0  0  0  0  0  0  0  0  0  0  0  0
   -1.6860   -2.0850    1.1196 C   0  0  0  0  0  0  0  0  0  0  0  0
   -0.7540   -2.7700    1.5226 O   0  0  0  0  0  0  0  0  0  0  0  0
   -1.5320   -0.8490    0.6496 N   0  0  0  0  0  0  0  0  0  0  0  0
   -2.3500   -0.3360    0.3566 H   0  0  0  0  0  0  0  0  0  0  0  0
   -0.2470   -0.1410    0.5576 C   0  0  1  0  0  0  0  0  0  0  0  0
    0.4239   -0.7541   -0.0450 H   0  0  0  0  0  0  0  0  0  0  0  0
   -0.4317    1.2160   -0.1683 C   0  0  1  0  0  0  0  0  0  0  0  0
   -1.4641    1.5307   -0.0041 H   0  0  0  0  0  0  0  0  0  0  0  0
    0.4888    2.3151    0.3957 C   0  0  0  0  0  0  0  0  0  0  0  0
    1.5351    2.0833    0.1886 H   0  0  0  0  0  0  0  0  0  0  0  0
    0.2434    3.2786   -0.0480 H   0  0  0  0  0  0  0  0  0  0  0  0
    0.3547    2.4017    1.4746 H   0  0  0  0  0  0  0  0  0  0  0  0
   -0.2351    1.0600   -1.6930 C   0  0  0  0  0  0  0  0  0  0  0  0
    0.2134    0.0903   -1.9131 H   0  0  0  0  0  0  0  0  0  0  0  0
   -1.2099    1.1041   -2.1786 H   0  0  0  0  0  0  0  0  0  0  0  0
    0.6379    2.1565   -2.3182 C   0  0  0  0  0  0  0  0  0  0  0  0
    1.6599    2.0905   -1.9455 H   0  0  0  0  0  0  0  0  0  0  0  0
    0.6548    2.0288   -3.4008 H   0  0  0  0  0  0  0  0  0  0  0  0
    0.2272    3.1392   -2.0839 H   0  0  0  0  0  0  0  0  0  0  0  0
    0.3833   -0.0008    1.9525 C   0  0  0  0  0  0  0  0  0  0  0  0
    1.5803   -0.2304    2.1189 O   0  0  0  0  0  0  0  0  0  0  0  0
   -0.4170    0.3858    2.9541 N   0  0  0  0  0  0  0  0  0  0  0  0
   -1.3850    0.5669    2.7398 H   0  0  0  0  0  0  0  0  0  0  0  0
    0.0265    0.5600    4.3358 C   0  0  0  0  0  0  0  0  0  0  0  0
    0.8964    1.2200    4.3632 H   0  0  0  0  0  0  0  0  0  0  0  0
   -0.7726    0.9946    4.9382 H   0  0  0  0  0  0  0  0  0  0  0  0
    0.3119   -0.4069    4.7547 H   0  0  0  0  0  0  0  0  0  0  0  0
  5  6  2  0  0  0  0
  5  7  1  0  0  0  0
  2  3  1  0  0  0  0
  2  4  1  0  0  0  0
  2  5  1  0  0  0  0
  1  2  1  0  0  0  0
 24 25  2  0  0  0  0
 24 26  1  0  0  0  0
 20 21  1  0  0  0  0
 20 22  1  0  0  0  0
 20 23  1  0  0  0  0
 17 18  1  0  0  0  0
 17 19  1  0  0  0  0
 17 20  1  0  0  0  0
 13 14  1  0  0  0  0
 13 15  1  0  0  0  0
 13 16  1  0  0  0  0
 11 12  1  0  0  0  0
 11 13  1  0  0  0  0
 11 17  1  0  0  0  0
  9 10  1  0  0  0  0
  9 11  1  0  0  0  0
  9 24  1  0  0  0  0
  7  8  1  0  0  0  0
  7  9  1  0  0  0  0
 28 29  1  0  0  0  0
 28 30  1  0  0  0  0
 28 31  1  0  0  0  0
 26 27  1  0  0  0  0
 26 28  1  0  0  0  0
M  END
$$$$
default_name
  -OEChem-02102213163D

 31 30  0     1  0  0  0  0  0999 V2000
   -3.0760   -3.6390    1.5496 H   0  0  0  0  0  0  0  0  0  0  0  0
   -3.0940   -2.6290    1.1426 C   0  0  0  0  0  0  0  0  0  0  0  0
   -3.7160   -1.9930    1.7706 H   0  0  0  0  0  0  0  0  0  0  0  0
   -3.4880   -2.6500    0.1286 H   0  0  0  0  0  0  0  0  0  0  0  0
   -1.6860   -2.0850    1.1196 C   0  0  0  0  0  0  0  0  0  0  0  0
   -0.7540   -2.7700    1.5226 O   0  0  0  0  0  0  0  0  0  0  0  0
   -1.5320   -0.8490    0.6496 N   0  0  0  0  0  0  0  0  0  0  0  0
   -2.3500   -0.3360    0.3566 H   0  0  0  0  0  0  0  0  0  0  0  0
   -0.2470   -0.1410    0.5576 C   0  0  1  0  0  0  0  0  0  0  0  0
    0.4239   -0.7541   -0.0450 H   0  0  0  0  0  0  0  0  0  0  0  0
   -0.4317    1.2160   -0.1683 C   0  0  1  0  0  0  0  0  0  0  0  0
   -1.4641    1.5307   -0.0041 H   0  0  0  0  0  0  0  0  0  0  0  0
    0.4888    2.3151    0.3957 C   0  0  0  0  0  0  0  0  0  0  0  0
    1.5351    2.0833    0.1886 H   0  0  0  0  0  0  0  0  0  0  0  0
    0.2434    3.2786   -0.0480 H   0  0  0  0  0  0  0  0  0  0  0  0
    0.3547    2.4017    1.4746 H   0  0  0  0  0  0  0  0  0  0  0  0
   -0.2351    1.0600   -1.6930 C   0  0  0  0  0  0  0  0  0  0  0  0
   -0.0422    0.0147   -1.9383 H   0  0  0  0  0  0  0  0  0  0  0  0
   -1.1512    1.3663   -2.1978 H   0  0  0  0  0  0  0  0  0  0  0  0
    0.9072    1.9147   -2.2588 C   0  0  0  0  0  0  0  0  0  0  0  0
    1.8667    1.5784   -1.8664 H   0  0  0  0  0  0  0  0  0  0  0  0
    0.9239    1.8189   -3.3447 H   0  0  0  0  0  0  0  0  0  0  0  0
    0.7536    2.9624   -1.9979 H   0  0  0  0  0  0  0  0  0  0  0  0
    0.3833   -0.0008    1.9525 C   0  0  0  0  0  0  0  0  0  0  0  0
    1.5803   -0.2304    2.1189 O   0  0  0  0  0  0  0  0  0  0  0  0
   -0.4170    0.3858    2.9541 N   0  0  0  0  0  0  0  0  0  0  0  0
   -1.3850    0.5669    2.7398 H   0  0  0  0  0  0  0  0  0  0  0  0
    0.0265    0.5600    4.3358 C   0  0  0  0  0  0  0  0  0  0  0  0
    0.8964    1.2200    4.3632 H   0  0  0  0  0  0  0  0  0  0  0  0
   -0.7726    0.9946    4.9382 H   0  0  0  0  0  0  0  0  0  0  0  0
    0.3119   -0.4069    4.7547 H   0  0  0  0  0  0  0  0  0  0  0  0
  5  6  2  0  0  0  0
  5  7  1  0  0  0  0
  2  3  1  0  0  0  0
  2  4  1  0  0  0  0
  2  5  1  0  0  0  0
  1  2  1  0  0  0  0
 24 25  2  0  0  0  0
 24 26  1  0  0  0  0
 20 21  1  0  0  0  0
 20 22  1  0  0  0  0
 20 23  1  0  0  0  0
 17 18  1  0  0  0  0
 17 19  1  0  0  0  0
 17 20  1  0  0  0  0
 13 14  1  0  0  0  0
 13 15  1  0  0  0  0
 13 16  1  0  0  0  0
 11 12  1  0  0  0  0
 11 13  1  0  0  0  0
 11 17  1  0  0  0  0
  9 10  1  0  0  0  0
  9 11  1  0  0  0  0
  9 24  1  0  0  0  0
  7  8  1  0  0  0  0
  7  9  1  0  0  0  0
 28 29  1  0  0  0  0
 28 30  1  0  0  0  0
 28 31  1  0  0  0  0
 26 27  1  0  0  0  0
 26 28  1  0  0  0  0
M  END
$$$$
default_name
  -OEChem-02102213163D

 31 30  0     1  0  0  0  0  0999 V2000
   -3.0760   -3.6390    1.5496 H   0  0  0  0  0  0  0  0  0  0  0  0
   -3.0940   -2.6290    1.1426 C   0  0  0  0  0  0  0  0  0  0  0  0
   -3.7160   -1.9930    1.7706 H   0  0  0  0  0  0  0  0  0  0  0  0
   -3.4880   -2.6500    0.1286 H   0  0  0  0  0  0  0  0  0  0  0  0
   -1.6860   -2.0850    1.1196 C   0  0  0  0  0  0  0  0  0  0  0  0
   -0.7540   -2.7700    1.5226 O   0  0  0  0  0  0  0  0  0  0  0  0
   -1.5320   -0.8490    0.6496 N   0  0  0  0  0  0  0  0  0  0  0  0
   -2.3500   -0.3360    0.3566 H   0  0  0  0  0  0  0  0  0  0  0  0
   -0.2470   -0.1410    0.5576 C   0  0  1  0  0  0  0  0  0  0  0  0
    0.4239   -0.7541   -0.0450 H   0  0  0  0  0  0  0  0  0  0  0  0
   -0.4317    1.2160   -0.1683 C   0  0  1  0  0  0  0  0  0  0  0  0
   -1.4641    1.5307   -0.0041 H   0  0  0  0  0  0  0  0  0  0  0  0
    0.4888    2.3151    0.3957 C   0  0  0  0  0  0  0  0  0  0  0  0
    1.5351    2.0833    0.1886 H   0  0  0  0  0  0  0  0  0  0  0  0
    0.2434    3.2786   -0.0480 H   0  0  0  0  0  0  0  0  0  0  0  0
    0.3547    2.4017    1.4746 H   0  0  0  0  0  0  0  0  0  0  0  0
   -0.2351    1.0600   -1.6930 C   0  0  0  0  0  0  0  0  0  0  0  0
   -0.3077    0.0079   -1.9719 H   0  0  0  0  0  0  0  0  0  0  0  0
   -1.0270    1.6053   -2.2063 H   0  0  0  0  0  0  0  0  0  0  0  0
    1.1040    1.6104   -2.2023 C   0  0  0  0  0  0  0  0  0  0  0  0
    1.9337    1.0284   -1.8015 H   0  0  0  0  0  0  0  0  0  0  0  0
    1.1288    1.5456   -3.2903 H   0  0  0  0  0  0  0  0  0  0  0  0
    1.2148    2.6543   -1.9069 H   0  0  0  0  0  0  0  0  0  0  0  0
    0.3833   -0.0008    1.9525 C   0  0  0  0  0  0  0  0  0  0  0  0
    1.5803   -0.2304    2.1189 O   0  0  0  0  0  0  0  0  0  0  0  0
   -0.4170    0.3858    2.9541 N   0  0  0  0  0  0  0  0  0  0  0  0
   -1.3850    0.5669    2.7398 H   0  0  0  0  0  0  0  0  0  0  0  0
    0.0265    0.5600    4.3358 C   0  0  0  0  0  0  0  0  0  0  0  0
    0.8964    1.2200    4.3632 H   0  0  0  0  0  0  0  0  0  0  0  0
   -0.7726    0.9946    4.9382 H   0  0  0  0  0  0  0  0  0  0  0  0
    0.3119   -0.4069    4.7547 H   0  0  0  0  0  0  0  0  0  0  0  0
  5  6  2  0  0  0  0
  5  7  1  0  0  0  0
  2  3  1  0  0  0  0
  2  4  1  0  0  0  0
  2  5  1  0  0  0  0
  1  2  1  0  0  0  0
 24 25  2  0  0  0  0
 24 26  1  0  0  0  0
 20 21  1  0  0  0  0
 20 22  1  0  0  0  0
 20 23  1  0  0  0  0
 17 18  1  0  0  0  0
 17 19  1  0  0  0  0
 17 20  1  0  0  0  0
 13 14  1  0  0  0  0
 13 15  1  0  0  0  0
 13 16  1  0  0  0  0
 11 12  1  0  0  0  0
 11 13  1  0  0  0  0
 11 17  1  0  0  0  0
  9 10  1  0  0  0  0
  9 11  1  0  0  0  0
  9 24  1  0  0  0  0
  7  8  1  0  0  0  0
  7  9  1  0  0  0  0
 28 29  1  0  0  0  0
 28 30  1  0  0  0  0
 28 31  1  0  0  0  0
 26 27  1  0  0  0  0
 26 28  1  0  0  0  0
M  END
$$$$
default_name
  -OEChem-02102213163D

 31 30  0     1  0  0  0  0  0999 V2000
   -3.0760   -3.6390    1.5496 H   0  0  0  0  0  0  0  0  0  0  0  0
   -3.0940   -2.6290    1.1426 C   0  0  0  0  0  0  0  0  0  0  0  0
   -3.7160   -1.9930    1.7706 H   0  0  0  0  0  0  0  0  0  0  0  0
   -3.4880   -2.6500    0.1286 H   0  0  0  0  0  0  0  0  0  0  0  0
   -1.6860   -2.0850    1.1196 C   0  0  0  0  0  0  0  0  0  0  0  0
   -0.7540   -2.7700    1.5226 O   0  0  0  0  0  0  0  0  0  0  0  0
   -1.5320   -0.8490    0.6496 N   0  0  0  0  0  0  0  0  0  0  0  0
   -2.3500   -0.3360    0.3566 H   0  0  0  0  0  0  0  0  0  0  0  0
   -0.2470   -0.1410    0.5576 C   0  0  1  0  0  0  0  0  0  0  0  0
    0.4239   -0.7541   -0.0450 H   0  0  0  0  0  0  0  0  0  0  0  0
   -0.4317    1.2160   -0.1683 C   0  0  1  0  0  0  0  0  0  0  0  0
   -1.4641    1.5307   -0.0041 H   0  0  0  0  0  0  0  0  0  0  0  0
    0.4888    2.3151    0.3957 C   0  0  0  0  0  0  0  0  0  0  0  0
    1.5351    2.0833    0.1886 H   0  0  0  0  0  0  0  0  0  0  0  0
    0.2434    3.2786   -0.0480 H   0  0  0  0  0  0  0  0  0  0  0  0
    0.3547    2.4017    1.4746 H   0  0  0  0  0  0  0  0  0  0  0  0
   -0.2351    1.0600   -1.6930 C   0  0  0  0  0  0  0  0  0  0  0  0
   -0.5650    0.0702   -2.0114 H   0  0  0  0  0  0  0  0  0  0  0  0
   -0.8458    1.8047   -2.2033 H   0  0  0  0  0  0  0  0  0  0  0  0
    1.2149    1.2643   -2.1525 C   0  0  0  0  0  0  0  0  0  0  0  0
    1.8563    0.4779   -1.7552 H   0  0  0  0  0  0  0  0  0  0  0  0
    1.2554    1.2276   -3.2414 H   0  0  0  0  0  0  0  0  0  0  0  0
    1.5791    2.2359   -1.8171 H   0  0  0  0  0  0  0  0  0  0  0  0
    0.3833   -0.0008    1.9525 C   0  0  0  0  0  0  0  0  0  0  0  0
    1.5803   -0.2304    2.1189 O   0  0  0  0  0  0  0  0  0  0  0  0
   -0.4170    0.3858    2.9541 N   0  0  0  0  0  0  0  0  0  0  0  0
   -1.3850    0.5669    2.7398 H   0  0  0  0  0  0  0  0  0  0  0  0
    0.0265    0.5600    4.3358 C   0  0  0  0  0  0  0  0  0  0  0  0
    0.8964    1.2200    4.3632 H   0  0  0  0  0  0  0  0  0  0  0  0
   -0.7726    0.9946    4.9382 H   0  0  0  0  0  0  0  0  0  0  0  0
    0.3119   -0.4069    4.7547 H   0  0  0  0  0  0  0  0  0  0  0  0
  5  6  2  0  0  0  0
  5  7  1  0  0  0  0
  2  3  1  0  0  0  0
  2  4  1  0  0  0  0
  2  5  1  0  0  0  0
  1  2  1  0  0  0  0
 24 25  2  0  0  0  0
 24 26  1  0  0  0  0
 20 21  1  0  0  0  0
 20 22  1  0  0  0  0
 20 23  1  0  0  0  0
 17 18  1  0  0  0  0
 17 19  1  0  0  0  0
 17 20  1  0  0  0  0
 13 14  1  0  0  0  0
 13 15  1  0  0  0  0
 13 16  1  0  0  0  0
 11 12  1  0  0  0  0
 11 13  1  0  0  0  0
 11 17  1  0  0  0  0
  9 10  1  0  0  0  0
  9 11  1  0  0  0  0
  9 24  1  0  0  0  0
  7  8  1  0  0  0  0
  7  9  1  0  0  0  0
 28 29  1  0  0  0  0
 28 30  1  0  0  0  0
 28 31  1  0  0  0  0
 26 27  1  0  0  0  0
 26 28  1  0  0  0  0
M  END
$$$$
default_name
  -OEChem-02102213163D

 31 30  0     1  0  0  0  0  0999 V2000
   -3.0760   -3.6390    1.5496 H   0  0  0  0  0  0  0  0  0  0  0  0
   -3.0940   -2.6290    1.1426 C   0  0  0  0  0  0  0  0  0  0  0  0
   -3.7160   -1.9930    1.7706 H   0  0  0  0  0  0  0  0  0  0  0  0
   -3.4880   -2.6500    0.1286 H   0  0  0  0  0  0  0  0  0  0  0  0
   -1.6860   -2.0850    1.1196 C   0  0  0  0  0  0  0  0  0  0  0  0
   -0.7540   -2.7700    1.5226 O   0  0  0  0  0  0  0  0  0  0  0  0
   -1.5320   -0.8490    0.6496 N   0  0  0  0  0  0  0  0  0  0  0  0
   -2.3500   -0.3360    0.3566 H   0  0  0  0  0  0  0  0  0  0  0  0
   -0.2470   -0.1410    0.5576 C   0  0  1  0  0  0  0  0  0  0  0  0
    0.4239   -0.7541   -0.0450 H   0  0  0  0  0  0  0  0  0  0  0  0
   -0.4317    1.2160   -0.1683 C   0  0  1  0  0  0  0  0  0  0  0  0
   -1.4641    1.5307   -0.0041 H   0  0  0  0  0  0  0  0  0  0  0  0
    0.4888    2.3151    0.3957 C   0  0  0  0  0  0  0  0  0  0  0  0
    1.5351    2.0833    0.1886 H   0  0  0  0  0  0  0  0  0  0  0  0
    0.2434    3.2786   -0.0480 H   0  0  0  0  0  0  0  0  0  0  0  0
    0.3547    2.4017    1.4746 H   0  0  0  0  0  0  0  0  0  0  0  0
   -0.2351    1.0600   -1.6930 C   0  0  0  0  0  0  0  0  0  0  0  0
   -0.7966    0.1974   -2.0543 H   0  0  0  0  0  0  0  0  0  0  0  0
   -0.6200    1.9509   -2.1891 H   0  0  0  0  0  0  0  0  0  0  0  0
    1.2323    0.9001   -2.1130 C   0  0  0  0  0  0  0  0  0  0  0  0
    1.6397   -0.0357   -1.7306 H   0  0  0  0  0  0  0  0  0  0  0  0
    1.2953    0.8864   -3.2014 H   0  0  0  0  0  0  0  0  0  0  0  0
    1.8219    1.7358   -1.7346 H   0  0  0  0  0  0  0  0  0  0  0  0
    0.3833   -0.0008    1.9525 C   0  0  0  0  0  0  0  0  0  0  0  0
    1.5803   -0.2304    2.1189 O   0  0  0  0  0  0  0  0  0  0  0  0
   -0.4170    0.3858    2.9541 N   0  0  0  0  0  0  0  0  0  0  0  0
   -1.3850    0.5669    2.7398 H   0  0  0  0  0  0  0  0  0  0  0  0
    0.0265    0.5600    4.3358 C   0  0  0  0  0  0  0  0  0  0  0  0
    0.8964    1.2200    4.3632 H   0  0  0  0  0  0  0  0  0  0  0  0
   -0.7726    0.9946    4.9382 H   0  0  0  0  0  0  0  0  0  0  0  0
    0.3119   -0.4069    4.7547 H   0  0  0  0  0  0  0  0  0  0  0  0
  5  6  2  0  0  0  0
  5  7  1  0  0  0  0
  2  3  1  0  0  0  0
  2  4  1  0  0  0  0
  2  5  1  0  0  0  0
  1  2  1  0  0  0  0
 24 25  2  0  0  0  0
 24 26  1  0  0  0  0
 20 21  1  0  0  0  0
 20 22  1  0  0  0  0
 20 23  1  0  0  0  0
 17 18  1  0  0  0  0
 17 19  1  0  0  0  0
 17 20  1  0  0  0  0
 13 14  1  0  0  0  0
 13 15  1  0  0  0  0
 13 16  1  0  0  0  0
 11 12  1  0  0  0  0
 11 13  1  0  0  0  0
 11 17  1  0  0  0  0
  9 10  1  0  0  0  0
  9 11  1  0  0  0  0
  9 24  1  0  0  0  0
  7  8  1  0  0  0  0
  7  9  1  0  0  0  0
 28 29  1  0  0  0  0
 28 30  1  0  0  0  0
 28 31  1  0  0  0  0
 26 27  1  0  0  0  0
 26 28  1  0  0  0  0
M  END
$$$$
default_name
  -OEChem-02102213163D

 31 30  0     1  0  0  0  0  0999 V2000
   -3.0760   -3.6390    1.5496 H   0  0  0  0  0  0  0  0  0  0  0  0
   -3.0940   -2.6290    1.1426 C   0  0  0  0  0  0  0  0  0  0  0  0
   -3.7160   -1.9930    1.7706 H   0  0  0  0  0  0  0  0  0  0  0  0
   -3.4880   -2.6500    0.1286 H   0  0  0  0  0  0  0  0  0  0  0  0
   -1.6860   -2.0850    1.1196 C   0  0  0  0  0  0  0  0  0  0  0  0
   -0.7540   -2.7700    1.5226 O   0  0  0  0  0  0  0  0  0  0  0  0
   -1.5320   -0.8490    0.6496 N   0  0  0  0  0  0  0  0  0  0  0  0
   -2.3500   -0.3360    0.3566 H   0  0  0  0  0  0  0  0  0  0  0  0
   -0.2470   -0.1410    0.5576 C   0  0  1  0  0  0  0  0  0  0  0  0
    0.4239   -0.7541   -0.0450 H   0  0  0  0  0  0  0  0  0  0  0  0
   -0.4317    1.2160   -0.1683 C   0  0  1  0  0  0  0  0  0  0  0  0
   -1.4641    1.5307   -0.0041 H   0  0  0  0  0  0  0  0  0  0  0  0
    0.4888    2.3151    0.3957 C   0  0  0  0  0  0  0  0  0  0  0  0
    1.5351    2.0833    0.1886 H   0  0  0  0  0  0  0  0  0  0  0  0
    0.2434    3.2786   -0.0480 H   0  0  0  0  0  0  0  0  0  0  0  0
    0.3547    2.4017    1.4746 H   0  0  0  0  0  0  0  0  0  0  0  0
   -0.2351    1.0600   -1.6930 C   0  0  0  0  0  0  0  0  0  0  0  0
   -0.9867    0.3808   -2.0976 H   0  0  0  0  0  0  0  0  0  0  0  0
   -0.3649    2.0339   -2.1647 H   0  0  0  0  0  0  0  0  0  0  0  0
    1.1552    0.5425   -2.0864 C   0  0  0  0  0  0  0  0  0  0  0  0
    1.2986   -0.4772   -1.7294 H   0  0  0  0  0  0  0  0  0  0  0  0
    1.2456    0.5453   -3.1729 H   0  0  0  0  0  0  0  0  0  0  0  0
    1.9265    1.1881   -1.6651 H   0  0  0  0  0  0  0  0  0  0  0  0
    0.3833   -0.0008    1.9525 C   0  0  0  0  0  0  0  0  0  0  0  0
    1.5803   -0.2304    2.1189 O   0  0  0  0  0  0  0  0  0  0  0  0
   -0.4170    0.3858    2.9541 N   0  0  0  0  0  0  0  0  0  0  0  0
   -1.3850    0.5669    2.7398 H   0  0  0  0  0  0  0  0  0  0  0  0
    0.0265    0.5600    4.3358 C   0  0  0  0  0  0  0  0  0  0  0  0
    0.8964    1.2200    4.3632 H   0  0  0  0  0  0  0  0  0  0  0  0
   -0.7726    0.9946    4.9382 H   0  0  0  0  0  0  0  0  0  0  0  0
    0.3119   -0.4069    4.7547 H   0  0  0  0  0  0  0  0  0  0  0  0
  5  6  2  0  0  0  0
  5  7  1  0  0  0  0
  2  3  1  0  0  0  0
  2  4  1  0  0  0  0
  2  5  1  0  0  0  0
  1  2  1  0  0  0  0
 24 25  2  0  0  0  0
 24 26  1  0  0  0  0
 20 21  1  0  0  0  0
 20 22  1  0  0  0  0
 20 23  1  0  0  0  0
 17 18  1  0  0  0  0
 17 19  1  0  0  0  0
 17 20  1  0  0  0  0
 13 14  1  0  0  0  0
 13 15  1  0  0  0  0
 13 16  1  0  0  0  0
 11 12  1  0  0  0  0
 11 13  1  0  0  0  0
 11 17  1  0  0  0  0
  9 10  1  0  0  0  0
  9 11  1  0  0  0  0
  9 24  1  0  0  0  0
  7  8  1  0  0  0  0
  7  9  1  0  0  0  0
 28 29  1  0  0  0  0
 28 30  1  0  0  0  0
 28 31  1  0  0  0  0
 26 27  1  0  0  0  0
 26 28  1  0  0  0  0
M  END
$$$$
default_name
  -OEChem-02102213163D

 31 30  0     1  0  0  0  0  0999 V2000
   -3.0760   -3.6390    1.5496 H   0  0  0  0  0  0  0  0  0  0  0  0
   -3.0940   -2.6290    1.1426 C   0  0  0  0  0  0  0  0  0  0  0  0
   -3.7160   -1.9930    1.7706 H   0  0  0  0  0  0  0  0  0  0  0  0
   -3.4880   -2.6500    0.1286 H   0  0  0  0  0  0  0  0  0  0  0  0
   -1.6860   -2.0850    1.1196 C   0  0  0  0  0  0  0  0  0  0  0  0
   -0.7540   -2.7700    1.5226 O   0  0  0  0  0  0  0  0  0  0  0  0
   -1.5320   -0.8490    0.6496 N   0  0  0  0  0  0  0  0  0  0  0  0
   -2.3500   -0.3360    0.3566 H   0  0  0  0  0  0  0  0  0  0  0  0
   -0.2470   -0.1410    0.5576 C   0  0  1  0  0  0  0  0  0  0  0  0
    0.4239   -0.7541   -0.0450 H   0  0  0  0  0  0  0  0  0  0  0  0
   -0.4317    1.2160   -0.1683 C   0  0  1  0  0  0  0  0  0  0  0  0
   -1.4641    1.5307   -0.0041 H   0  0  0  0  0  0  0  0  0  0  0  0
    0.4888    2.3151    0.3957 C   0  0  0  0  0  0  0  0  0  0  0  0
    1.5351    2.0833    0.1886 H   0  0  0  0  0  0  0  0  0  0  0  0
    0.2434    3.2786   -0.0480 H   0  0  0  0  0  0  0  0  0  0  0  0
    0.3547    2.4017    1.4746 H   0  0  0  0  0  0  0  0  0  0  0  0
   -0.2351    1.0600   -1.6930 C   0  0  0  0  0  0  0  0  0  0  0  0
   -1.1223    0.6079   -2.1383 H   0  0  0  0  0  0  0  0  0  0  0  0
   -0.0979    2.0482   -2.1318 H   0  0  0  0  0  0  0  0  0  0  0  0
    0.9886    0.2159   -2.0745 C   0  0  0  0  0  0  0  0  0  0  0  0
    0.8564   -0.8166   -1.7517 H   0  0  0  0  0  0  0  0  0  0  0  0
    1.1097    0.2276   -3.1579 H   0  0  0  0  0  0  0  0  0  0  0  0
    1.8859    0.6299   -1.6132 H   0  0  0  0  0  0  0  0  0  0  0  0
    0.3833   -0.0008    1.9525 C   0  0  0  0  0  0  0  0  0  0  0  0
    1.5803   -0.2304    2.1189 O   0  0  0  0  0  0  0  0  0  0  0  0
   -0.4170    0.3858    2.9541 N   0  0  0  0  0  0  0  0  0  0  0  0
   -1.3850    0.5669    2.7398 H   0  0  0  0  0  0  0  0  0  0  0  0
    0.0265    0.5600    4.3358 C   0  0  0  0  0  0  0  0  0  0  0  0
    0.8964    1.2200    4.3632 H   0  0  0  0  0  0  0  0  0  0  0  0
   -0.7726    0.9946    4.9382 H   0  0  0  0  0  0  0  0  0  0  0  0
    0.3119   -0.4069    4.7547 H   0  0  0  0  0  0  0  0  0  0  0  0
  5  6  2  0  0  0  0
  5  7  1  0  0  0  0
  2  3  1  0  0  0  0
  2  4  1  0  0  0  0
  2  5  1  0  0  0  0
  1  2  1  0  0  0  0
 24 25  2  0  0  0  0
 24 26  1  0  0  0  0
 20 21  1  0  0  0  0
 20 22  1  0  0  0  0
 20 23  1  0  0  0  0
 17 18  1  0  0  0  0
 17 19  1  0  0  0  0
 17 20  1  0  0  0  0
 13 14  1  0  0  0  0
 13 15  1  0  0  0  0
 13 16  1  0  0  0  0
 11 12  1  0  0  0  0
 11 13  1  0  0  0  0
 11 17  1  0  0  0  0
  9 10  1  0  0  0  0
  9 11  1  0  0  0  0
  9 24  1  0  0  0  0
  7  8  1  0  0  0  0
  7  9  1  0  0  0  0
 28 29  1  0  0  0  0
 28 30  1  0  0  0  0
 28 31  1  0  0  0  0
 26 27  1  0  0  0  0
 26 28  1  0  0  0  0
M  END
$$$$
default_name
  -OEChem-02102213163D

 31 30  0     1  0  0  0  0  0999 V2000
   -3.0760   -3.6390    1.5496 H   0  0  0  0  0  0  0  0  0  0  0  0
   -3.0940   -2.6290    1.1426 C   0  0  0  0  0  0  0  0  0  0  0  0
   -3.7160   -1.9930    1.7706 H   0  0  0  0  0  0  0  0  0  0  0  0
   -3.4880   -2.6500    0.1286 H   0  0  0  0  0  0  0  0  0  0  0  0
   -1.6860   -2.0850    1.1196 C   0  0  0  0  0  0  0  0  0  0  0  0
   -0.7540   -2.7700    1.5226 O   0  0  0  0  0  0  0  0  0  0  0  0
   -1.5320   -0.8490    0.6496 N   0  0  0  0  0  0  0  0  0  0  0  0
   -2.3500   -0.3360    0.3566 H   0  0  0  0  0  0  0  0  0  0  0  0
   -0.2470   -0.1410    0.5576 C   0  0  1  0  0  0  0  0  0  0  0  0
    0.4239   -0.7541   -0.0450 H   0  0  0  0  0  0  0  0  0  0  0  0
   -0.4317    1.2160   -0.1683 C   0  0  1  0  0  0  0  0  0  0  0  0
   -1.4641    1.5307   -0.0041 H   0  0  0  0  0  0  0  0  0  0  0  0
    0.4888    2.3151    0.3957 C   0  0  0  0  0  0  0  0  0  0  0  0
    1.5351    2.0833    0.1886 H   0  0  0  0  0  0  0  0  0  0  0  0
    0.2434    3.2786   -0.0480 H   0  0  0  0  0  0  0  0  0  0  0  0
    0.3547    2.4017    1.4746 H   0  0  0  0  0  0  0  0  0  0  0  0
   -0.2351    1.0600   -1.6930 C   0  0  0  0  0  0  0  0  0  0  0  0
   -1.1943    0.8633   -2.1737 H   0  0  0  0  0  0  0  0  0  0  0  0
    0.1628    1.9928   -2.0925 H   0  0  0  0  0  0  0  0  0  0  0  0
    0.7440   -0.0574   -2.0781 C   0  0  0  0  0  0  0  0  0  0  0  0
    0.3432   -1.0308   -1.7960 H   0  0  0  0  0  0  0  0  0  0  0  0
    0.8970   -0.0451   -3.1574 H   0  0  0  0  0  0  0  0  0  0  0  0
    1.7027    0.0995   -1.5826 H   0  0  0  0  0  0  0  0  0  0  0  0
    0.3833   -0.0008    1.9525 C   0  0  0  0  0  0  0  0  0  0  0  0
    1.5803   -0.2304    2.1189 O   0  0  0  0  0  0  0  0  0  0  0  0
   -0.4170    0.3858    2.9541 N   0  0  0  0  0  0  0  0  0  0  0  0
   -1.3850    0.5669    2.7398 H   0  0  0  0  0  0  0  0  0  0  0  0
    0.0265    0.5600    4.3358 C   0  0  0  0  0  0  0  0  0  0  0  0
    0.8964    1.2200    4.3632 H   0  0  0  0  0  0  0  0  0  0  0  0
   -0.7726    0.9946    4.9382 H   0  0  0  0  0  0  0  0  0  0  0  0
    0.3119   -0.4069    4.7547 H   0  0  0  0  0  0  0  0  0  0  0  0
  5  6  2  0  0  0  0
  5  7  1  0  0  0  0
  2  3  1  0  0  0  0
  2  4  1  0  0  0  0
  2  5  1  0  0  0  0
  1  2  1  0  0  0  0
 24 25  2  0  0  0  0
 24 26  1  0  0  0  0
 20 21  1  0  0  0  0
 20 22  1  0  0  0  0
 20 23  1  0  0  0  0
 17 18  1  0  0  0  0
 17 19  1  0  0  0  0
 17 20  1  0  0  0  0
 13 14  1  0  0  0  0
 13 15  1  0  0  0  0
 13 16  1  0  0  0  0
 11 12  1  0  0  0  0
 11 13  1  0  0  0  0
 11 17  1  0  0  0  0
  9 10  1  0  0  0  0
  9 11  1  0  0  0  0
  9 24  1  0  0  0  0
  7  8  1  0  0  0  0
  7  9  1  0  0  0  0
 28 29  1  0  0  0  0
 28 30  1  0  0  0  0
 28 31  1  0  0  0  0
 26 27  1  0  0  0  0
 26 28  1  0  0  0  0
M  END
$$$$
default_name
  -OEChem-02102213163D

 31 30  0     1  0  0  0  0  0999 V2000
   -3.0760   -3.6390    1.5496 H   0  0  0  0  0  0  0  0  0  0  0  0
   -3.0940   -2.6290    1.1426 C   0  0  0  0  0  0  0  0  0  0  0  0
   -3.7160   -1.9930    1.7706 H   0  0  0  0  0  0  0  0  0  0  0  0
   -3.4880   -2.6500    0.1286 H   0  0  0  0  0  0  0  0  0  0  0  0
   -1.6860   -2.0850    1.1196 C   0  0  0  0  0  0  0  0  0  0  0  0
   -0.7540   -2.7700    1.5226 O   0  0  0  0  0  0  0  0  0  0  0  0
   -1.5320   -0.8490    0.6496 N   0  0  0  0  0  0  0  0  0  0  0  0
   -2.3500   -0.3360    0.3566 H   0  0  0  0  0  0  0  0  0  0  0  0
   -0.2470   -0.1410    0.5576 C   0  0  1  0  0  0  0  0  0  0  0  0
    0.4239   -0.7541   -0.0450 H   0  0  0  0  0  0  0  0  0  0  0  0
   -0.4317    1.2160   -0.1683 C   0  0  1  0  0  0  0  0  0  0  0  0
   -1.4641    1.5307   -0.0041 H   0  0  0  0  0  0  0  0  0  0  0  0
    0.4888    2.3151    0.3957 C   0  0  0  0  0  0  0  0  0  0  0  0
    1.5351    2.0833    0.1886 H   0  0  0  0  0  0  0  0  0  0  0  0
    0.2434    3.2786   -0.0480 H   0  0  0  0  0  0  0  0  0  0  0  0
    0.3547    2.4017    1.4746 H   0  0  0  0  0  0  0  0  0  0  0  0
   -0.2351    1.0600   -1.6930 C   0  0  0  0  0  0  0  0  0  0  0  0
   -1.1976    1.1295   -2.2014 H   0  0  0  0  0  0  0  0  0  0  0  0
    0.3995    1.8713   -2.0495 H   0  0  0  0  0  0  0  0  0  0  0  0
    0.4380   -0.2588   -2.0969 C   0  0  0  0  0  0  0  0  0  0  0  0
   -0.2061   -1.1052   -1.8592 H   0  0  0  0  0  0  0  0  0  0  0  0
    0.6218   -0.2542   -3.1715 H   0  0  0  0  0  0  0  0  0  0  0  0
    1.3895   -0.3671   -1.5752 H   0  0  0  0  0  0  0  0  0  0  0  0
    0.3833   -0.0008    1.9525 C   0  0  0  0  0  0  0  0  0  0  0  0
    1.5803   -0.2304    2.1189 O   0  0  0  0  0  0  0  0  0  0  0  0
   -0.4170    0.3858    2.9541 N   0  0  0  0  0  0  0  0  0  0  0  0
   -1.3850    0.5669    2.7398 H   0  0  0  0  0  0  0  0  0  0  0  0
    0.0265    0.5600    4.3358 C   0  0  0  0  0  0  0  0  0  0  0  0
    0.8964    1.2200    4.3632 H   0  0  0  0  0  0  0  0  0  0  0  0
   -0.7726    0.9946    4.9382 H   0  0  0  0  0  0  0  0  0  0  0  0
    0.3119   -0.4069    4.7547 H   0  0  0  0  0  0  0  0  0  0  0  0
  5  6  2  0  0  0  0
  5  7  1  0  0  0  0
  2  3  1  0  0  0  0
  2  4  1  0  0  0  0
  2  5  1  0  0  0  0
  1  2  1  0  0  0  0
 24 25  2  0  0  0  0
 24 26  1  0  0  0  0
 20 21  1  0  0  0  0
 20 22  1  0  0  0  0
 20 23  1  0  0  0  0
 17 18  1  0  0  0  0
 17 19  1  0  0  0  0
 17 20  1  0  0  0  0
 13 14  1  0  0  0  0
 13 15  1  0  0  0  0
 13 16  1  0  0  0  0
 11 12  1  0  0  0  0
 11 13  1  0  0  0  0
 11 17  1  0  0  0  0
  9 10  1  0  0  0  0
  9 11  1  0  0  0  0
  9 24  1  0  0  0  0
  7  8  1  0  0  0  0
  7  9  1  0  0  0  0
 28 29  1  0  0  0  0
 28 30  1  0  0  0  0
 28 31  1  0  0  0  0
 26 27  1  0  0  0  0
 26 28  1  0  0  0  0
M  END
$$$$
default_name
  -OEChem-02102213163D

 31 30  0     1  0  0  0  0  0999 V2000
   -3.0760   -3.6390    1.5496 H   0  0  0  0  0  0  0  0  0  0  0  0
   -3.0940   -2.6290    1.1426 C   0  0  0  0  0  0  0  0  0  0  0  0
   -3.7160   -1.9930    1.7706 H   0  0  0  0  0  0  0  0  0  0  0  0
   -3.4880   -2.6500    0.1286 H   0  0  0  0  0  0  0  0  0  0  0  0
   -1.6860   -2.0850    1.1196 C   0  0  0  0  0  0  0  0  0  0  0  0
   -0.7540   -2.7700    1.5226 O   0  0  0  0  0  0  0  0  0  0  0  0
   -1.5320   -0.8490    0.6496 N   0  0  0  0  0  0  0  0  0  0  0  0
   -2.3500   -0.3360    0.3566 H   0  0  0  0  0  0  0  0  0  0  0  0
   -0.2470   -0.1410    0.5576 C   0  0  1  0  0  0  0  0  0  0  0  0
    0.4239   -0.7541   -0.0450 H   0  0  0  0  0  0  0  0  0  0  0  0
   -0.4317    1.2160   -0.1683 C   0  0  1  0  0  0  0  0  0  0  0  0
   -1.4641    1.5307   -0.0041 H   0  0  0  0  0  0  0  0  0  0  0  0
    0.4888    2.3151    0.3957 C   0  0  0  0  0  0  0  0  0  0  0  0
    1.5351    2.0833    0.1886 H   0  0  0  0  0  0  0  0  0  0  0  0
    0.2434    3.2786   -0.0480 H   0  0  0  0  0  0  0  0  0  0  0  0
    0.3547    2.4017    1.4746 H   0  0  0  0  0  0  0  0  0  0  0  0
   -0.2351    1.0600   -1.6930 C   0  0  0  0  0  0  0  0  0  0  0  0
   -1.1322    1.3884   -2.2194 H   0  0  0  0  0  0  0  0  0  0  0  0
    0.5959    1.6922   -2.0059 H   0  0  0  0  0  0  0  0  0  0  0  0
    0.0915   -0.3746   -2.1297 C   0  0  0  0  0  0  0  0  0  0  0  0
   -0.7540   -1.0347   -1.9371 H   0  0  0  0  0  0  0  0  0  0  0  0
    0.3030   -0.3854   -3.1992 H   0  0  0  0  0  0  0  0  0  0  0  0
    0.9677   -0.7380   -1.5917 H   0  0  0  0  0  0  0  0  0  0  0  0
    0.3833   -0.0008    1.9525 C   0  0  0  0  0  0  0  0  0  0  0  0
    1.5803   -0.2304    2.1189 O   0  0  0  0  0  0  0  0  0  0  0  0
   -0.4170    0.3858    2.9541 N   0  0  0  0  0  0  0  0  0  0  0  0
   -1.3850    0.5669    2.7398 H   0  0  0  0  0  0  0  0  0  0  0  0
    0.0265    0.5600    4.3358 C   0  0  0  0  0  0  0  0  0  0  0  0
    0.8964    1.2200    4.3632 H   0  0  0  0  0  0  0  0  0  0  0  0
   -0.7726    0.9946    4.9382 H   0  0  0  0  0  0  0  0  0  0  0  0
    0.3119   -0.4069    4.7547 H   0  0  0  0  0  0  0  0  0  0  0  0
  5  6  2  0  0  0  0
  5  7  1  0  0  0  0
  2  3  1  0  0  0  0
  2  4  1  0  0  0  0
  2  5  1  0  0  0  0
  1  2  1  0  0  0  0
 24 25  2  0  0  0  0
 24 26  1  0  0  0  0
 20 21  1  0  0  0  0
 20 22  1  0  0  0  0
 20 23  1  0  0  0  0
 17 18  1  0  0  0  0
 17 19  1  0  0  0  0
 17 20  1  0  0  0  0
 13 14  1  0  0  0  0
 13 15  1  0  0  0  0
 13 16  1  0  0  0  0
 11 12  1  0  0  0  0
 11 13  1  0  0  0  0
 11 17  1  0  0  0  0
  9 10  1  0  0  0  0
  9 11  1  0  0  0  0
  9 24  1  0  0  0  0
  7  8  1  0  0  0  0
  7  9  1  0  0  0  0
 28 29  1  0  0  0  0
 28 30  1  0  0  0  0
 28 31  1  0  0  0  0
 26 27  1  0  0  0  0
 26 28  1  0  0  0  0
M  END
$$$$
default_name
  -OEChem-02102213163D

 31 30  0     1  0  0  0  0  0999 V2000
   -3.0760   -3.6390    1.5496 H   0  0  0  0  0  0  0  0  0  0  0  0
   -3.0940   -2.6290    1.1426 C   0  0  0  0  0  0  0  0  0  0  0  0
   -3.7160   -1.9930    1.7706 H   0  0  0  0  0  0  0  0  0  0  0  0
   -3.4880   -2.6500    0.1286 H   0  0  0  0  0  0  0  0  0  0  0  0
   -1.6860   -2.0850    1.1196 C   0  0  0  0  0  0  0  0  0  0  0  0
   -0.7540   -2.7700    1.5226 O   0  0  0  0  0  0  0  0  0  0  0  0
   -1.5320   -0.8490    0.6496 N   0  0  0  0  0  0  0  0  0  0  0  0
   -2.3500   -0.3360    0.3566 H   0  0  0  0  0  0  0  0  0  0  0  0
   -0.2470   -0.1410    0.5576 C   0  0  1  0  0  0  0  0  0  0  0  0
    0.4239   -0.7541   -0.0450 H   0  0  0  0  0  0  0  0  0  0  0  0
   -0.4317    1.2160   -0.1683 C   0  0  1  0  0  0  0  0  0  0  0  0
   -1.4641    1.5307   -0.0041 H   0  0  0  0  0  0  0  0  0  0  0  0
    0.4888    2.3151    0.3957 C   0  0  0  0  0  0  0  0  0  0  0  0
    1.5351    2.0833    0.1886 H   0  0  0  0  0  0  0  0  0  0  0  0
    0.2434    3.2786   -0.0480 H   0  0  0  0  0  0  0  0  0  0  0  0
    0.3547    2.4017    1.4746 H   0  0  0  0  0  0  0  0  0  0  0  0
   -0.2351    1.0600   -1.6930 C   0  0  0  0  0  0  0  0  0  0  0  0
   -1.0023    1.6224   -2.2266 H   0  0  0  0  0  0  0  0  0  0  0  0
    0.7387    1.4675   -1.9645 H   0  0  0  0  0  0  0  0  0  0  0  0
   -0.2719   -0.3968   -2.1743 C   0  0  0  0  0  0  0  0  0  0  0  0
   -1.2632   -0.8241   -2.0243 H   0  0  0  0  0  0  0  0  0  0  0  0
   -0.0377   -0.4298   -3.2386 H   0  0  0  0  0  0  0  0  0  0  0  0
    0.4659   -0.9881   -1.6308 H   0  0  0  0  0  0  0  0  0  0  0  0
    0.3833   -0.0008    1.9525 C   0  0  0  0  0  0  0  0  0  0  0  0
    1.5803   -0.2304    2.1189 O   0  0  0  0  0  0  0  0  0  0  0  0
   -0.4170    0.3858    2.9541 N   0  0  0  0  0  0  0  0  0  0  0  0
   -1.3850    0.5669    2.7398 H   0  0  0  0  0  0  0  0  0  0  0  0
    0.0265    0.5600    4.3358 C   0  0  0  0  0  0  0  0  0  0  0  0
    0.8964    1.2200    4.3632 H   0  0  0  0  0  0  0  0  0  0  0  0
   -0.7726    0.9946    4.9382 H   0  0  0  0  0  0  0  0  0  0  0  0
    0.3119   -0.4069    4.7547 H   0  0  0  0  0  0  0  0  0  0  0  0
  5  6  2  0  0  0  0
  5  7  1  0  0  0  0
  2  3  1  0  0  0  0
  2  4  1  0  0  0  0
  2  5  1  0  0  0  0
  1  2  1  0  0  0  0
 24 25  2  0  0  0  0
 24 26  1  0  0  0  0
 20 21  1  0  0  0  0
 20 22  1  0  0  0  0
 20 23  1  0  0  0  0
 17 18  1  0  0  0  0
 17 19  1  0  0  0  0
 17 20  1  0  0  0  0
 13 14  1  0  0  0  0
 13 15  1  0  0  0  0
 13 16  1  0  0  0  0
 11 12  1  0  0  0  0
 11 13  1  0  0  0  0
 11 17  1  0  0  0  0
  9 10  1  0  0  0  0
  9 11  1  0  0  0  0
  9 24  1  0  0  0  0
  7  8  1  0  0  0  0
  7  9  1  0  0  0  0
 28 29  1  0  0  0  0
 28 30  1  0  0  0  0
 28 31  1  0  0  0  0
 26 27  1  0  0  0  0
 26 28  1  0  0  0  0
M  END
$$$$
default_name
  -OEChem-02102213163D

 31 30  0     1  0  0  0  0  0999 V2000
   -3.0760   -3.6390    1.5496 H   0  0  0  0  0  0  0  0  0  0  0  0
   -3.0940   -2.6290    1.1426 C   0  0  0  0  0  0  0  0  0  0  0  0
   -3.7160   -1.9930    1.7706 H   0  0  0  0  0  0  0  0  0  0  0  0
   -3.4880   -2.6500    0.1286 H   0  0  0  0  0  0  0  0  0  0  0  0
   -1.6860   -2.0850    1.1196 C   0  0  0  0  0  0  0  0  0  0  0  0
   -0.7540   -2.7700    1.5226 O   0  0  0  0  0  0  0  0  0  0  0  0
   -1.5320   -0.8490    0.6496 N   0  0  0  0  0  0  0  0  0  0  0  0
   -2.3500   -0.3360    0.3566 H   0  0  0  0  0  0  0  0  0  0  0  0
   -0.2470   -0.1410    0.5576 C   0  0  1  0  0  0  0  0  0  0  0  0
    0.4239   -0.7541   -0.0450 H   0  0  0  0  0  0  0  0  0  0  0  0
   -0.4317    1.2160   -0.1683 C   0  0  1  0  0  0  0  0  0  0  0  0
   -1.4641    1.5307   -0.0041 H   0  0  0  0  0  0  0  0  0  0  0  0
    0.4888    2.3151    0.3957 C   0  0  0  0  0  0  0  0  0  0  0  0
    1.5351    2.0833    0.1886 H   0  0  0  0  0  0  0  0  0  0  0  0
    0.2434    3.2786   -0.0480 H   0  0  0  0  0  0  0  0  0  0  0  0
    0.3547    2.4017    1.4746 H   0  0  0  0  0  0  0  0  0  0  0  0
   -0.2351    1.0600   -1.6930 C   0  0  0  0  0  0  0  0  0  0  0  0
   -0.8170    1.8155   -2.2225 H   0  0  0  0  0  0  0  0  0  0  0  0
    0.8182    1.2127   -1.9281 H   0  0  0  0  0  0  0  0  0  0  0  0
   -0.6274   -0.3240   -2.2276 C   0  0  0  0  0  0  0  0  0  0  0  0
   -1.6990   -0.4877   -2.1149 H   0  0  0  0  0  0  0  0  0  0  0  0
   -0.3771   -0.3844   -3.2870 H   0  0  0  0  0  0  0  0  0  0  0  0
   -0.0816   -1.1001   -1.6899 H   0  0  0  0  0  0  0  0  0  0  0  0
    0.3833   -0.0008    1.9525 C   0  0  0  0  0  0  0  0  0  0  0  0
    1.5803   -0.2304    2.1189 O   0  0  0  0  0  0  0  0  0  0  0  0
   -0.4170    0.3858    2.9541 N   0  0  0  0  0  0  0  0  0  0  0  0
   -1.3850    0.5669    2.7398 H   0  0  0  0  0  0  0  0  0  0  0  0
    0.0265    0.5600    4.3358 C   0  0  0  0  0  0  0  0  0  0  0  0
    0.8964    1.2200    4.3632 H   0  0  0  0  0  0  0  0  0  0  0  0
   -0.7726    0.9946    4.9382 H   0  0  0  0  0  0  0  0  0  0  0  0
    0.3119   -0.4069    4.7547 H   0  0  0  0  0  0  0  0  0  0  0  0
  5  6  2  0  0  0  0
  5  7  1  0  0  0  0
  2  3  1  0  0  0  0
  2  4  1  0  0  0  0
  2  5  1  0  0  0  0
  1  2  1  0  0  0  0
 24 25  2  0  0  0  0
 24 26  1  0  0  0  0
 20 21  1  0  0  0  0
 20 22  1  0  0  0  0
 20 23  1  0  0  0  0
 17 18  1  0  0  0  0
 17 19  1  0  0  0  0
 17 20  1  0  0  0  0
 13 14  1  0  0  0  0
 13 15  1  0  0  0  0
 13 16  1  0  0  0  0
 11 12  1  0  0  0  0
 11 13  1  0  0  0  0
 11 17  1  0  0  0  0
  9 10  1  0  0  0  0
  9 11  1  0  0  0  0
  9 24  1  0  0  0  0
  7  8  1  0  0  0  0
  7  9  1  0  0  0  0
 28 29  1  0  0  0  0
 28 30  1  0  0  0  0
 28 31  1  0  0  0  0
 26 27  1  0  0  0  0
 26 28  1  0  0  0  0
M  END
$$$$
default_name
  -OEChem-02102213163D

 31 30  0     1  0  0  0  0  0999 V2000
   -3.0760   -3.6390    1.5496 H   0  0  0  0  0  0  0  0  0  0  0  0
   -3.0940   -2.6290    1.1426 C   0  0  0  0  0  0  0  0  0  0  0  0
   -3.7160   -1.9930    1.7706 H   0  0  0  0  0  0  0  0  0  0  0  0
   -3.4880   -2.6500    0.1286 H   0  0  0  0  0  0  0  0  0  0  0  0
   -1.6860   -2.0850    1.1196 C   0  0  0  0  0  0  0  0  0  0  0  0
   -0.7540   -2.7700    1.5226 O   0  0  0  0  0  0  0  0  0  0  0  0
   -1.5320   -0.8490    0.6496 N   0  0  0  0  0  0  0  0  0  0  0  0
   -2.3500   -0.3360    0.3566 H   0  0  0  0  0  0  0  0  0  0  0  0
   -0.2470   -0.1410    0.5576 C   0  0  1  0  0  0  0  0  0  0  0  0
    0.4239   -0.7541   -0.0450 H   0  0  0  0  0  0  0  0  0  0  0  0
   -0.4317    1.2160   -0.1683 C   0  0  1  0  0  0  0  0  0  0  0  0
   -1.4641    1.5307   -0.0041 H   0  0  0  0  0  0  0  0  0  0  0  0
    0.4888    2.3151    0.3957 C   0  0  0  0  0  0  0  0  0  0  0  0
    1.5351    2.0833    0.1886 H   0  0  0  0  0  0  0  0  0  0  0  0
    0.2434    3.2786   -0.0480 H   0  0  0  0  0  0  0  0  0  0  0  0
    0.3547    2.4017    1.4746 H   0  0  0  0  0  0  0  0  0  0  0  0
   -0.2351    1.0600   -1.6930 C   0  0  0  0  0  0  0  0  0  0  0  0
   -0.5888    1.9545   -2.2073 H   0  0  0  0  0  0  0  0  0  0  0  0
    0.8290    0.9450   -1.8994 H   0  0  0  0  0  0  0  0  0  0  0  0
   -0.9508   -0.1612   -2.2860 C   0  0  0  0  0  0  0  0  0  0  0  0
   -2.0317   -0.0485   -2.2027 H   0  0  0  0  0  0  0  0  0  0  0  0
   -0.6921   -0.2522   -3.3412 H   0  0  0  0  0  0  0  0  0  0  0  0
   -0.6376   -1.0666   -1.7651 H   0  0  0  0  0  0  0  0  0  0  0  0
    0.3833   -0.0008    1.9525 C   0  0  0  0  0  0  0  0  0  0  0  0
    1.5803   -0.2304    2.1189 O   0  0  0  0  0  0  0  0  0  0  0  0
   -0.4170    0.3858    2.9541 N   0  0  0  0  0  0  0  0  0  0  0  0
   -1.3850    0.5669    2.7398 H   0  0  0  0  0  0  0  0  0  0  0  0
    0.0265    0.5600    4.3358 C   0  0  0  0  0  0  0  0  0  0  0  0
    0.8964    1.2200    4.3632 H   0  0  0  0  0  0  0  0  0  0  0  0
   -0.7726    0.9946    4.9382 H   0  0  0  0  0  0  0  0  0  0  0  0
    0.3119   -0.4069    4.7547 H   0  0  0  0  0  0  0  0  0  0  0  0
  5  6  2  0  0  0  0
  5  7  1  0  0  0  0
  2  3  1  0  0  0  0
  2  4  1  0  0  0  0
  2  5  1  0  0  0  0
  1  2  1  0  0  0  0
 24 25  2  0  0  0  0
 24 26  1  0  0  0  0
 20 21  1  0  0  0  0
 20 22  1  0  0  0  0
 20 23  1  0  0  0  0
 17 18  1  0  0  0  0
 17 19  1  0  0  0  0
 17 20  1  0  0  0  0
 13 14  1  0  0  0  0
 13 15  1  0  0  0  0
 13 16  1  0  0  0  0
 11 12  1  0  0  0  0
 11 13  1  0  0  0  0
 11 17  1  0  0  0  0
  9 10  1  0  0  0  0
  9 11  1  0  0  0  0
  9 24  1  0  0  0  0
  7  8  1  0  0  0  0
  7  9  1  0  0  0  0
 28 29  1  0  0  0  0
 28 30  1  0  0  0  0
 28 31  1  0  0  0  0
 26 27  1  0  0  0  0
 26 28  1  0  0  0  0
M  END
$$$$
default_name
  -OEChem-02102213163D

 31 30  0     1  0  0  0  0  0999 V2000
   -3.0760   -3.6390    1.5496 H   0  0  0  0  0  0  0  0  0  0  0  0
   -3.0940   -2.6290    1.1426 C   0  0  0  0  0  0  0  0  0  0  0  0
   -3.7160   -1.9930    1.7706 H   0  0  0  0  0  0  0  0  0  0  0  0
   -3.4880   -2.6500    0.1286 H   0  0  0  0  0  0  0  0  0  0  0  0
   -1.6860   -2.0850    1.1196 C   0  0  0  0  0  0  0  0  0  0  0  0
   -0.7540   -2.7700    1.5226 O   0  0  0  0  0  0  0  0  0  0  0  0
   -1.5320   -0.8490    0.6496 N   0  0  0  0  0  0  0  0  0  0  0  0
   -2.3500   -0.3360    0.3566 H   0  0  0  0  0  0  0  0  0  0  0  0
   -0.2470   -0.1410    0.5576 C   0  0  1  0  0  0  0  0  0  0  0  0
    0.4239   -0.7541   -0.0450 H   0  0  0  0  0  0  0  0  0  0  0  0
   -0.4317    1.2160   -0.1683 C   0  0  1  0  0  0  0  0  0  0  0  0
   -1.4641    1.5307   -0.0041 H   0  0  0  0  0  0  0  0  0  0  0  0
    0.4888    2.3151    0.3957 C   0  0  0  0  0  0  0  0  0  0  0  0
    1.5351    2.0833    0.1886 H   0  0  0  0  0  0  0  0  0  0  0  0
    0.2434    3.2786   -0.0480 H   0  0  0  0  0  0  0  0  0  0  0  0
    0.3547    2.4017    1.4746 H   0  0  0  0  0  0  0  0  0  0  0  0
   -0.2351    1.0600   -1.6930 C   0  0  0  0  0  0  0  0  0  0  0  0
   -0.3332    2.0300   -2.1821 H   0  0  0  0  0  0  0  0  0  0  0  0
    0.7703    0.6828   -1.8801 H   0  0  0  0  0  0  0  0  0  0  0  0
   -1.2201    0.0806   -2.3455 C   0  0  0  0  0  0  0  0  0  0  0  0
   -2.2385    0.4635   -2.2818 H   0  0  0  0  0  0  0  0  0  0  0  0
   -0.9612   -0.0424   -3.3973 H   0  0  0  0  0  0  0  0  0  0  0  0
   -1.1641   -0.8898   -1.8511 H   0  0  0  0  0  0  0  0  0  0  0  0
    0.3833   -0.0008    1.9525 C   0  0  0  0  0  0  0  0  0  0  0  0
    1.5803   -0.2304    2.1189 O   0  0  0  0  0  0  0  0  0  0  0  0
   -0.4170    0.3858    2.9541 N   0  0  0  0  0  0  0  0  0  0  0  0
   -1.3850    0.5669    2.7398 H   0  0  0  0  0  0  0  0  0  0  0  0
    0.0265    0.5600    4.3358 C   0  0  0  0  0  0  0  0  0  0  0  0
    0.8964    1.2200    4.3632 H   0  0  0  0  0  0  0  0  0  0  0  0
   -0.7726    0.9946    4.9382 H   0  0  0  0  0  0  0  0  0  0  0  0
    0.3119   -0.4069    4.7547 H   0  0  0  0  0  0  0  0  0  0  0  0
  5  6  2  0  0  0  0
  5  7  1  0  0  0  0
  2  3  1  0  0  0  0
  2  4  1  0  0  0  0
  2  5  1  0  0  0  0
  1  2  1  0  0  0  0
 24 25  2  0  0  0  0
 24 26  1  0  0  0  0
 20 21  1  0  0  0  0
 20 22  1  0  0  0  0
 20 23  1  0  0  0  0
 17 18  1  0  0  0  0
 17 19  1  0  0  0  0
 17 20  1  0  0  0  0
 13 14  1  0  0  0  0
 13 15  1  0  0  0  0
 13 16  1  0  0  0  0
 11 12  1  0  0  0  0
 11 13  1  0  0  0  0
 11 17  1  0  0  0  0
  9 10  1  0  0  0  0
  9 11  1  0  0  0  0
  9 24  1  0  0  0  0
  7  8  1  0  0  0  0
  7  9  1  0  0  0  0
 28 29  1  0  0  0  0
 28 30  1  0  0  0  0
 28 31  1  0  0  0  0
 26 27  1  0  0  0  0
 26 28  1  0  0  0  0
M  END
$$$$
default_name
  -OEChem-02102213163D

 31 30  0     1  0  0  0  0  0999 V2000
   -3.0760   -3.6390    1.5496 H   0  0  0  0  0  0  0  0  0  0  0  0
   -3.0940   -2.6290    1.1426 C   0  0  0  0  0  0  0  0  0  0  0  0
   -3.7160   -1.9930    1.7706 H   0  0  0  0  0  0  0  0  0  0  0  0
   -3.4880   -2.6500    0.1286 H   0  0  0  0  0  0  0  0  0  0  0  0
   -1.6860   -2.0850    1.1196 C   0  0  0  0  0  0  0  0  0  0  0  0
   -0.7540   -2.7700    1.5226 O   0  0  0  0  0  0  0  0  0  0  0  0
   -1.5320   -0.8490    0.6496 N   0  0  0  0  0  0  0  0  0  0  0  0
   -2.3500   -0.3360    0.3566 H   0  0  0  0  0  0  0  0  0  0  0  0
   -0.2470   -0.1410    0.5576 C   0  0  1  0  0  0  0  0  0  0  0  0
    0.4239   -0.7541   -0.0450 H   0  0  0  0  0  0  0  0  0  0  0  0
   -0.4317    1.2160   -0.1683 C   0  0  1  0  0  0  0  0  0  0  0  0
   -1.4641    1.5307   -0.0041 H   0  0  0  0  0  0  0  0  0  0  0  0
    0.4888    2.3151    0.3957 C   0  0  0  0  0  0  0  0  0  0  0  0
    1.5351    2.0833    0.1886 H   0  0  0  0  0  0  0  0  0  0  0  0
    0.2434    3.2786   -0.0480 H   0  0  0  0  0  0  0  0  0  0  0  0
    0.3547    2.4017    1.4746 H   0  0  0  0  0  0  0  0  0  0  0  0
   -0.2351    1.0600   -1.6930 C   0  0  0  0  0  0  0  0  0  0  0  0
   -0.0677    2.0369   -2.1485 H   0  0  0  0  0  0  0  0  0  0  0  0
    0.6461    0.4438   -1.8717 H   0  0  0  0  0  0  0  0  0  0  0  0
   -1.4170    0.3849   -2.4020 C   0  0  0  0  0  0  0  0  0  0  0  0
   -2.3055    1.0135   -2.3467 H   0  0  0  0  0  0  0  0  0  0  0  0
   -1.1660    0.2309   -3.4517 H   0  0  0  0  0  0  0  0  0  0  0  0
   -1.6252   -0.5817   -1.9421 H   0  0  0  0  0  0  0  0  0  0  0  0
    0.3833   -0.0008    1.9525 C   0  0  0  0  0  0  0  0  0  0  0  0
    1.5803   -0.2304    2.1189 O   0  0  0  0  0  0  0  0  0  0  0  0
   -0.4170    0.3858    2.9541 N   0  0  0  0  0  0  0  0  0  0  0  0
   -1.3850    0.5669    2.7398 H   0  0  0  0  0  0  0  0  0  0  0  0
    0.0265    0.5600    4.3358 C   0  0  0  0  0  0  0  0  0  0  0  0
    0.8964    1.2200    4.3632 H   0  0  0  0  0  0  0  0  0  0  0  0
   -0.7726    0.9946    4.9382 H   0  0  0  0  0  0  0  0  0  0  0  0
    0.3119   -0.4069    4.7547 H   0  0  0  0  0  0  0  0  0  0  0  0
  5  6  2  0  0  0  0
  5  7  1  0  0  0  0
  2  3  1  0  0  0  0
  2  4  1  0  0  0  0
  2  5  1  0  0  0  0
  1  2  1  0  0  0  0
 24 25  2  0  0  0  0
 24 26  1  0  0  0  0
 20 21  1  0  0  0  0
 20 22  1  0  0  0  0
 20 23  1  0  0  0  0
 17 18  1  0  0  0  0
 17 19  1  0  0  0  0
 17 20  1  0  0  0  0
 13 14  1  0  0  0  0
 13 15  1  0  0  0  0
 13 16  1  0  0  0  0
 11 12  1  0  0  0  0
 11 13  1  0  0  0  0
 11 17  1  0  0  0  0
  9 10  1  0  0  0  0
  9 11  1  0  0  0  0
  9 24  1  0  0  0  0
  7  8  1  0  0  0  0
  7  9  1  0  0  0  0
 28 29  1  0  0  0  0
 28 30  1  0  0  0  0
 28 31  1  0  0  0  0
 26 27  1  0  0  0  0
 26 28  1  0  0  0  0
M  END
$$$$
default_name
  -OEChem-02102213163D

 31 30  0     1  0  0  0  0  0999 V2000
   -3.0760   -3.6390    1.5496 H   0  0  0  0  0  0  0  0  0  0  0  0
   -3.0940   -2.6290    1.1426 C   0  0  0  0  0  0  0  0  0  0  0  0
   -3.7160   -1.9930    1.7706 H   0  0  0  0  0  0  0  0  0  0  0  0
   -3.4880   -2.6500    0.1286 H   0  0  0  0  0  0  0  0  0  0  0  0
   -1.6860   -2.0850    1.1196 C   0  0  0  0  0  0  0  0  0  0  0  0
   -0.7540   -2.7700    1.5226 O   0  0  0  0  0  0  0  0  0  0  0  0
   -1.5320   -0.8490    0.6496 N   0  0  0  0  0  0  0  0  0  0  0  0
   -2.3500   -0.3360    0.3566 H   0  0  0  0  0  0  0  0  0  0  0  0
   -0.2470   -0.1410    0.5576 C   0  0  1  0  0  0  0  0  0  0  0  0
    0.4239   -0.7541   -0.0450 H   0  0  0  0  0  0  0  0  0  0  0  0
   -0.4317    1.2160   -0.1683 C   0  0  1  0  0  0  0  0  0  0  0  0
   -1.4641    1.5307   -0.0041 H   0  0  0  0  0  0  0  0  0  0  0  0
    0.4888    2.3151    0.3957 C   0  0  0  0  0  0  0  0  0  0  0  0
    1.5351    2.0833    0.1886 H   0  0  0  0  0  0  0  0  0  0  0  0
    0.2434    3.2786   -0.0480 H   0  0  0  0  0  0  0  0  0  0  0  0
    0.3547    2.4017    1.4746 H   0  0  0  0  0  0  0  0  0  0  0  0
   -0.2351    1.0600   -1.6930 C   0  0  0  0  0  0  0  0  0  0  0  0
    0.1896    1.9746   -2.1090 H   0  0  0  0  0  0  0  0  0  0  0  0
    0.4649    0.2445   -1.8746 H   0  0  0  0  0  0  0  0  0  0  0  0
   -1.5279    0.7310   -2.4517 C   0  0  0  0  0  0  0  0  0  0  0  0
   -2.2281    1.5641   -2.3931 H   0  0  0  0  0  0  0  0  0  0  0  0
   -1.2927    0.5490   -3.5006 H   0  0  0  0  0  0  0  0  0  0  0  0
   -1.9895   -0.1634   -2.0319 H   0  0  0  0  0  0  0  0  0  0  0  0
    0.3833   -0.0008    1.9525 C   0  0  0  0  0  0  0  0  0  0  0  0
    1.5803   -0.2304    2.1189 O   0  0  0  0  0  0  0  0  0  0  0  0
   -0.4170    0.3858    2.9541 N   0  0  0  0  0  0  0  0  0  0  0  0
   -1.3850    0.5669    2.7398 H   0  0  0  0  0  0  0  0  0  0  0  0
    0.0265    0.5600    4.3358 C   0  0  0  0  0  0  0  0  0  0  0  0
    0.8964    1.2200    4.3632 H   0  0  0  0  0  0  0  0  0  0  0  0
   -0.7726    0.9946    4.9382 H   0  0  0  0  0  0  0  0  0  0  0  0
    0.3119   -0.4069    4.7547 H   0  0  0  0  0  0  0  0  0  0  0  0
  5  6  2  0  0  0  0
  5  7  1  0  0  0  0
  2  3  1  0  0  0  0
  2  4  1  0  0  0  0
  2  5  1  0  0  0  0
  1  2  1  0  0  0  0
 24 25  2  0  0  0  0
 24 26  1  0  0  0  0
 20 21  1  0  0  0  0
 20 22  1  0  0  0  0
 20 23  1  0  0  0  0
 17 18  1  0  0  0  0
 17 19  1  0  0  0  0
 17 20  1  0  0  0  0
 13 14  1  0  0  0  0
 13 15  1  0  0  0  0
 13 16  1  0  0  0  0
 11 12  1  0  0  0  0
 11 13  1  0  0  0  0
 11 17  1  0  0  0  0
  9 10  1  0  0  0  0
  9 11  1  0  0  0  0
  9 24  1  0  0  0  0
  7  8  1  0  0  0  0
  7  9  1  0  0  0  0
 28 29  1  0  0  0  0
 28 30  1  0  0  0  0
 28 31  1  0  0  0  0
 26 27  1  0  0  0  0
 26 28  1  0  0  0  0
M  END
$$$$
default_name
  -OEChem-02102213163D

 31 30  0     1  0  0  0  0  0999 V2000
   -3.0760   -3.6390    1.5496 H   0  0  0  0  0  0  0  0  0  0  0  0
   -3.0940   -2.6290    1.1426 C   0  0  0  0  0  0  0  0  0  0  0  0
   -3.7160   -1.9930    1.7706 H   0  0  0  0  0  0  0  0  0  0  0  0
   -3.4880   -2.6500    0.1286 H   0  0  0  0  0  0  0  0  0  0  0  0
   -1.6860   -2.0850    1.1196 C   0  0  0  0  0  0  0  0  0  0  0  0
   -0.7540   -2.7700    1.5226 O   0  0  0  0  0  0  0  0  0  0  0  0
   -1.5320   -0.8490    0.6496 N   0  0  0  0  0  0  0  0  0  0  0  0
   -2.3500   -0.3360    0.3566 H   0  0  0  0  0  0  0  0  0  0  0  0
   -0.2470   -0.1410    0.5576 C   0  0  1  0  0  0  0  0  0  0  0  0
    0.4239   -0.7541   -0.0450 H   0  0  0  0  0  0  0  0  0  0  0  0
   -0.4317    1.2160   -0.1683 C   0  0  1  0  0  0  0  0  0  0  0  0
   -1.4641    1.5307   -0.0041 H   0  0  0  0  0  0  0  0  0  0  0  0
    0.4888    2.3151    0.3957 C   0  0  0  0  0  0  0  0  0  0  0  0
    1.5351    2.0833    0.1886 H   0  0  0  0  0  0  0  0  0  0  0  0
    0.2434    3.2786   -0.0480 H   0  0  0  0  0  0  0  0  0  0  0  0
    0.3547    2.4017    1.4746 H   0  0  0  0  0  0  0  0  0  0  0  0
   -0.2351    1.0600   -1.6930 C   0  0  0  0  0  0  0  0  0  0  0  0
    0.4212    1.8474   -2.0661 H   0  0  0  0  0  0  0  0  0  0  0  0
    0.2391    0.0983   -1.8888 H   0  0  0  0  0  0  0  0  0  0  0  0
   -1.5453    1.0952   -2.4912 C   0  0  0  0  0  0  0  0  0  0  0  0
   -2.0115    2.0776   -2.4177 H   0  0  0  0  0  0  0  0  0  0  0  0
   -1.3326    0.8902   -3.5407 H   0  0  0  0  0  0  0  0  0  0  0  0
   -2.2323    0.3367   -2.1143 H   0  0  0  0  0  0  0  0  0  0  0  0
    0.3833   -0.0008    1.9525 C   0  0  0  0  0  0  0  0  0  0  0  0
    1.5803   -0.2304    2.1189 O   0  0  0  0  0  0  0  0  0  0  0  0
   -0.4170    0.3858    2.9541 N   0  0  0  0  0  0  0  0  0  0  0  0
   -1.3850    0.5669    2.7398 H   0  0  0  0  0  0  0  0  0  0  0  0
    0.0265    0.5600    4.3358 C   0  0  0  0  0  0  0  0  0  0  0  0
    0.8964    1.2200    4.3632 H   0  0  0  0  0  0  0  0  0  0  0  0
   -0.7726    0.9946    4.9382 H   0  0  0  0  0  0  0  0  0  0  0  0
    0.3119   -0.4069    4.7547 H   0  0  0  0  0  0  0  0  0  0  0  0
  5  6  2  0  0  0  0
  5  7  1  0  0  0  0
  2  3  1  0  0  0  0
  2  4  1  0  0  0  0
  2  5  1  0  0  0  0
  1  2  1  0  0  0  0
 24 25  2  0  0  0  0
 24 26  1  0  0  0  0
 20 21  1  0  0  0  0
 20 22  1  0  0  0  0
 20 23  1  0  0  0  0
 17 18  1  0  0  0  0
 17 19  1  0  0  0  0
 17 20  1  0  0  0  0
 13 14  1  0  0  0  0
 13 15  1  0  0  0  0
 13 16  1  0  0  0  0
 11 12  1  0  0  0  0
 11 13  1  0  0  0  0
 11 17  1  0  0  0  0
  9 10  1  0  0  0  0
  9 11  1  0  0  0  0
  9 24  1  0  0  0  0
  7  8  1  0  0  0  0
  7  9  1  0  0  0  0
 28 29  1  0  0  0  0
 28 30  1  0  0  0  0
 28 31  1  0  0  0  0
 26 27  1  0  0  0  0
 26 28  1  0  0  0  0
M  END
$$$$
default_name
  -OEChem-02102213163D

 31 30  0     1  0  0  0  0  0999 V2000
   -3.0760   -3.6390    1.5496 H   0  0  0  0  0  0  0  0  0  0  0  0
   -3.0940   -2.6290    1.1426 C   0  0  0  0  0  0  0  0  0  0  0  0
   -3.7160   -1.9930    1.7706 H   0  0  0  0  0  0  0  0  0  0  0  0
   -3.4880   -2.6500    0.1286 H   0  0  0  0  0  0  0  0  0  0  0  0
   -1.6860   -2.0850    1.1196 C   0  0  0  0  0  0  0  0  0  0  0  0
   -0.7540   -2.7700    1.5226 O   0  0  0  0  0  0  0  0  0  0  0  0
   -1.5320   -0.8490    0.6496 N   0  0  0  0  0  0  0  0  0  0  0  0
   -2.3500   -0.3360    0.3566 H   0  0  0  0  0  0  0  0  0  0  0  0
   -0.2470   -0.1410    0.5576 C   0  0  1  0  0  0  0  0  0  0  0  0
    0.4239   -0.7541   -0.0450 H   0  0  0  0  0  0  0  0  0  0  0  0
   -0.4317    1.2160   -0.1683 C   0  0  1  0  0  0  0  0  0  0  0  0
   -1.4641    1.5307   -0.0041 H   0  0  0  0  0  0  0  0  0  0  0  0
    0.4888    2.3151    0.3957 C   0  0  0  0  0  0  0  0  0  0  0  0
    1.5351    2.0833    0.1886 H   0  0  0  0  0  0  0  0  0  0  0  0
    0.2434    3.2786   -0.0480 H   0  0  0  0  0  0  0  0  0  0  0  0
    0.3547    2.4017    1.4746 H   0  0  0  0  0  0  0  0  0  0  0  0
   -0.2351    1.0600   -1.6930 C   0  0  0  0  0  0  0  0  0  0  0  0
    0.6113    1.6640   -2.0228 H   0  0  0  0  0  0  0  0  0  0  0  0
   -0.0160    0.0152   -1.9132 H   0  0  0  0  0  0  0  0  0  0  0  0
   -1.4681    1.4528   -2.5179 C   0  0  0  0  0  0  0  0  0  0  0  0
   -1.6704    2.5191   -2.4189 H   0  0  0  0  0  0  0  0  0  0  0  0
   -1.2829    1.2313   -3.5691 H   0  0  0  0  0  0  0  0  0  0  0  0
   -2.3369    0.8845   -2.1839 H   0  0  0  0  0  0  0  0  0  0  0  0
    0.3833   -0.0008    1.9525 C   0  0  0  0  0  0  0  0  0  0  0  0
    1.5803   -0.2304    2.1189 O   0  0  0  0  0  0  0  0  0  0  0  0
   -0.4170    0.3858    2.9541 N   0  0  0  0  0  0  0  0  0  0  0  0
   -1.3850    0.5669    2.7398 H   0  0  0  0  0  0  0  0  0  0  0  0
    0.0265    0.5600    4.3358 C   0  0  0  0  0  0  0  0  0  0  0  0
    0.8964    1.2200    4.3632 H   0  0  0  0  0  0  0  0  0  0  0  0
   -0.7726    0.9946    4.9382 H   0  0  0  0  0  0  0  0  0  0  0  0
    0.3119   -0.4069    4.7547 H   0  0  0  0  0  0  0  0  0  0  0  0
  5  6  2  0  0  0  0
  5  7  1  0  0  0  0
  2  3  1  0  0  0  0
  2  4  1  0  0  0  0
  2  5  1  0  0  0  0
  1  2  1  0  0  0  0
 24 25  2  0  0  0  0
 24 26  1  0  0  0  0
 20 21  1  0  0  0  0
 20 22  1  0  0  0  0
 20 23  1  0  0  0  0
 17 18  1  0  0  0  0
 17 19  1  0  0  0  0
 17 20  1  0  0  0  0
 13 14  1  0  0  0  0
 13 15  1  0  0  0  0
 13 16  1  0  0  0  0
 11 12  1  0  0  0  0
 11 13  1  0  0  0  0
 11 17  1  0  0  0  0
  9 10  1  0  0  0  0
  9 11  1  0  0  0  0
  9 24  1  0  0  0  0
  7  8  1  0  0  0  0
  7  9  1  0  0  0  0
 28 29  1  0  0  0  0
 28 30  1  0  0  0  0
 28 31  1  0  0  0  0
 26 27  1  0  0  0  0
 26 28  1  0  0  0  0
M  END
$$$$
default_name
  -OEChem-02102213163D

 31 30  0     1  0  0  0  0  0999 V2000
   -3.0760   -3.6390    1.5496 H   0  0  0  0  0  0  0  0  0  0  0  0
   -3.0940   -2.6290    1.1426 C   0  0  0  0  0  0  0  0  0  0  0  0
   -3.7160   -1.9930    1.7706 H   0  0  0  0  0  0  0  0  0  0  0  0
   -3.4880   -2.6500    0.1286 H   0  0  0  0  0  0  0  0  0  0  0  0
   -1.6860   -2.0850    1.1196 C   0  0  0  0  0  0  0  0  0  0  0  0
   -0.7540   -2.7700    1.5226 O   0  0  0  0  0  0  0  0  0  0  0  0
   -1.5320   -0.8490    0.6496 N   0  0  0  0  0  0  0  0  0  0  0  0
   -2.3500   -0.3360    0.3566 H   0  0  0  0  0  0  0  0  0  0  0  0
   -0.2470   -0.1410    0.5576 C   0  0  1  0  0  0  0  0  0  0  0  0
    0.4239   -0.7541   -0.0450 H   0  0  0  0  0  0  0  0  0  0  0  0
   -0.4317    1.2160   -0.1683 C   0  0  1  0  0  0  0  0  0  0  0  0
   -1.4641    1.5307   -0.0041 H   0  0  0  0  0  0  0  0  0  0  0  0
    0.4888    2.3151    0.3957 C   0  0  0  0  0  0  0  0  0  0  0  0
    1.5351    2.0833    0.1886 H   0  0  0  0  0  0  0  0  0  0  0  0
    0.2434    3.2786   -0.0480 H   0  0  0  0  0  0  0  0  0  0  0  0
    0.3547    2.4017    1.4746 H   0  0  0  0  0  0  0  0  0  0  0  0
   -0.2351    1.0600   -1.6930 C   0  0  0  0  0  0  0  0  0  0  0  0
    0.7469    1.4369   -1.9821 H   0  0  0  0  0  0  0  0  0  0  0  0
   -0.2830    0.0009   -1.9462 H   0  0  0  0  0  0  0  0  0  0  0  0
   -1.3016    1.7794   -2.5298 C   0  0  0  0  0  0  0  0  0  0  0  0
   -1.2282    2.8586   -2.3966 H   0  0  0  0  0  0  0  0  0  0  0  0
   -1.1470    1.5490   -3.5841 H   0  0  0  0  0  0  0  0  0  0  0  0
   -2.2963    1.4426   -2.2357 H   0  0  0  0  0  0  0  0  0  0  0  0
    0.3833   -0.0008    1.9525 C   0  0  0  0  0  0  0  0  0  0  0  0
    1.5803   -0.2304    2.1189 O   0  0  0  0  0  0  0  0  0  0  0  0
   -0.4170    0.3858    2.9541 N   0  0  0  0  0  0  0  0  0  0  0  0
   -1.3850    0.5669    2.7398 H   0  0  0  0  0  0  0  0  0  0  0  0
    0.0265    0.5600    4.3358 C   0  0  0  0  0  0  0  0  0  0  0  0
    0.8964    1.2200    4.3632 H   0  0  0  0  0  0  0  0  0  0  0  0
   -0.7726    0.9946    4.9382 H   0  0  0  0  0  0  0  0  0  0  0  0
    0.3119   -0.4069    4.7547 H   0  0  0  0  0  0  0  0  0  0  0  0
  5  6  2  0  0  0  0
  5  7  1  0  0  0  0
  2  3  1  0  0  0  0
  2  4  1  0  0  0  0
  2  5  1  0  0  0  0
  1  2  1  0  0  0  0
 24 25  2  0  0  0  0
 24 26  1  0  0  0  0
 20 21  1  0  0  0  0
 20 22  1  0  0  0  0
 20 23  1  0  0  0  0
 17 18  1  0  0  0  0
 17 19  1  0  0  0  0
 17 20  1  0  0  0  0
 13 14  1  0  0  0  0
 13 15  1  0  0  0  0
 13 16  1  0  0  0  0
 11 12  1  0  0  0  0
 11 13  1  0  0  0  0
 11 17  1  0  0  0  0
  9 10  1  0  0  0  0
  9 11  1  0  0  0  0
  9 24  1  0  0  0  0
  7  8  1  0  0  0  0
  7  9  1  0  0  0  0
 28 29  1  0  0  0  0
 28 30  1  0  0  0  0
 28 31  1  0  0  0  0
 26 27  1  0  0  0  0
 26 28  1  0  0  0  0
M  END
$$$$
default_name
  -OEChem-02102213163D

 31 30  0     1  0  0  0  0  0999 V2000
   -3.0760   -3.6390    1.5496 H   0  0  0  0  0  0  0  0  0  0  0  0
   -3.0940   -2.6290    1.1426 C   0  0  0  0  0  0  0  0  0  0  0  0
   -3.7160   -1.9930    1.7706 H   0  0  0  0  0  0  0  0  0  0  0  0
   -3.4880   -2.6500    0.1286 H   0  0  0  0  0  0  0  0  0  0  0  0
   -1.6860   -2.0850    1.1196 C   0  0  0  0  0  0  0  0  0  0  0  0
   -0.7540   -2.7700    1.5226 O   0  0  0  0  0  0  0  0  0  0  0  0
   -1.5320   -0.8490    0.6496 N   0  0  0  0  0  0  0  0  0  0  0  0
   -2.3500   -0.3360    0.3566 H   0  0  0  0  0  0  0  0  0  0  0  0
   -0.2470   -0.1410    0.5576 C   0  0  1  0  0  0  0  0  0  0  0  0
    0.4239   -0.7541   -0.0450 H   0  0  0  0  0  0  0  0  0  0  0  0
   -0.4317    1.2160   -0.1683 C   0  0  1  0  0  0  0  0  0  0  0  0
   -1.4641    1.5307   -0.0041 H   0  0  0  0  0  0  0  0  0  0  0  0
    0.4888    2.3151    0.3957 C   0  0  0  0  0  0  0  0  0  0  0  0
    1.5351    2.0833    0.1886 H   0  0  0  0  0  0  0  0  0  0  0  0
    0.2434    3.2786   -0.0480 H   0  0  0  0  0  0  0  0  0  0  0  0
    0.3547    2.4017    1.4746 H   0  0  0  0  0  0  0  0  0  0  0  0
   -0.2351    1.0600   -1.6930 C   0  0  0  0  0  0  0  0  0  0  0  0
    0.8189    1.1815   -1.9467 H   0  0  0  0  0  0  0  0  0  0  0  0
   -0.5437    0.0564   -1.9855 H   0  0  0  0  0  0  0  0  0  0  0  0
   -1.0570    2.0527   -2.5262 C   0  0  0  0  0  0  0  0  0  0  0  0
   -0.7150    3.0728   -2.3523 H   0  0  0  0  0  0  0  0  0  0  0  0
   -0.9343    1.8217   -3.5846 H   0  0  0  0  0  0  0  0  0  0  0  0
   -2.1131    1.9731   -2.2664 H   0  0  0  0  0  0  0  0  0  0  0  0
    0.3833   -0.0008    1.9525 C   0  0  0  0  0  0  0  0  0  0  0  0
    1.5803   -0.2304    2.1189 O   0  0  0  0  0  0  0  0  0  0  0  0
   -0.4170    0.3858    2.9541 N   0  0  0  0  0  0  0  0  0  0  0  0
   -1.3850    0.5669    2.7398 H   0  0  0  0  0  0  0  0  0  0  0  0
    0.0265    0.5600    4.3358 C   0  0  0  0  0  0  0  0  0  0  0  0
    0.8964    1.2200    4.3632 H   0  0  0  0  0  0  0  0  0  0  0  0
   -0.7726    0.9946    4.9382 H   0  0  0  0  0  0  0  0  0  0  0  0
    0.3119   -0.4069    4.7547 H   0  0  0  0  0  0  0  0  0  0  0  0
  5  6  2  0  0  0  0
  5  7  1  0  0  0  0
  2  3  1  0  0  0  0
  2  4  1  0  0  0  0
  2  5  1  0  0  0  0
  1  2  1  0  0  0  0
 24 25  2  0  0  0  0
 24 26  1  0  0  0  0
 20 21  1  0  0  0  0
 20 22  1  0  0  0  0
 20 23  1  0  0  0  0
 17 18  1  0  0  0  0
 17 19  1  0  0  0  0
 17 20  1  0  0  0  0
 13 14  1  0  0  0  0
 13 15  1  0  0  0  0
 13 16  1  0  0  0  0
 11 12  1  0  0  0  0
 11 13  1  0  0  0  0
 11 17  1  0  0  0  0
  9 10  1  0  0  0  0
  9 11  1  0  0  0  0
  9 24  1  0  0  0  0
  7  8  1  0  0  0  0
  7  9  1  0  0  0  0
 28 29  1  0  0  0  0
 28 30  1  0  0  0  0
 28 31  1  0  0  0  0
 26 27  1  0  0  0  0
 26 28  1  0  0  0  0
M  END
$$$$
default_name
  -OEChem-02102213163D

 31 30  0     1  0  0  0  0  0999 V2000
   -3.0760   -3.6390    1.5496 H   0  0  0  0  0  0  0  0  0  0  0  0
   -3.0940   -2.6290    1.1426 C   0  0  0  0  0  0  0  0  0  0  0  0
   -3.7160   -1.9930    1.7706 H   0  0  0  0  0  0  0  0  0  0  0  0
   -3.4880   -2.6500    0.1286 H   0  0  0  0  0  0  0  0  0  0  0  0
   -1.6860   -2.0850    1.1196 C   0  0  0  0  0  0  0  0  0  0  0  0
   -0.7540   -2.7700    1.5226 O   0  0  0  0  0  0  0  0  0  0  0  0
   -1.5320   -0.8490    0.6496 N   0  0  0  0  0  0  0  0  0  0  0  0
   -2.3500   -0.3360    0.3566 H   0  0  0  0  0  0  0  0  0  0  0  0
   -0.2470   -0.1410    0.5576 C   0  0  1  0  0  0  0  0  0  0  0  0
    0.4239   -0.7541   -0.0450 H   0  0  0  0  0  0  0  0  0  0  0  0
   -0.4317    1.2160   -0.1683 C   0  0  1  0  0  0  0  0  0  0  0  0
   -1.4641    1.5307   -0.0041 H   0  0  0  0  0  0  0  0  0  0  0  0
    0.4888    2.3151    0.3957 C   0  0  0  0  0  0  0  0  0  0  0  0
    1.5351    2.0833    0.1886 H   0  0  0  0  0  0  0  0  0  0  0  0
    0.2434    3.2786   -0.0480 H   0  0  0  0  0  0  0  0  0  0  0  0
    0.3547    2.4017    1.4746 H   0  0  0  0  0  0  0  0  0  0  0  0
   -0.2351    1.0600   -1.6930 C   0  0  0  0  0  0  0  0  0  0  0  0
    0.8222    0.9153   -1.9190 H   0  0  0  0  0  0  0  0  0  0  0  0
   -0.7803    0.1778   -2.0284 H   0  0  0  0  0  0  0  0  0  0  0  0
   -0.7510    2.2541   -2.5073 C   0  0  0  0  0  0  0  0  0  0  0  0
   -0.1657    3.1471   -2.2891 H   0  0  0  0  0  0  0  0  0  0  0  0
   -0.6591    2.0307   -3.5705 H   0  0  0  0  0  0  0  0  0  0  0  0
   -1.7999    2.4396   -2.2737 H   0  0  0  0  0  0  0  0  0  0  0  0
    0.3833   -0.0008    1.9525 C   0  0  0  0  0  0  0  0  0  0  0  0
    1.5803   -0.2304    2.1189 O   0  0  0  0  0  0  0  0  0  0  0  0
   -0.4170    0.3858    2.9541 N   0  0  0  0  0  0  0  0  0  0  0  0
   -1.3850    0.5669    2.7398 H   0  0  0  0  0  0  0  0  0  0  0  0
    0.0265    0.5600    4.3358 C   0  0  0  0  0  0  0  0  0  0  0  0
    0.8964    1.2200    4.3632 H   0  0  0  0  0  0  0  0  0  0  0  0
   -0.7726    0.9946    4.9382 H   0  0  0  0  0  0  0  0  0  0  0  0
    0.3119   -0.4069    4.7547 H   0  0  0  0  0  0  0  0  0  0  0  0
  5  6  2  0  0  0  0
  5  7  1  0  0  0  0
  2  3  1  0  0  0  0
  2  4  1  0  0  0  0
  2  5  1  0  0  0  0
  1  2  1  0  0  0  0
 24 25  2  0  0  0  0
 24 26  1  0  0  0  0
 20 21  1  0  0  0  0
 20 22  1  0  0  0  0
 20 23  1  0  0  0  0
 17 18  1  0  0  0  0
 17 19  1  0  0  0  0
 17 20  1  0  0  0  0
 13 14  1  0  0  0  0
 13 15  1  0  0  0  0
 13 16  1  0  0  0  0
 11 12  1  0  0  0  0
 11 13  1  0  0  0  0
 11 17  1  0  0  0  0
  9 10  1  0  0  0  0
  9 11  1  0  0  0  0
  9 24  1  0  0  0  0
  7  8  1  0  0  0  0
  7  9  1  0  0  0  0
 28 29  1  0  0  0  0
 28 30  1  0  0  0  0
 28 31  1  0  0  0  0
 26 27  1  0  0  0  0
 26 28  1  0  0  0  0
M  END
$$$$
default_name
  -OEChem-02102213163D

 31 30  0     1  0  0  0  0  0999 V2000
   -3.0760   -3.6390    1.5496 H   0  0  0  0  0  0  0  0  0  0  0  0
   -3.0940   -2.6290    1.1426 C   0  0  0  0  0  0  0  0  0  0  0  0
   -3.7160   -1.9930    1.7706 H   0  0  0  0  0  0  0  0  0  0  0  0
   -3.4880   -2.6500    0.1286 H   0  0  0  0  0  0  0  0  0  0  0  0
   -1.6860   -2.0850    1.1196 C   0  0  0  0  0  0  0  0  0  0  0  0
   -0.7540   -2.7700    1.5226 O   0  0  0  0  0  0  0  0  0  0  0  0
   -1.5320   -0.8490    0.6496 N   0  0  0  0  0  0  0  0  0  0  0  0
   -2.3500   -0.3360    0.3566 H   0  0  0  0  0  0  0  0  0  0  0  0
   -0.2470   -0.1410    0.5576 C   0  0  1  0  0  0  0  0  0  0  0  0
    0.4239   -0.7541   -0.0450 H   0  0  0  0  0  0  0  0  0  0  0  0
   -0.4317    1.2160   -0.1683 C   0  0  1  0  0  0  0  0  0  0  0  0
   -1.3548    1.6598    0.2094 H   0  0  0  0  0  0  0  0  0  0  0  0
    0.7161    2.2010    0.1246 C   0  0  0  0  0  0  0  0  0  0  0  0
    1.6526    1.8371   -0.3017 H   0  0  0  0  0  0  0  0  0  0  0  0
    0.4909    3.1800   -0.2953 H   0  0  0  0  0  0  0  0  0  0  0  0
    0.8432    2.3218    1.2010 H   0  0  0  0  0  0  0  0  0  0  0  0
   -0.6084    1.0110   -1.6896 C   0  0  0  0  0  0  0  0  0  0  0  0
    0.2551    0.4833   -2.0968 H   0  0  0  0  0  0  0  0  0  0  0  0
   -1.4945    0.3997   -1.8605 H   0  0  0  0  0  0  0  0  0  0  0  0
   -0.7966    2.3184   -2.4710 C   0  0  0  0  0  0  0  0  0  0  0  0
    0.1070    2.9258   -2.4231 H   0  0  0  0  0  0  0  0  0  0  0  0
   -1.0031    2.0861   -3.5160 H   0  0  0  0  0  0  0  0  0  0  0  0
   -1.6360    2.8808   -2.0605 H   0  0  0  0  0  0  0  0  0  0  0  0
    0.3833   -0.0008    1.9525 C   0  0  0  0  0  0  0  0  0  0  0  0
    1.5803   -0.2304    2.1189 O   0  0  0  0  0  0  0  0  0  0  0  0
   -0.4170    0.3858    2.9541 N   0  0  0  0  0  0  0  0  0  0  0  0
   -1.3850    0.5669    2.7398 H   0  0  0  0  0  0  0  0  0  0  0  0
    0.0265    0.5600    4.3358 C   0  0  0  0  0  0  0  0  0  0  0  0
    0.8964    1.2200    4.3632 H   0  0  0  0  0  0  0  0  0  0  0  0
   -0.7726    0.9946    4.9382 H   0  0  0  0  0  0  0  0  0  0  0  0
    0.3119   -0.4069    4.7547 H   0  0  0  0  0  0  0  0  0  0  0  0
  5  6  2  0  0  0  0
  5  7  1  0  0  0  0
  2  3  1  0  0  0  0
  2  4  1  0  0  0  0
  2  5  1  0  0  0  0
  1  2  1  0  0  0  0
 24 25  2  0  0  0  0
 24 26  1  0  0  0  0
 20 21  1  0  0  0  0
 20 22  1  0  0  0  0
 20 23  1  0  0  0  0
 17 18  1  0  0  0  0
 17 19  1  0  0  0  0
 17 20  1  0  0  0  0
 13 14  1  0  0  0  0
 13 15  1  0  0  0  0
 13 16  1  0  0  0  0
 11 12  1  0  0  0  0
 11 13  1  0  0  0  0
 11 17  1  0  0  0  0
  9 10  1  0  0  0  0
  9 11  1  0  0  0  0
  9 24  1  0  0  0  0
  7  8  1  0  0  0  0
  7  9  1  0  0  0  0
 28 29  1  0  0  0  0
 28 30  1  0  0  0  0
 28 31  1  0  0  0  0
 26 27  1  0  0  0  0
 26 28  1  0  0  0  0
M  END
$$$$
default_name
  -OEChem-02102213163D

 31 30  0     1  0  0  0  0  0999 V2000
   -3.0760   -3.6390    1.5496 H   0  0  0  0  0  0  0  0  0  0  0  0
   -3.0940   -2.6290    1.1426 C   0  0  0  0  0  0  0  0  0  0  0  0
   -3.7160   -1.9930    1.7706 H   0  0  0  0  0  0  0  0  0  0  0  0
   -3.4880   -2.6500    0.1286 H   0  0  0  0  0  0  0  0  0  0  0  0
   -1.6860   -2.0850    1.1196 C   0  0  0  0  0  0  0  0  0  0  0  0
   -0.7540   -2.7700    1.5226 O   0  0  0  0  0  0  0  0  0  0  0  0
   -1.5320   -0.8490    0.6496 N   0  0  0  0  0  0  0  0  0  0  0  0
   -2.3500   -0.3360    0.3566 H   0  0  0  0  0  0  0  0  0  0  0  0
   -0.2470   -0.1410    0.5576 C   0  0  1  0  0  0  0  0  0  0  0  0
    0.4239   -0.7541   -0.0450 H   0  0  0  0  0  0  0  0  0  0  0  0
   -0.4317    1.2160   -0.1683 C   0  0  1  0  0  0  0  0  0  0  0  0
   -1.3548    1.6598    0.2094 H   0  0  0  0  0  0  0  0  0  0  0  0
    0.7161    2.2010    0.1246 C   0  0  0  0  0  0  0  0  0  0  0  0
    1.6526    1.8371   -0.3017 H   0  0  0  0  0  0  0  0  0  0  0  0
    0.4909    3.1800   -0.2953 H   0  0  0  0  0  0  0  0  0  0  0  0
    0.8432    2.3218    1.2010 H   0  0  0  0  0  0  0  0  0  0  0  0
   -0.6084    1.0110   -1.6896 C   0  0  0  0  0  0  0  0  0  0  0  0
    0.1038    0.2675   -2.0501 H   0  0  0  0  0  0  0  0  0  0  0  0
   -1.6156    0.6397   -1.8788 H   0  0  0  0  0  0  0  0  0  0  0  0
   -0.4326    2.2959   -2.5102 C   0  0  0  0  0  0  0  0  0  0  0  0
    0.5943    2.6548   -2.4432 H   0  0  0  0  0  0  0  0  0  0  0  0
   -0.6596    2.0883   -3.5561 H   0  0  0  0  0  0  0  0  0  0  0  0
   -1.1127    3.0669   -2.1464 H   0  0  0  0  0  0  0  0  0  0  0  0
    0.3833   -0.0008    1.9525 C   0  0  0  0  0  0  0  0  0  0  0  0
    1.5803   -0.2304    2.1189 O   0  0  0  0  0  0  0  0  0  0  0  0
   -0.4170    0.3858    2.9541 N   0  0  0  0  0  0  0  0  0  0  0  0
   -1.3850    0.5669    2.7398 H   0  0  0  0  0  0  0  0  0  0  0  0
    0.0265    0.5600    4.3358 C   0  0  0  0  0  0  0  0  0  0  0  0
    0.8964    1.2200    4.3632 H   0  0  0  0  0  0  0  0  0  0  0  0
   -0.7726    0.9946    4.9382 H   0  0  0  0  0  0  0  0  0  0  0  0
    0.3119   -0.4069    4.7547 H   0  0  0  0  0  0  0  0  0  0  0  0
  5  6  2  0  0  0  0
  5  7  1  0  0  0  0
  2  3  1  0  0  0  0
  2  4  1  0  0  0  0
  2  5  1  0  0  0  0
  1  2  1  0  0  0  0
 24 25  2  0  0  0  0
 24 26  1  0  0  0  0
 20 21  1  0  0  0  0
 20 22  1  0  0  0  0
 20 23  1  0  0  0  0
 17 18  1  0  0  0  0
 17 19  1  0  0  0  0
 17 20  1  0  0  0  0
 13 14  1  0  0  0  0
 13 15  1  0  0  0  0
 13 16  1  0  0  0  0
 11 12  1  0  0  0  0
 11 13  1  0  0  0  0
 11 17  1  0  0  0  0
  9 10  1  0  0  0  0
  9 11  1  0  0  0  0
  9 24  1  0  0  0  0
  7  8  1  0  0  0  0
  7  9  1  0  0  0  0
 28 29  1  0  0  0  0
 28 30  1  0  0  0  0
 28 31  1  0  0  0  0
 26 27  1  0  0  0  0
 26 28  1  0  0  0  0
M  END
$$$$
default_name
  -OEChem-02102213163D

 31 30  0     1  0  0  0  0  0999 V2000
   -3.0760   -3.6390    1.5496 H   0  0  0  0  0  0  0  0  0  0  0  0
   -3.0940   -2.6290    1.1426 C   0  0  0  0  0  0  0  0  0  0  0  0
   -3.7160   -1.9930    1.7706 H   0  0  0  0  0  0  0  0  0  0  0  0
   -3.4880   -2.6500    0.1286 H   0  0  0  0  0  0  0  0  0  0  0  0
   -1.6860   -2.0850    1.1196 C   0  0  0  0  0  0  0  0  0  0  0  0
   -0.7540   -2.7700    1.5226 O   0  0  0  0  0  0  0  0  0  0  0  0
   -1.5320   -0.8490    0.6496 N   0  0  0  0  0  0  0  0  0  0  0  0
   -2.3500   -0.3360    0.3566 H   0  0  0  0  0  0  0  0  0  0  0  0
   -0.2470   -0.1410    0.5576 C   0  0  1  0  0  0  0  0  0  0  0  0
    0.4239   -0.7541   -0.0450 H   0  0  0  0  0  0  0  0  0  0  0  0
   -0.4317    1.2160   -0.1683 C   0  0  1  0  0  0  0  0  0  0  0  0
   -1.3548    1.6598    0.2094 H   0  0  0  0  0  0  0  0  0  0  0  0
    0.7161    2.2010    0.1246 C   0  0  0  0  0  0  0  0  0  0  0  0
    1.6526    1.8371   -0.3017 H   0  0  0  0  0  0  0  0  0  0  0  0
    0.4909    3.1800   -0.2953 H   0  0  0  0  0  0  0  0  0  0  0  0
    0.8432    2.3218    1.2010 H   0  0  0  0  0  0  0  0  0  0  0  0
   -0.6084    1.0110   -1.6896 C   0  0  0  0  0  0  0  0  0  0  0  0
   -0.0990    0.0990   -2.0039 H   0  0  0  0  0  0  0  0  0  0  0  0
   -1.6707    0.9018   -1.9077 H   0  0  0  0  0  0  0  0  0  0  0  0
   -0.0854    2.1802   -2.5350 C   0  0  0  0  0  0  0  0  0  0  0  0
    0.9965    2.2683   -2.4378 H   0  0  0  0  0  0  0  0  0  0  0  0
   -0.3259    2.0017   -3.5832 H   0  0  0  0  0  0  0  0  0  0  0  0
   -0.5568    3.1107   -2.2168 H   0  0  0  0  0  0  0  0  0  0  0  0
    0.3833   -0.0008    1.9525 C   0  0  0  0  0  0  0  0  0  0  0  0
    1.5803   -0.2304    2.1189 O   0  0  0  0  0  0  0  0  0  0  0  0
   -0.4170    0.3858    2.9541 N   0  0  0  0  0  0  0  0  0  0  0  0
   -1.3850    0.5669    2.7398 H   0  0  0  0  0  0  0  0  0  0  0  0
    0.0265    0.5600    4.3358 C   0  0  0  0  0  0  0  0  0  0  0  0
    0.8964    1.2200    4.3632 H   0  0  0  0  0  0  0  0  0  0  0  0
   -0.7726    0.9946    4.9382 H   0  0  0  0  0  0  0  0  0  0  0  0
    0.3119   -0.4069    4.7547 H   0  0  0  0  0  0  0  0  0  0  0  0
  5  6  2  0  0  0  0
  5  7  1  0  0  0  0
  2  3  1  0  0  0  0
  2  4  1  0  0  0  0
  2  5  1  0  0  0  0
  1  2  1  0  0  0  0
 24 25  2  0  0  0  0
 24 26  1  0  0  0  0
 20 21  1  0  0  0  0
 20 22  1  0  0  0  0
 20 23  1  0  0  0  0
 17 18  1  0  0  0  0
 17 19  1  0  0  0  0
 17 20  1  0  0  0  0
 13 14  1  0  0  0  0
 13 15  1  0  0  0  0
 13 16  1  0  0  0  0
 11 12  1  0  0  0  0
 11 13  1  0  0  0  0
 11 17  1  0  0  0  0
  9 10  1  0  0  0  0
  9 11  1  0  0  0  0
  9 24  1  0  0  0  0
  7  8  1  0  0  0  0
  7  9  1  0  0  0  0
 28 29  1  0  0  0  0
 28 30  1  0  0  0  0
 28 31  1  0  0  0  0
 26 27  1  0  0  0  0
 26 28  1  0  0  0  0
M  END
$$$$
default_name
  -OEChem-02102213163D

 31 30  0     1  0  0  0  0  0999 V2000
   -3.0760   -3.6390    1.5496 H   0  0  0  0  0  0  0  0  0  0  0  0
   -3.0940   -2.6290    1.1426 C   0  0  0  0  0  0  0  0  0  0  0  0
   -3.7160   -1.9930    1.7706 H   0  0  0  0  0  0  0  0  0  0  0  0
   -3.4880   -2.6500    0.1286 H   0  0  0  0  0  0  0  0  0  0  0  0
   -1.6860   -2.0850    1.1196 C   0  0  0  0  0  0  0  0  0  0  0  0
   -0.7540   -2.7700    1.5226 O   0  0  0  0  0  0  0  0  0  0  0  0
   -1.5320   -0.8490    0.6496 N   0  0  0  0  0  0  0  0  0  0  0  0
   -2.3500   -0.3360    0.3566 H   0  0  0  0  0  0  0  0  0  0  0  0
   -0.2470   -0.1410    0.5576 C   0  0  1  0  0  0  0  0  0  0  0  0
    0.4239   -0.7541   -0.0450 H   0  0  0  0  0  0  0  0  0  0  0  0
   -0.4317    1.2160   -0.1683 C   0  0  1  0  0  0  0  0  0  0  0  0
   -1.3548    1.6598    0.2094 H   0  0  0  0  0  0  0  0  0  0  0  0
    0.7161    2.2010    0.1246 C   0  0  0  0  0  0  0  0  0  0  0  0
    1.6526    1.8371   -0.3017 H   0  0  0  0  0  0  0  0  0  0  0  0
    0.4909    3.1800   -0.2953 H   0  0  0  0  0  0  0  0  0  0  0  0
    0.8432    2.3218    1.2010 H   0  0  0  0  0  0  0  0  0  0  0  0
   -0.6084    1.0110   -1.6896 C   0  0  0  0  0  0  0  0  0  0  0  0
   -0.3394   -0.0107   -1.9612 H   0  0  0  0  0  0  0  0  0  0  0  0
   -1.6562    1.1682   -1.9452 H   0  0  0  0  0  0  0  0  0  0  0  0
    0.2214    1.9793   -2.5435 C   0  0  0  0  0  0  0  0  0  0  0  0
    1.2864    1.7926   -2.4074 H   0  0  0  0  0  0  0  0  0  0  0  0
   -0.0246    1.8322   -3.5954 H   0  0  0  0  0  0  0  0  0  0  0  0
   -0.0063    3.0094   -2.2671 H   0  0  0  0  0  0  0  0  0  0  0  0
    0.3833   -0.0008    1.9525 C   0  0  0  0  0  0  0  0  0  0  0  0
    1.5803   -0.2304    2.1189 O   0  0  0  0  0  0  0  0  0  0  0  0
   -0.4170    0.3858    2.9541 N   0  0  0  0  0  0  0  0  0  0  0  0
   -1.3850    0.5669    2.7398 H   0  0  0  0  0  0  0  0  0  0  0  0
    0.0265    0.5600    4.3358 C   0  0  0  0  0  0  0  0  0  0  0  0
    0.8964    1.2200    4.3632 H   0  0  0  0  0  0  0  0  0  0  0  0
   -0.7726    0.9946    4.9382 H   0  0  0  0  0  0  0  0  0  0  0  0
    0.3119   -0.4069    4.7547 H   0  0  0  0  0  0  0  0  0  0  0  0
  5  6  2  0  0  0  0
  5  7  1  0  0  0  0
  2  3  1  0  0  0  0
  2  4  1  0  0  0  0
  2  5  1  0  0  0  0
  1  2  1  0  0  0  0
 24 25  2  0  0  0  0
 24 26  1  0  0  0  0
 20 21  1  0  0  0  0
 20 22  1  0  0  0  0
 20 23  1  0  0  0  0
 17 18  1  0  0  0  0
 17 19  1  0  0  0  0
 17 20  1  0  0  0  0
 13 14  1  0  0  0  0
 13 15  1  0  0  0  0
 13 16  1  0  0  0  0
 11 12  1  0  0  0  0
 11 13  1  0  0  0  0
 11 17  1  0  0  0  0
  9 10  1  0  0  0  0
  9 11  1  0  0  0  0
  9 24  1  0  0  0  0
  7  8  1  0  0  0  0
  7  9  1  0  0  0  0
 28 29  1  0  0  0  0
 28 30  1  0  0  0  0
 28 31  1  0  0  0  0
 26 27  1  0  0  0  0
 26 28  1  0  0  0  0
M  END
$$$$
default_name
  -OEChem-02102213163D

 31 30  0     1  0  0  0  0  0999 V2000
   -3.0760   -3.6390    1.5496 H   0  0  0  0  0  0  0  0  0  0  0  0
   -3.0940   -2.6290    1.1426 C   0  0  0  0  0  0  0  0  0  0  0  0
   -3.7160   -1.9930    1.7706 H   0  0  0  0  0  0  0  0  0  0  0  0
   -3.4880   -2.6500    0.1286 H   0  0  0  0  0  0  0  0  0  0  0  0
   -1.6860   -2.0850    1.1196 C   0  0  0  0  0  0  0  0  0  0  0  0
   -0.7540   -2.7700    1.5226 O   0  0  0  0  0  0  0  0  0  0  0  0
   -1.5320   -0.8490    0.6496 N   0  0  0  0  0  0  0  0  0  0  0  0
   -2.3500   -0.3360    0.3566 H   0  0  0  0  0  0  0  0  0  0  0  0
   -0.2470   -0.1410    0.5576 C   0  0  1  0  0  0  0  0  0  0  0  0
    0.4239   -0.7541   -0.0450 H   0  0  0  0  0  0  0  0  0  0  0  0
   -0.4317    1.2160   -0.1683 C   0  0  1  0  0  0  0  0  0  0  0  0
   -1.3548    1.6598    0.2094 H   0  0  0  0  0  0  0  0  0  0  0  0
    0.7161    2.2010    0.1246 C   0  0  0  0  0  0  0  0  0  0  0  0
    1.6526    1.8371   -0.3017 H   0  0  0  0  0  0  0  0  0  0  0  0
    0.4909    3.1800   -0.2953 H   0  0  0  0  0  0  0  0  0  0  0  0
    0.8432    2.3218    1.2010 H   0  0  0  0  0  0  0  0  0  0  0  0
   -0.6084    1.0110   -1.6896 C   0  0  0  0  0  0  0  0  0  0  0  0
   -0.6010   -0.0541   -1.9249 H   0  0  0  0  0  0  0  0  0  0  0  0
   -1.5730    1.4207   -1.9889 H   0  0  0  0  0  0  0  0  0  0  0  0
    0.4668    1.7068   -2.5353 C   0  0  0  0  0  0  0  0  0  0  0  0
    1.4442    1.2601   -2.3539 H   0  0  0  0  0  0  0  0  0  0  0  0
    0.2236    1.5914   -3.5918 H   0  0  0  0  0  0  0  0  0  0  0  0
    0.5013    2.7697   -2.2938 H   0  0  0  0  0  0  0  0  0  0  0  0
    0.3833   -0.0008    1.9525 C   0  0  0  0  0  0  0  0  0  0  0  0
    1.5803   -0.2304    2.1189 O   0  0  0  0  0  0  0  0  0  0  0  0
   -0.4170    0.3858    2.9541 N   0  0  0  0  0  0  0  0  0  0  0  0
   -1.3850    0.5669    2.7398 H   0  0  0  0  0  0  0  0  0  0  0  0
    0.0265    0.5600    4.3358 C   0  0  0  0  0  0  0  0  0  0  0  0
    0.8964    1.2200    4.3632 H   0  0  0  0  0  0  0  0  0  0  0  0
   -0.7726    0.9946    4.9382 H   0  0  0  0  0  0  0  0  0  0  0  0
    0.3119   -0.4069    4.7547 H   0  0  0  0  0  0  0  0  0  0  0  0
  5  6  2  0  0  0  0
  5  7  1  0  0  0  0
  2  3  1  0  0  0  0
  2  4  1  0  0  0  0
  2  5  1  0  0  0  0
  1  2  1  0  0  0  0
 24 25  2  0  0  0  0
 24 26  1  0  0  0  0
 20 21  1  0  0  0  0
 20 22  1  0  0  0  0
 20 23  1  0  0  0  0
 17 18  1  0  0  0  0
 17 19  1  0  0  0  0
 17 20  1  0  0  0  0
 13 14  1  0  0  0  0
 13 15  1  0  0  0  0
 13 16  1  0  0  0  0
 11 12  1  0  0  0  0
 11 13  1  0  0  0  0
 11 17  1  0  0  0  0
  9 10  1  0  0  0  0
  9 11  1  0  0  0  0
  9 24  1  0  0  0  0
  7  8  1  0  0  0  0
  7  9  1  0  0  0  0
 28 29  1  0  0  0  0
 28 30  1  0  0  0  0
 28 31  1  0  0  0  0
 26 27  1  0  0  0  0
 26 28  1  0  0  0  0
M  END
$$$$
default_name
  -OEChem-02102213163D

 31 30  0     1  0  0  0  0  0999 V2000
   -3.0760   -3.6390    1.5496 H   0  0  0  0  0  0  0  0  0  0  0  0
   -3.0940   -2.6290    1.1426 C   0  0  0  0  0  0  0  0  0  0  0  0
   -3.7160   -1.9930    1.7706 H   0  0  0  0  0  0  0  0  0  0  0  0
   -3.4880   -2.6500    0.1286 H   0  0  0  0  0  0  0  0  0  0  0  0
   -1.6860   -2.0850    1.1196 C   0  0  0  0  0  0  0  0  0  0  0  0
   -0.7540   -2.7700    1.5226 O   0  0  0  0  0  0  0  0  0  0  0  0
   -1.5320   -0.8490    0.6496 N   0  0  0  0  0  0  0  0  0  0  0  0
   -2.3500   -0.3360    0.3566 H   0  0  0  0  0  0  0  0  0  0  0  0
   -0.2470   -0.1410    0.5576 C   0  0  1  0  0  0  0  0  0  0  0  0
    0.4239   -0.7541   -0.0450 H   0  0  0  0  0  0  0  0  0  0  0  0
   -0.4317    1.2160   -0.1683 C   0  0  1  0  0  0  0  0  0  0  0  0
   -1.3548    1.6598    0.2094 H   0  0  0  0  0  0  0  0  0  0  0  0
    0.7161    2.2010    0.1246 C   0  0  0  0  0  0  0  0  0  0  0  0
    1.6526    1.8371   -0.3017 H   0  0  0  0  0  0  0  0  0  0  0  0
    0.4909    3.1800   -0.2953 H   0  0  0  0  0  0  0  0  0  0  0  0
    0.8432    2.3218    1.2010 H   0  0  0  0  0  0  0  0  0  0  0  0
   -0.6084    1.0110   -1.6896 C   0  0  0  0  0  0  0  0  0  0  0  0
   -0.8661   -0.0284   -1.8976 H   0  0  0  0  0  0  0  0  0  0  0  0
   -1.4268    1.6421   -2.0357 H   0  0  0  0  0  0  0  0  0  0  0  0
    0.6341    1.3813   -2.5109 C   0  0  0  0  0  0  0  0  0  0  0  0
    1.4590    0.7072   -2.2812 H   0  0  0  0  0  0  0  0  0  0  0  0
    0.4018    1.2957   -3.5726 H   0  0  0  0  0  0  0  0  0  0  0  0
    0.9315    2.4081   -2.2950 H   0  0  0  0  0  0  0  0  0  0  0  0
    0.3833   -0.0008    1.9525 C   0  0  0  0  0  0  0  0  0  0  0  0
    1.5803   -0.2304    2.1189 O   0  0  0  0  0  0  0  0  0  0  0  0
   -0.4170    0.3858    2.9541 N   0  0  0  0  0  0  0  0  0  0  0  0
   -1.3850    0.5669    2.7398 H   0  0  0  0  0  0  0  0  0  0  0  0
    0.0265    0.5600    4.3358 C   0  0  0  0  0  0  0  0  0  0  0  0
    0.8964    1.2200    4.3632 H   0  0  0  0  0  0  0  0  0  0  0  0
   -0.7726    0.9946    4.9382 H   0  0  0  0  0  0  0  0  0  0  0  0
    0.3119   -0.4069    4.7547 H   0  0  0  0  0  0  0  0  0  0  0  0
  5  6  2  0  0  0  0
  5  7  1  0  0  0  0
  2  3  1  0  0  0  0
  2  4  1  0  0  0  0
  2  5  1  0  0  0  0
  1  2  1  0  0  0  0
 24 25  2  0  0  0  0
 24 26  1  0  0  0  0
 20 21  1  0  0  0  0
 20 22  1  0  0  0  0
 20 23  1  0  0  0  0
 17 18  1  0  0  0  0
 17 19  1  0  0  0  0
 17 20  1  0  0  0  0
 13 14  1  0  0  0  0
 13 15  1  0  0  0  0
 13 16  1  0  0  0  0
 11 12  1  0  0  0  0
 11 13  1  0  0  0  0
 11 17  1  0  0  0  0
  9 10  1  0  0  0  0
  9 11  1  0  0  0  0
  9 24  1  0  0  0  0
  7  8  1  0  0  0  0
  7  9  1  0  0  0  0
 28 29  1  0  0  0  0
 28 30  1  0  0  0  0
 28 31  1  0  0  0  0
 26 27  1  0  0  0  0
 26 28  1  0  0  0  0
M  END
$$$$
default_name
  -OEChem-02102213163D

 31 30  0     1  0  0  0  0  0999 V2000
   -3.0760   -3.6390    1.5496 H   0  0  0  0  0  0  0  0  0  0  0  0
   -3.0940   -2.6290    1.1426 C   0  0  0  0  0  0  0  0  0  0  0  0
   -3.7160   -1.9930    1.7706 H   0  0  0  0  0  0  0  0  0  0  0  0
   -3.4880   -2.6500    0.1286 H   0  0  0  0  0  0  0  0  0  0  0  0
   -1.6860   -2.0850    1.1196 C   0  0  0  0  0  0  0  0  0  0  0  0
   -0.7540   -2.7700    1.5226 O   0  0  0  0  0  0  0  0  0  0  0  0
   -1.5320   -0.8490    0.6496 N   0  0  0  0  0  0  0  0  0  0  0  0
   -2.3500   -0.3360    0.3566 H   0  0  0  0  0  0  0  0  0  0  0  0
   -0.2470   -0.1410    0.5576 C   0  0  1  0  0  0  0  0  0  0  0  0
    0.4239   -0.7541   -0.0450 H   0  0  0  0  0  0  0  0  0  0  0  0
   -0.4317    1.2160   -0.1683 C   0  0  1  0  0  0  0  0  0  0  0  0
   -1.3548    1.6598    0.2094 H   0  0  0  0  0  0  0  0  0  0  0  0
    0.7161    2.2010    0.1246 C   0  0  0  0  0  0  0  0  0  0  0  0
    1.6526    1.8371   -0.3017 H   0  0  0  0  0  0  0  0  0  0  0  0
    0.4909    3.1800   -0.2953 H   0  0  0  0  0  0  0  0  0  0  0  0
    0.8432    2.3218    1.2010 H   0  0  0  0  0  0  0  0  0  0  0  0
   -0.6084    1.0110   -1.6896 C   0  0  0  0  0  0  0  0  0  0  0  0
   -1.1164    0.0649   -1.8811 H   0  0  0  0  0  0  0  0  0  0  0  0
   -1.2276    1.8173   -2.0825 H   0  0  0  0  0  0  0  0  0  0  0  0
    0.7119    1.0250   -2.4719 C   0  0  0  0  0  0  0  0  0  0  0  0
    1.3300    0.1715   -2.1940 H   0  0  0  0  0  0  0  0  0  0  0  0
    0.4980    0.9651   -3.5393 H   0  0  0  0  0  0  0  0  0  0  0  0
    1.2549    1.9491   -2.2707 H   0  0  0  0  0  0  0  0  0  0  0  0
    0.3833   -0.0008    1.9525 C   0  0  0  0  0  0  0  0  0  0  0  0
    1.5803   -0.2304    2.1189 O   0  0  0  0  0  0  0  0  0  0  0  0
   -0.4170    0.3858    2.9541 N   0  0  0  0  0  0  0  0  0  0  0  0
   -1.3850    0.5669    2.7398 H   0  0  0  0  0  0  0  0  0  0  0  0
    0.0265    0.5600    4.3358 C   0  0  0  0  0  0  0  0  0  0  0  0
    0.8964    1.2200    4.3632 H   0  0  0  0  0  0  0  0  0  0  0  0
   -0.7726    0.9946    4.9382 H   0  0  0  0  0  0  0  0  0  0  0  0
    0.3119   -0.4069    4.7547 H   0  0  0  0  0  0  0  0  0  0  0  0
  5  6  2  0  0  0  0
  5  7  1  0  0  0  0
  2  3  1  0  0  0  0
  2  4  1  0  0  0  0
  2  5  1  0  0  0  0
  1  2  1  0  0  0  0
 24 25  2  0  0  0  0
 24 26  1  0  0  0  0
 20 21  1  0  0  0  0
 20 22  1  0  0  0  0
 20 23  1  0  0  0  0
 17 18  1  0  0  0  0
 17 19  1  0  0  0  0
 17 20  1  0  0  0  0
 13 14  1  0  0  0  0
 13 15  1  0  0  0  0
 13 16  1  0  0  0  0
 11 12  1  0  0  0  0
 11 13  1  0  0  0  0
 11 17  1  0  0  0  0
  9 10  1  0  0  0  0
  9 11  1  0  0  0  0
  9 24  1  0  0  0  0
  7  8  1  0  0  0  0
  7  9  1  0  0  0  0
 28 29  1  0  0  0  0
 28 30  1  0  0  0  0
 28 31  1  0  0  0  0
 26 27  1  0  0  0  0
 26 28  1  0  0  0  0
M  END
$$$$
default_name
  -OEChem-02102213163D

 31 30  0     1  0  0  0  0  0999 V2000
   -3.0760   -3.6390    1.5496 H   0  0  0  0  0  0  0  0  0  0  0  0
   -3.0940   -2.6290    1.1426 C   0  0  0  0  0  0  0  0  0  0  0  0
   -3.7160   -1.9930    1.7706 H   0  0  0  0  0  0  0  0  0  0  0  0
   -3.4880   -2.6500    0.1286 H   0  0  0  0  0  0  0  0  0  0  0  0
   -1.6860   -2.0850    1.1196 C   0  0  0  0  0  0  0  0  0  0  0  0
   -0.7540   -2.7700    1.5226 O   0  0  0  0  0  0  0  0  0  0  0  0
   -1.5320   -0.8490    0.6496 N   0  0  0  0  0  0  0  0  0  0  0  0
   -2.3500   -0.3360    0.3566 H   0  0  0  0  0  0  0  0  0  0  0  0
   -0.2470   -0.1410    0.5576 C   0  0  1  0  0  0  0  0  0  0  0  0
    0.4239   -0.7541   -0.0450 H   0  0  0  0  0  0  0  0  0  0  0  0
   -0.4317    1.2160   -0.1683 C   0  0  1  0  0  0  0  0  0  0  0  0
   -1.3548    1.6598    0.2094 H   0  0  0  0  0  0  0  0  0  0  0  0
    0.7161    2.2010    0.1246 C   0  0  0  0  0  0  0  0  0  0  0  0
    1.6526    1.8371   -0.3017 H   0  0  0  0  0  0  0  0  0  0  0  0
    0.4909    3.1800   -0.2953 H   0  0  0  0  0  0  0  0  0  0  0  0
    0.8432    2.3218    1.2010 H   0  0  0  0  0  0  0  0  0  0  0  0
   -0.6084    1.0110   -1.6896 C   0  0  0  0  0  0  0  0  0  0  0  0
   -1.3351    0.2192   -1.8765 H   0  0  0  0  0  0  0  0  0  0  0  0
   -0.9889    1.9344   -2.1260 H   0  0  0  0  0  0  0  0  0  0  0  0
    0.6949    0.6621   -2.4210 C   0  0  0  0  0  0  0  0  0  0  0  0
    1.0658   -0.3105   -2.0983 H   0  0  0  0  0  0  0  0  0  0  0  0
    0.5055    0.6223   -3.4939 H   0  0  0  0  0  0  0  0  0  0  0  0
    1.4495    1.4241   -2.2226 H   0  0  0  0  0  0  0  0  0  0  0  0
    0.3833   -0.0008    1.9525 C   0  0  0  0  0  0  0  0  0  0  0  0
    1.5803   -0.2304    2.1189 O   0  0  0  0  0  0  0  0  0  0  0  0
   -0.4170    0.3858    2.9541 N   0  0  0  0  0  0  0  0  0  0  0  0
   -1.3850    0.5669    2.7398 H   0  0  0  0  0  0  0  0  0  0  0  0
    0.0265    0.5600    4.3358 C   0  0  0  0  0  0  0  0  0  0  0  0
    0.8964    1.2200    4.3632 H   0  0  0  0  0  0  0  0  0  0  0  0
   -0.7726    0.9946    4.9382 H   0  0  0  0  0  0  0  0  0  0  0  0
    0.3119   -0.4069    4.7547 H   0  0  0  0  0  0  0  0  0  0  0  0
  5  6  2  0  0  0  0
  5  7  1  0  0  0  0
  2  3  1  0  0  0  0
  2  4  1  0  0  0  0
  2  5  1  0  0  0  0
  1  2  1  0  0  0  0
 24 25  2  0  0  0  0
 24 26  1  0  0  0  0
 20 21  1  0  0  0  0
 20 22  1  0  0  0  0
 20 23  1  0  0  0  0
 17 18  1  0  0  0  0
 17 19  1  0  0  0  0
 17 20  1  0  0  0  0
 13 14  1  0  0  0  0
 13 15  1  0  0  0  0
 13 16  1  0  0  0  0
 11 12  1  0  0  0  0
 11 13  1  0  0  0  0
 11 17  1  0  0  0  0
  9 10  1  0  0  0  0
  9 11  1  0  0  0  0
  9 24  1  0  0  0  0
  7  8  1  0  0  0  0
  7  9  1  0  0  0  0
 28 29  1  0  0  0  0
 28 30  1  0  0  0  0
 28 31  1  0  0  0  0
 26 27  1  0  0  0  0
 26 28  1  0  0  0  0
M  END
$$$$
default_name
  -OEChem-02102213163D

 31 30  0     1  0  0  0  0  0999 V2000
   -3.0760   -3.6390    1.5496 H   0  0  0  0  0  0  0  0  0  0  0  0
   -3.0940   -2.6290    1.1426 C   0  0  0  0  0  0  0  0  0  0  0  0
   -3.7160   -1.9930    1.7706 H   0  0  0  0  0  0  0  0  0  0  0  0
   -3.4880   -2.6500    0.1286 H   0  0  0  0  0  0  0  0  0  0  0  0
   -1.6860   -2.0850    1.1196 C   0  0  0  0  0  0  0  0  0  0  0  0
   -0.7540   -2.7700    1.5226 O   0  0  0  0  0  0  0  0  0  0  0  0
   -1.5320   -0.8490    0.6496 N   0  0  0  0  0  0  0  0  0  0  0  0
   -2.3500   -0.3360    0.3566 H   0  0  0  0  0  0  0  0  0  0  0  0
   -0.2470   -0.1410    0.5576 C   0  0  1  0  0  0  0  0  0  0  0  0
    0.4239   -0.7541   -0.0450 H   0  0  0  0  0  0  0  0  0  0  0  0
   -0.4317    1.2160   -0.1683 C   0  0  1  0  0  0  0  0  0  0  0  0
   -1.3548    1.6598    0.2094 H   0  0  0  0  0  0  0  0  0  0  0  0
    0.7161    2.2010    0.1246 C   0  0  0  0  0  0  0  0  0  0  0  0
    1.6526    1.8371   -0.3017 H   0  0  0  0  0  0  0  0  0  0  0  0
    0.4909    3.1800   -0.2953 H   0  0  0  0  0  0  0  0  0  0  0  0
    0.8432    2.3218    1.2010 H   0  0  0  0  0  0  0  0  0  0  0  0
   -0.6084    1.0110   -1.6896 C   0  0  0  0  0  0  0  0  0  0  0  0
   -1.5071    0.4242   -1.8842 H   0  0  0  0  0  0  0  0  0  0  0  0
   -0.7270    1.9854   -2.1633 H   0  0  0  0  0  0  0  0  0  0  0  0
    0.5843    0.3175   -2.3617 C   0  0  0  0  0  0  0  0  0  0  0  0
    0.6846   -0.7060   -2.0008 H   0  0  0  0  0  0  0  0  0  0  0  0
    0.4238    0.2907   -3.4398 H   0  0  0  0  0  0  0  0  0  0  0  0
    1.5020    0.8688   -2.1539 H   0  0  0  0  0  0  0  0  0  0  0  0
    0.3833   -0.0008    1.9525 C   0  0  0  0  0  0  0  0  0  0  0  0
    1.5803   -0.2304    2.1189 O   0  0  0  0  0  0  0  0  0  0  0  0
   -0.4170    0.3858    2.9541 N   0  0  0  0  0  0  0  0  0  0  0  0
   -1.3850    0.5669    2.7398 H   0  0  0  0  0  0  0  0  0  0  0  0
    0.0265    0.5600    4.3358 C   0  0  0  0  0  0  0  0  0  0  0  0
    0.8964    1.2200    4.3632 H   0  0  0  0  0  0  0  0  0  0  0  0
   -0.7726    0.9946    4.9382 H   0  0  0  0  0  0  0  0  0  0  0  0
    0.3119   -0.4069    4.7547 H   0  0  0  0  0  0  0  0  0  0  0  0
  5  6  2  0  0  0  0
  5  7  1  0  0  0  0
  2  3  1  0  0  0  0
  2  4  1  0  0  0  0
  2  5  1  0  0  0  0
  1  2  1  0  0  0  0
 24 25  2  0  0  0  0
 24 26  1  0  0  0  0
 20 21  1  0  0  0  0
 20 22  1  0  0  0  0
 20 23  1  0  0  0  0
 17 18  1  0  0  0  0
 17 19  1  0  0  0  0
 17 20  1  0  0  0  0
 13 14  1  0  0  0  0
 13 15  1  0  0  0  0
 13 16  1  0  0  0  0
 11 12  1  0  0  0  0
 11 13  1  0  0  0  0
 11 17  1  0  0  0  0
  9 10  1  0  0  0  0
  9 11  1  0  0  0  0
  9 24  1  0  0  0  0
  7  8  1  0  0  0  0
  7  9  1  0  0  0  0
 28 29  1  0  0  0  0
 28 30  1  0  0  0  0
 28 31  1  0  0  0  0
 26 27  1  0  0  0  0
 26 28  1  0  0  0  0
M  END
$$$$
default_name
  -OEChem-02102213163D

 31 30  0     1  0  0  0  0  0999 V2000
   -3.0760   -3.6390    1.5496 H   0  0  0  0  0  0  0  0  0  0  0  0
   -3.0940   -2.6290    1.1426 C   0  0  0  0  0  0  0  0  0  0  0  0
   -3.7160   -1.9930    1.7706 H   0  0  0  0  0  0  0  0  0  0  0  0
   -3.4880   -2.6500    0.1286 H   0  0  0  0  0  0  0  0  0  0  0  0
   -1.6860   -2.0850    1.1196 C   0  0  0  0  0  0  0  0  0  0  0  0
   -0.7540   -2.7700    1.5226 O   0  0  0  0  0  0  0  0  0  0  0  0
   -1.5320   -0.8490    0.6496 N   0  0  0  0  0  0  0  0  0  0  0  0
   -2.3500   -0.3360    0.3566 H   0  0  0  0  0  0  0  0  0  0  0  0
   -0.2470   -0.1410    0.5576 C   0  0  1  0  0  0  0  0  0  0  0  0
    0.4239   -0.7541   -0.0450 H   0  0  0  0  0  0  0  0  0  0  0  0
   -0.4317    1.2160   -0.1683 C   0  0  1  0  0  0  0  0  0  0  0  0
   -1.3548    1.6598    0.2094 H   0  0  0  0  0  0  0  0  0  0  0  0
    0.7161    2.2010    0.1246 C   0  0  0  0  0  0  0  0  0  0  0  0
    1.6526    1.8371   -0.3017 H   0  0  0  0  0  0  0  0  0  0  0  0
    0.4909    3.1800   -0.2953 H   0  0  0  0  0  0  0  0  0  0  0  0
    0.8432    2.3218    1.2010 H   0  0  0  0  0  0  0  0  0  0  0  0
   -0.6084    1.0110   -1.6896 C   0  0  0  0  0  0  0  0  0  0  0  0
   -1.6208    0.6657   -1.9035 H   0  0  0  0  0  0  0  0  0  0  0  0
   -0.4598    1.9668   -2.1918 H   0  0  0  0  0  0  0  0  0  0  0  0
    0.3877    0.0145   -2.2981 C   0  0  0  0  0  0  0  0  0  0  0  0
    0.2122   -0.9879   -1.9079 H   0  0  0  0  0  0  0  0  0  0  0  0
    0.2586   -0.0073   -3.3804 H   0  0  0  0  0  0  0  0  0  0  0  0
    1.4089    0.3211   -2.0692 H   0  0  0  0  0  0  0  0  0  0  0  0
    0.3833   -0.0008    1.9525 C   0  0  0  0  0  0  0  0  0  0  0  0
    1.5803   -0.2304    2.1189 O   0  0  0  0  0  0  0  0  0  0  0  0
   -0.4170    0.3858    2.9541 N   0  0  0  0  0  0  0  0  0  0  0  0
   -1.3850    0.5669    2.7398 H   0  0  0  0  0  0  0  0  0  0  0  0
    0.0265    0.5600    4.3358 C   0  0  0  0  0  0  0  0  0  0  0  0
    0.8964    1.2200    4.3632 H   0  0  0  0  0  0  0  0  0  0  0  0
   -0.7726    0.9946    4.9382 H   0  0  0  0  0  0  0  0  0  0  0  0
    0.3119   -0.4069    4.7547 H   0  0  0  0  0  0  0  0  0  0  0  0
  5  6  2  0  0  0  0
  5  7  1  0  0  0  0
  2  3  1  0  0  0  0
  2  4  1  0  0  0  0
  2  5  1  0  0  0  0
  1  2  1  0  0  0  0
 24 25  2  0  0  0  0
 24 26  1  0  0  0  0
 20 21  1  0  0  0  0
 20 22  1  0  0  0  0
 20 23  1  0  0  0  0
 17 18  1  0  0  0  0
 17 19  1  0  0  0  0
 17 20  1  0  0  0  0
 13 14  1  0  0  0  0
 13 15  1  0  0  0  0
 13 16  1  0  0  0  0
 11 12  1  0  0  0  0
 11 13  1  0  0  0  0
 11 17  1  0  0  0  0
  9 10  1  0  0  0  0
  9 11  1  0  0  0  0
  9 24  1  0  0  0  0
  7  8  1  0  0  0  0
  7  9  1  0  0  0  0
 28 29  1  0  0  0  0
 28 30  1  0  0  0  0
 28 31  1  0  0  0  0
 26 27  1  0  0  0  0
 26 28  1  0  0  0  0
M  END
$$$$
default_name
  -OEChem-02102213163D

 31 30  0     1  0  0  0  0  0999 V2000
   -3.0760   -3.6390    1.5496 H   0  0  0  0  0  0  0  0  0  0  0  0
   -3.0940   -2.6290    1.1426 C   0  0  0  0  0  0  0  0  0  0  0  0
   -3.7160   -1.9930    1.7706 H   0  0  0  0  0  0  0  0  0  0  0  0
   -3.4880   -2.6500    0.1286 H   0  0  0  0  0  0  0  0  0  0  0  0
   -1.6860   -2.0850    1.1196 C   0  0  0  0  0  0  0  0  0  0  0  0
   -0.7540   -2.7700    1.5226 O   0  0  0  0  0  0  0  0  0  0  0  0
   -1.5320   -0.8490    0.6496 N   0  0  0  0  0  0  0  0  0  0  0  0
   -2.3500   -0.3360    0.3566 H   0  0  0  0  0  0  0  0  0  0  0  0
   -0.2470   -0.1410    0.5576 C   0  0  1  0  0  0  0  0  0  0  0  0
    0.4239   -0.7541   -0.0450 H   0  0  0  0  0  0  0  0  0  0  0  0
   -0.4317    1.2160   -0.1683 C   0  0  1  0  0  0  0  0  0  0  0  0
   -1.3548    1.6598    0.2094 H   0  0  0  0  0  0  0  0  0  0  0  0
    0.7161    2.2010    0.1246 C   0  0  0  0  0  0  0  0  0  0  0  0
    1.6526    1.8371   -0.3017 H   0  0  0  0  0  0  0  0  0  0  0  0
    0.4909    3.1800   -0.2953 H   0  0  0  0  0  0  0  0  0  0  0  0
    0.8432    2.3218    1.2010 H   0  0  0  0  0  0  0  0  0  0  0  0
   -0.6084    1.0110   -1.6896 C   0  0  0  0  0  0  0  0  0  0  0  0
   -1.6684    0.9274   -1.9332 H   0  0  0  0  0  0  0  0  0  0  0  0
   -0.2054    1.8800   -2.2097 H   0  0  0  0  0  0  0  0  0  0  0  0
    0.1183   -0.2262   -2.2344 C   0  0  0  0  0  0  0  0  0  0  0  0
   -0.3191   -1.1371   -1.8261 H   0  0  0  0  0  0  0  0  0  0  0  0
    0.0210   -0.2512   -3.3199 H   0  0  0  0  0  0  0  0  0  0  0  0
    1.1765   -0.1818   -1.9745 H   0  0  0  0  0  0  0  0  0  0  0  0
    0.3833   -0.0008    1.9525 C   0  0  0  0  0  0  0  0  0  0  0  0
    1.5803   -0.2304    2.1189 O   0  0  0  0  0  0  0  0  0  0  0  0
   -0.4170    0.3858    2.9541 N   0  0  0  0  0  0  0  0  0  0  0  0
   -1.3850    0.5669    2.7398 H   0  0  0  0  0  0  0  0  0  0  0  0
    0.0265    0.5600    4.3358 C   0  0  0  0  0  0  0  0  0  0  0  0
    0.8964    1.2200    4.3632 H   0  0  0  0  0  0  0  0  0  0  0  0
   -0.7726    0.9946    4.9382 H   0  0  0  0  0  0  0  0  0  0  0  0
    0.3119   -0.4069    4.7547 H   0  0  0  0  0  0  0  0  0  0  0  0
  5  6  2  0  0  0  0
  5  7  1  0  0  0  0
  2  3  1  0  0  0  0
  2  4  1  0  0  0  0
  2  5  1  0  0  0  0
  1  2  1  0  0  0  0
 24 25  2  0  0  0  0
 24 26  1  0  0  0  0
 20 21  1  0  0  0  0
 20 22  1  0  0  0  0
 20 23  1  0  0  0  0
 17 18  1  0  0  0  0
 17 19  1  0  0  0  0
 17 20  1  0  0  0  0
 13 14  1  0  0  0  0
 13 15  1  0  0  0  0
 13 16  1  0  0  0  0
 11 12  1  0  0  0  0
 11 13  1  0  0  0  0
 11 17  1  0  0  0  0
  9 10  1  0  0  0  0
  9 11  1  0  0  0  0
  9 24  1  0  0  0  0
  7  8  1  0  0  0  0
  7  9  1  0  0  0  0
 28 29  1  0  0  0  0
 28 30  1  0  0  0  0
 28 31  1  0  0  0  0
 26 27  1  0  0  0  0
 26 28  1  0  0  0  0
M  END
$$$$
default_name
  -OEChem-02102213163D

 31 30  0     1  0  0  0  0  0999 V2000
   -3.0760   -3.6390    1.5496 H   0  0  0  0  0  0  0  0  0  0  0  0
   -3.0940   -2.6290    1.1426 C   0  0  0  0  0  0  0  0  0  0  0  0
   -3.7160   -1.9930    1.7706 H   0  0  0  0  0  0  0  0  0  0  0  0
   -3.4880   -2.6500    0.1286 H   0  0  0  0  0  0  0  0  0  0  0  0
   -1.6860   -2.0850    1.1196 C   0  0  0  0  0  0  0  0  0  0  0  0
   -0.7540   -2.7700    1.5226 O   0  0  0  0  0  0  0  0  0  0  0  0
   -1.5320   -0.8490    0.6496 N   0  0  0  0  0  0  0  0  0  0  0  0
   -2.3500   -0.3360    0.3566 H   0  0  0  0  0  0  0  0  0  0  0  0
   -0.2470   -0.1410    0.5576 C   0  0  1  0  0  0  0  0  0  0  0  0
    0.4239   -0.7541   -0.0450 H   0  0  0  0  0  0  0  0  0  0  0  0
   -0.4317    1.2160   -0.1683 C   0  0  1  0  0  0  0  0  0  0  0  0
   -1.3548    1.6598    0.2094 H   0  0  0  0  0  0  0  0  0  0  0  0
    0.7161    2.2010    0.1246 C   0  0  0  0  0  0  0  0  0  0  0  0
    1.6526    1.8371   -0.3017 H   0  0  0  0  0  0  0  0  0  0  0  0
    0.4909    3.1800   -0.2953 H   0  0  0  0  0  0  0  0  0  0  0  0
    0.8432    2.3218    1.2010 H   0  0  0  0  0  0  0  0  0  0  0  0
   -0.6084    1.0110   -1.6896 C   0  0  0  0  0  0  0  0  0  0  0  0
   -1.6466    1.1915   -1.9714 H   0  0  0  0  0  0  0  0  0  0  0  0
    0.0188    1.7307   -2.2156 H   0  0  0  0  0  0  0  0  0  0  0  0
   -0.2054   -0.3881   -2.1749 C   0  0  0  0  0  0  0  0  0  0  0  0
   -0.8731   -1.1434   -1.7609 H   0  0  0  0  0  0  0  0  0  0  0  0
   -0.2727   -0.4246   -3.2625 H   0  0  0  0  0  0  0  0  0  0  0  0
    0.8206   -0.6054   -1.8761 H   0  0  0  0  0  0  0  0  0  0  0  0
    0.3833   -0.0008    1.9525 C   0  0  0  0  0  0  0  0  0  0  0  0
    1.5803   -0.2304    2.1189 O   0  0  0  0  0  0  0  0  0  0  0  0
   -0.4170    0.3858    2.9541 N   0  0  0  0  0  0  0  0  0  0  0  0
   -1.3850    0.5669    2.7398 H   0  0  0  0  0  0  0  0  0  0  0  0
    0.0265    0.5600    4.3358 C   0  0  0  0  0  0  0  0  0  0  0  0
    0.8964    1.2200    4.3632 H   0  0  0  0  0  0  0  0  0  0  0  0
   -0.7726    0.9946    4.9382 H   0  0  0  0  0  0  0  0  0  0  0  0
    0.3119   -0.4069    4.7547 H   0  0  0  0  0  0  0  0  0  0  0  0
  5  6  2  0  0  0  0
  5  7  1  0  0  0  0
  2  3  1  0  0  0  0
  2  4  1  0  0  0  0
  2  5  1  0  0  0  0
  1  2  1  0  0  0  0
 24 25  2  0  0  0  0
 24 26  1  0  0  0  0
 20 21  1  0  0  0  0
 20 22  1  0  0  0  0
 20 23  1  0  0  0  0
 17 18  1  0  0  0  0
 17 19  1  0  0  0  0
 17 20  1  0  0  0  0
 13 14  1  0  0  0  0
 13 15  1  0  0  0  0
 13 16  1  0  0  0  0
 11 12  1  0  0  0  0
 11 13  1  0  0  0  0
 11 17  1  0  0  0  0
  9 10  1  0  0  0  0
  9 11  1  0  0  0  0
  9 24  1  0  0  0  0
  7  8  1  0  0  0  0
  7  9  1  0  0  0  0
 28 29  1  0  0  0  0
 28 30  1  0  0  0  0
 28 31  1  0  0  0  0
 26 27  1  0  0  0  0
 26 28  1  0  0  0  0
M  END
$$$$
default_name
  -OEChem-02102213163D

 31 30  0     1  0  0  0  0  0999 V2000
   -3.0760   -3.6390    1.5496 H   0  0  0  0  0  0  0  0  0  0  0  0
   -3.0940   -2.6290    1.1426 C   0  0  0  0  0  0  0  0  0  0  0  0
   -3.7160   -1.9930    1.7706 H   0  0  0  0  0  0  0  0  0  0  0  0
   -3.4880   -2.6500    0.1286 H   0  0  0  0  0  0  0  0  0  0  0  0
   -1.6860   -2.0850    1.1196 C   0  0  0  0  0  0  0  0  0  0  0  0
   -0.7540   -2.7700    1.5226 O   0  0  0  0  0  0  0  0  0  0  0  0
   -1.5320   -0.8490    0.6496 N   0  0  0  0  0  0  0  0  0  0  0  0
   -2.3500   -0.3360    0.3566 H   0  0  0  0  0  0  0  0  0  0  0  0
   -0.2470   -0.1410    0.5576 C   0  0  1  0  0  0  0  0  0  0  0  0
    0.4239   -0.7541   -0.0450 H   0  0  0  0  0  0  0  0  0  0  0  0
   -0.4317    1.2160   -0.1683 C   0  0  1  0  0  0  0  0  0  0  0  0
   -1.3548    1.6598    0.2094 H   0  0  0  0  0  0  0  0  0  0  0  0
    0.7161    2.2010    0.1246 C   0  0  0  0  0  0  0  0  0  0  0  0
    1.6526    1.8371   -0.3017 H   0  0  0  0  0  0  0  0  0  0  0  0
    0.4909    3.1800   -0.2953 H   0  0  0  0  0  0  0  0  0  0  0  0
    0.8432    2.3218    1.2010 H   0  0  0  0  0  0  0  0  0  0  0  0
   -0.6084    1.0110   -1.6896 C   0  0  0  0  0  0  0  0  0  0  0  0
   -1.5570    1.4399   -2.0152 H   0  0  0  0  0  0  0  0  0  0  0  0
    0.1975    1.5292   -2.2092 H   0  0  0  0  0  0  0  0  0  0  0  0
   -0.5614   -0.4603   -2.1239 C   0  0  0  0  0  0  0  0  0  0  0  0
   -1.4121   -1.0064   -1.7168 H   0  0  0  0  0  0  0  0  0  0  0  0
   -0.6026   -0.5154   -3.2119 H   0  0  0  0  0  0  0  0  0  0  0  0
    0.3655   -0.9211   -1.7807 H   0  0  0  0  0  0  0  0  0  0  0  0
    0.3833   -0.0008    1.9525 C   0  0  0  0  0  0  0  0  0  0  0  0
    1.5803   -0.2304    2.1189 O   0  0  0  0  0  0  0  0  0  0  0  0
   -0.4170    0.3858    2.9541 N   0  0  0  0  0  0  0  0  0  0  0  0
   -1.3850    0.5669    2.7398 H   0  0  0  0  0  0  0  0  0  0  0  0
    0.0265    0.5600    4.3358 C   0  0  0  0  0  0  0  0  0  0  0  0
    0.8964    1.2200    4.3632 H   0  0  0  0  0  0  0  0  0  0  0  0
   -0.7726    0.9946    4.9382 H   0  0  0  0  0  0  0  0  0  0  0  0
    0.3119   -0.4069    4.7547 H   0  0  0  0  0  0  0  0  0  0  0  0
  5  6  2  0  0  0  0
  5  7  1  0  0  0  0
  2  3  1  0  0  0  0
  2  4  1  0  0  0  0
  2  5  1  0  0  0  0
  1  2  1  0  0  0  0
 24 25  2  0  0  0  0
 24 26  1  0  0  0  0
 20 21  1  0  0  0  0
 20 22  1  0  0  0  0
 20 23  1  0  0  0  0
 17 18  1  0  0  0  0
 17 19  1  0  0  0  0
 17 20  1  0  0  0  0
 13 14  1  0  0  0  0
 13 15  1  0  0  0  0
 13 16  1  0  0  0  0
 11 12  1  0  0  0  0
 11 13  1  0  0  0  0
 11 17  1  0  0  0  0
  9 10  1  0  0  0  0
  9 11  1  0  0  0  0
  9 24  1  0  0  0  0
  7  8  1  0  0  0  0
  7  9  1  0  0  0  0
 28 29  1  0  0  0  0
 28 30  1  0  0  0  0
 28 31  1  0  0  0  0
 26 27  1  0  0  0  0
 26 28  1  0  0  0  0
M  END
$$$$
default_name
  -OEChem-02102213163D

 31 30  0     1  0  0  0  0  0999 V2000
   -3.0760   -3.6390    1.5496 H   0  0  0  0  0  0  0  0  0  0  0  0
   -3.0940   -2.6290    1.1426 C   0  0  0  0  0  0  0  0  0  0  0  0
   -3.7160   -1.9930    1.7706 H   0  0  0  0  0  0  0  0  0  0  0  0
   -3.4880   -2.6500    0.1286 H   0  0  0  0  0  0  0  0  0  0  0  0
   -1.6860   -2.0850    1.1196 C   0  0  0  0  0  0  0  0  0  0  0  0
   -0.7540   -2.7700    1.5226 O   0  0  0  0  0  0  0  0  0  0  0  0
   -1.5320   -0.8490    0.6496 N   0  0  0  0  0  0  0  0  0  0  0  0
   -2.3500   -0.3360    0.3566 H   0  0  0  0  0  0  0  0  0  0  0  0
   -0.2470   -0.1410    0.5576 C   0  0  1  0  0  0  0  0  0  0  0  0
    0.4239   -0.7541   -0.0450 H   0  0  0  0  0  0  0  0  0  0  0  0
   -0.4317    1.2160   -0.1683 C   0  0  1  0  0  0  0  0  0  0  0  0
   -1.3548    1.6598    0.2094 H   0  0  0  0  0  0  0  0  0  0  0  0
    0.7161    2.2010    0.1246 C   0  0  0  0  0  0  0  0  0  0  0  0
    1.6526    1.8371   -0.3017 H   0  0  0  0  0  0  0  0  0  0  0  0
    0.4909    3.1800   -0.2953 H   0  0  0  0  0  0  0  0  0  0  0  0
    0.8432    2.3218    1.2010 H   0  0  0  0  0  0  0  0  0  0  0  0
   -0.6084    1.0110   -1.6896 C   0  0  0  0  0  0  0  0  0  0  0  0
   -1.4057    1.6557   -2.0619 H   0  0  0  0  0  0  0  0  0  0  0  0
    0.3186    1.2892   -2.1909 H   0  0  0  0  0  0  0  0  0  0  0  0
   -0.9254   -0.4378   -2.0846 C   0  0  0  0  0  0  0  0  0  0  0  0
   -1.8994   -0.7354   -1.6967 H   0  0  0  0  0  0  0  0  0  0  0  0
   -0.9461   -0.5176   -3.1717 H   0  0  0  0  0  0  0  0  0  0  0  0
   -0.1578   -1.1072   -1.6948 H   0  0  0  0  0  0  0  0  0  0  0  0
    0.3833   -0.0008    1.9525 C   0  0  0  0  0  0  0  0  0  0  0  0
    1.5803   -0.2304    2.1189 O   0  0  0  0  0  0  0  0  0  0  0  0
   -0.4170    0.3858    2.9541 N   0  0  0  0  0  0  0  0  0  0  0  0
   -1.3850    0.5669    2.7398 H   0  0  0  0  0  0  0  0  0  0  0  0
    0.0265    0.5600    4.3358 C   0  0  0  0  0  0  0  0  0  0  0  0
    0.8964    1.2200    4.3632 H   0  0  0  0  0  0  0  0  0  0  0  0
   -0.7726    0.9946    4.9382 H   0  0  0  0  0  0  0  0  0  0  0  0
    0.3119   -0.4069    4.7547 H   0  0  0  0  0  0  0  0  0  0  0  0
  5  6  2  0  0  0  0
  5  7  1  0  0  0  0
  2  3  1  0  0  0  0
  2  4  1  0  0  0  0
  2  5  1  0  0  0  0
  1  2  1  0  0  0  0
 24 25  2  0  0  0  0
 24 26  1  0  0  0  0
 20 21  1  0  0  0  0
 20 22  1  0  0  0  0
 20 23  1  0  0  0  0
 17 18  1  0  0  0  0
 17 19  1  0  0  0  0
 17 20  1  0  0  0  0
 13 14  1  0  0  0  0
 13 15  1  0  0  0  0
 13 16  1  0  0  0  0
 11 12  1  0  0  0  0
 11 13  1  0  0  0  0
 11 17  1  0  0  0  0
  9 10  1  0  0  0  0
  9 11  1  0  0  0  0
  9 24  1  0  0  0  0
  7  8  1  0  0  0  0
  7  9  1  0  0  0  0
 28 29  1  0  0  0  0
 28 30  1  0  0  0  0
 28 31  1  0  0  0  0
 26 27  1  0  0  0  0
 26 28  1  0  0  0  0
M  END
$$$$
default_name
  -OEChem-02102213163D

 31 30  0     1  0  0  0  0  0999 V2000
   -3.0760   -3.6390    1.5496 H   0  0  0  0  0  0  0  0  0  0  0  0
   -3.0940   -2.6290    1.1426 C   0  0  0  0  0  0  0  0  0  0  0  0
   -3.7160   -1.9930    1.7706 H   0  0  0  0  0  0  0  0  0  0  0  0
   -3.4880   -2.6500    0.1286 H   0  0  0  0  0  0  0  0  0  0  0  0
   -1.6860   -2.0850    1.1196 C   0  0  0  0  0  0  0  0  0  0  0  0
   -0.7540   -2.7700    1.5226 O   0  0  0  0  0  0  0  0  0  0  0  0
   -1.5320   -0.8490    0.6496 N   0  0  0  0  0  0  0  0  0  0  0  0
   -2.3500   -0.3360    0.3566 H   0  0  0  0  0  0  0  0  0  0  0  0
   -0.2470   -0.1410    0.5576 C   0  0  1  0  0  0  0  0  0  0  0  0
    0.4239   -0.7541   -0.0450 H   0  0  0  0  0  0  0  0  0  0  0  0
   -0.4317    1.2160   -0.1683 C   0  0  1  0  0  0  0  0  0  0  0  0
   -1.3548    1.6598    0.2094 H   0  0  0  0  0  0  0  0  0  0  0  0
    0.7161    2.2010    0.1246 C   0  0  0  0  0  0  0  0  0  0  0  0
    1.6526    1.8371   -0.3017 H   0  0  0  0  0  0  0  0  0  0  0  0
    0.4909    3.1800   -0.2953 H   0  0  0  0  0  0  0  0  0  0  0  0
    0.8432    2.3218    1.2010 H   0  0  0  0  0  0  0  0  0  0  0  0
   -0.6084    1.0110   -1.6896 C   0  0  0  0  0  0  0  0  0  0  0  0
   -1.2029    1.8242   -2.1081 H   0  0  0  0  0  0  0  0  0  0  0  0
    0.3738    1.0271   -2.1620 H   0  0  0  0  0  0  0  0  0  0  0  0
   -1.2726   -0.3221   -2.0599 C   0  0  0  0  0  0  0  0  0  0  0  0
   -2.3017   -0.3489   -1.7021 H   0  0  0  0  0  0  0  0  0  0  0  0
   -1.2798   -0.4310   -3.1446 H   0  0  0  0  0  0  0  0  0  0  0  0
   -0.7136   -1.1511   -1.6243 H   0  0  0  0  0  0  0  0  0  0  0  0
    0.3833   -0.0008    1.9525 C   0  0  0  0  0  0  0  0  0  0  0  0
    1.5803   -0.2304    2.1189 O   0  0  0  0  0  0  0  0  0  0  0  0
   -0.4170    0.3858    2.9541 N   0  0  0  0  0  0  0  0  0  0  0  0
   -1.3850    0.5669    2.7398 H   0  0  0  0  0  0  0  0  0  0  0  0
    0.0265    0.5600    4.3358 C   0  0  0  0  0  0  0  0  0  0  0  0
    0.8964    1.2200    4.3632 H   0  0  0  0  0  0  0  0  0  0  0  0
   -0.7726    0.9946    4.9382 H   0  0  0  0  0  0  0  0  0  0  0  0
    0.3119   -0.4069    4.7547 H   0  0  0  0  0  0  0  0  0  0  0  0
  5  6  2  0  0  0  0
  5  7  1  0  0  0  0
  2  3  1  0  0  0  0
  2  4  1  0  0  0  0
  2  5  1  0  0  0  0
  1  2  1  0  0  0  0
 24 25  2  0  0  0  0
 24 26  1  0  0  0  0
 20 21  1  0  0  0  0
 20 22  1  0  0  0  0
 20 23  1  0  0  0  0
 17 18  1  0  0  0  0
 17 19  1  0  0  0  0
 17 20  1  0  0  0  0
 13 14  1  0  0  0  0
 13 15  1  0  0  0  0
 13 16  1  0  0  0  0
 11 12  1  0  0  0  0
 11 13  1  0  0  0  0
 11 17  1  0  0  0  0
  9 10  1  0  0  0  0
  9 11  1  0  0  0  0
  9 24  1  0  0  0  0
  7  8  1  0  0  0  0
  7  9  1  0  0  0  0
 28 29  1  0  0  0  0
 28 30  1  0  0  0  0
 28 31  1  0  0  0  0
 26 27  1  0  0  0  0
 26 28  1  0  0  0  0
M  END
$$$$
default_name
  -OEChem-02102213163D

 31 30  0     1  0  0  0  0  0999 V2000
   -3.0760   -3.6390    1.5496 H   0  0  0  0  0  0  0  0  0  0  0  0
   -3.0940   -2.6290    1.1426 C   0  0  0  0  0  0  0  0  0  0  0  0
   -3.7160   -1.9930    1.7706 H   0  0  0  0  0  0  0  0  0  0  0  0
   -3.4880   -2.6500    0.1286 H   0  0  0  0  0  0  0  0  0  0  0  0
   -1.6860   -2.0850    1.1196 C   0  0  0  0  0  0  0  0  0  0  0  0
   -0.7540   -2.7700    1.5226 O   0  0  0  0  0  0  0  0  0  0  0  0
   -1.5320   -0.8490    0.6496 N   0  0  0  0  0  0  0  0  0  0  0  0
   -2.3500   -0.3360    0.3566 H   0  0  0  0  0  0  0  0  0  0  0  0
   -0.2470   -0.1410    0.5576 C   0  0  1  0  0  0  0  0  0  0  0  0
    0.4239   -0.7541   -0.0450 H   0  0  0  0  0  0  0  0  0  0  0  0
   -0.4317    1.2160   -0.1683 C   0  0  1  0  0  0  0  0  0  0  0  0
   -1.3548    1.6598    0.2094 H   0  0  0  0  0  0  0  0  0  0  0  0
    0.7161    2.2010    0.1246 C   0  0  0  0  0  0  0  0  0  0  0  0
    1.6526    1.8371   -0.3017 H   0  0  0  0  0  0  0  0  0  0  0  0
    0.4909    3.1800   -0.2953 H   0  0  0  0  0  0  0  0  0  0  0  0
    0.8432    2.3218    1.2010 H   0  0  0  0  0  0  0  0  0  0  0  0
   -0.6084    1.0110   -1.6896 C   0  0  0  0  0  0  0  0  0  0  0  0
   -0.9625    1.9339   -2.1508 H   0  0  0  0  0  0  0  0  0  0  0  0
    0.3593    0.7607   -2.1244 H   0  0  0  0  0  0  0  0  0  0  0  0
   -1.5793   -0.1212   -2.0513 C   0  0  0  0  0  0  0  0  0  0  0  0
   -2.5915    0.1268   -1.7325 H   0  0  0  0  0  0  0  0  0  0  0  0
   -1.5811   -0.2616   -3.1325 H   0  0  0  0  0  0  0  0  0  0  0  0
   -1.2641   -1.0497   -1.5741 H   0  0  0  0  0  0  0  0  0  0  0  0
    0.3833   -0.0008    1.9525 C   0  0  0  0  0  0  0  0  0  0  0  0
    1.5803   -0.2304    2.1189 O   0  0  0  0  0  0  0  0  0  0  0  0
   -0.4170    0.3858    2.9541 N   0  0  0  0  0  0  0  0  0  0  0  0
   -1.3850    0.5669    2.7398 H   0  0  0  0  0  0  0  0  0  0  0  0
    0.0265    0.5600    4.3358 C   0  0  0  0  0  0  0  0  0  0  0  0
    0.8964    1.2200    4.3632 H   0  0  0  0  0  0  0  0  0  0  0  0
   -0.7726    0.9946    4.9382 H   0  0  0  0  0  0  0  0  0  0  0  0
    0.3119   -0.4069    4.7547 H   0  0  0  0  0  0  0  0  0  0  0  0
  5  6  2  0  0  0  0
  5  7  1  0  0  0  0
  2  3  1  0  0  0  0
  2  4  1  0  0  0  0
  2  5  1  0  0  0  0
  1  2  1  0  0  0  0
 24 25  2  0  0  0  0
 24 26  1  0  0  0  0
 20 21  1  0  0  0  0
 20 22  1  0  0  0  0
 20 23  1  0  0  0  0
 17 18  1  0  0  0  0
 17 19  1  0  0  0  0
 17 20  1  0  0  0  0
 13 14  1  0  0  0  0
 13 15  1  0  0  0  0
 13 16  1  0  0  0  0
 11 12  1  0  0  0  0
 11 13  1  0  0  0  0
 11 17  1  0  0  0  0
  9 10  1  0  0  0  0
  9 11  1  0  0  0  0
  9 24  1  0  0  0  0
  7  8  1  0  0  0  0
  7  9  1  0  0  0  0
 28 29  1  0  0  0  0
 28 30  1  0  0  0  0
 28 31  1  0  0  0  0
 26 27  1  0  0  0  0
 26 28  1  0  0  0  0
M  END
$$$$
default_name
  -OEChem-02102213163D

 31 30  0     1  0  0  0  0  0999 V2000
   -3.0760   -3.6390    1.5496 H   0  0  0  0  0  0  0  0  0  0  0  0
   -3.0940   -2.6290    1.1426 C   0  0  0  0  0  0  0  0  0  0  0  0
   -3.7160   -1.9930    1.7706 H   0  0  0  0  0  0  0  0  0  0  0  0
   -3.4880   -2.6500    0.1286 H   0  0  0  0  0  0  0  0  0  0  0  0
   -1.6860   -2.0850    1.1196 C   0  0  0  0  0  0  0  0  0  0  0  0
   -0.7540   -2.7700    1.5226 O   0  0  0  0  0  0  0  0  0  0  0  0
   -1.5320   -0.8490    0.6496 N   0  0  0  0  0  0  0  0  0  0  0  0
   -2.3500   -0.3360    0.3566 H   0  0  0  0  0  0  0  0  0  0  0  0
   -0.2470   -0.1410    0.5576 C   0  0  1  0  0  0  0  0  0  0  0  0
    0.4239   -0.7541   -0.0450 H   0  0  0  0  0  0  0  0  0  0  0  0
   -0.4317    1.2160   -0.1683 C   0  0  1  0  0  0  0  0  0  0  0  0
   -1.3548    1.6598    0.2094 H   0  0  0  0  0  0  0  0  0  0  0  0
    0.7161    2.2010    0.1246 C   0  0  0  0  0  0  0  0  0  0  0  0
    1.6526    1.8371   -0.3017 H   0  0  0  0  0  0  0  0  0  0  0  0
    0.4909    3.1800   -0.2953 H   0  0  0  0  0  0  0  0  0  0  0  0
    0.8432    2.3218    1.2010 H   0  0  0  0  0  0  0  0  0  0  0  0
   -0.6084    1.0110   -1.6896 C   0  0  0  0  0  0  0  0  0  0  0  0
   -0.7008    1.9773   -2.1871 H   0  0  0  0  0  0  0  0  0  0  0  0
    0.2761    0.5082   -2.0807 H   0  0  0  0  0  0  0  0  0  0  0  0
   -1.8247    0.1513   -2.0595 C   0  0  0  0  0  0  0  0  0  0  0  0
   -2.7493    0.6593   -1.7859 H   0  0  0  0  0  0  0  0  0  0  0  0
   -1.8293   -0.0207   -3.1361 H   0  0  0  0  0  0  0  0  0  0  0  0
   -1.7717   -0.8100   -1.5474 H   0  0  0  0  0  0  0  0  0  0  0  0
    0.3833   -0.0008    1.9525 C   0  0  0  0  0  0  0  0  0  0  0  0
    1.5803   -0.2304    2.1189 O   0  0  0  0  0  0  0  0  0  0  0  0
   -0.4170    0.3858    2.9541 N   0  0  0  0  0  0  0  0  0  0  0  0
   -1.3850    0.5669    2.7398 H   0  0  0  0  0  0  0  0  0  0  0  0
    0.0265    0.5600    4.3358 C   0  0  0  0  0  0  0  0  0  0  0  0
    0.8964    1.2200    4.3632 H   0  0  0  0  0  0  0  0  0  0  0  0
   -0.7726    0.9946    4.9382 H   0  0  0  0  0  0  0  0  0  0  0  0
    0.3119   -0.4069    4.7547 H   0  0  0  0  0  0  0  0  0  0  0  0
  5  6  2  0  0  0  0
  5  7  1  0  0  0  0
  2  3  1  0  0  0  0
  2  4  1  0  0  0  0
  2  5  1  0  0  0  0
  1  2  1  0  0  0  0
 24 25  2  0  0  0  0
 24 26  1  0  0  0  0
 20 21  1  0  0  0  0
 20 22  1  0  0  0  0
 20 23  1  0  0  0  0
 17 18  1  0  0  0  0
 17 19  1  0  0  0  0
 17 20  1  0  0  0  0
 13 14  1  0  0  0  0
 13 15  1  0  0  0  0
 13 16  1  0  0  0  0
 11 12  1  0  0  0  0
 11 13  1  0  0  0  0
 11 17  1  0  0  0  0
  9 10  1  0  0  0  0
  9 11  1  0  0  0  0
  9 24  1  0  0  0  0
  7  8  1  0  0  0  0
  7  9  1  0  0  0  0
 28 29  1  0  0  0  0
 28 30  1  0  0  0  0
 28 31  1  0  0  0  0
 26 27  1  0  0  0  0
 26 28  1  0  0  0  0
M  END
$$$$
default_name
  -OEChem-02102213163D

 31 30  0     1  0  0  0  0  0999 V2000
   -3.0760   -3.6390    1.5496 H   0  0  0  0  0  0  0  0  0  0  0  0
   -3.0940   -2.6290    1.1426 C   0  0  0  0  0  0  0  0  0  0  0  0
   -3.7160   -1.9930    1.7706 H   0  0  0  0  0  0  0  0  0  0  0  0
   -3.4880   -2.6500    0.1286 H   0  0  0  0  0  0  0  0  0  0  0  0
   -1.6860   -2.0850    1.1196 C   0  0  0  0  0  0  0  0  0  0  0  0
   -0.7540   -2.7700    1.5226 O   0  0  0  0  0  0  0  0  0  0  0  0
   -1.5320   -0.8490    0.6496 N   0  0  0  0  0  0  0  0  0  0  0  0
   -2.3500   -0.3360    0.3566 H   0  0  0  0  0  0  0  0  0  0  0  0
   -0.2470   -0.1410    0.5576 C   0  0  1  0  0  0  0  0  0  0  0  0
    0.4239   -0.7541   -0.0450 H   0  0  0  0  0  0  0  0  0  0  0  0
   -0.4317    1.2160   -0.1683 C   0  0  1  0  0  0  0  0  0  0  0  0
   -1.3548    1.6598    0.2094 H   0  0  0  0  0  0  0  0  0  0  0  0
    0.7161    2.2010    0.1246 C   0  0  0  0  0  0  0  0  0  0  0  0
    1.6526    1.8371   -0.3017 H   0  0  0  0  0  0  0  0  0  0  0  0
    0.4909    3.1800   -0.2953 H   0  0  0  0  0  0  0  0  0  0  0  0
    0.8432    2.3218    1.2010 H   0  0  0  0  0  0  0  0  0  0  0  0
   -0.6084    1.0110   -1.6896 C   0  0  0  0  0  0  0  0  0  0  0  0
   -0.4358    1.9515   -2.2144 H   0  0  0  0  0  0  0  0  0  0  0  0
    0.1299    0.2868   -2.0339 H   0  0  0  0  0  0  0  0  0  0  0  0
   -1.9920    0.4768   -2.0840 C   0  0  0  0  0  0  0  0  0  0  0  0
   -2.7641    1.2122   -1.8587 H   0  0  0  0  0  0  0  0  0  0  0  0
   -2.0075    0.2750   -3.1553 H   0  0  0  0  0  0  0  0  0  0  0  0
   -2.2019   -0.4484   -1.5462 H   0  0  0  0  0  0  0  0  0  0  0  0
    0.3833   -0.0008    1.9525 C   0  0  0  0  0  0  0  0  0  0  0  0
    1.5803   -0.2304    2.1189 O   0  0  0  0  0  0  0  0  0  0  0  0
   -0.4170    0.3858    2.9541 N   0  0  0  0  0  0  0  0  0  0  0  0
   -1.3850    0.5669    2.7398 H   0  0  0  0  0  0  0  0  0  0  0  0
    0.0265    0.5600    4.3358 C   0  0  0  0  0  0  0  0  0  0  0  0
    0.8964    1.2200    4.3632 H   0  0  0  0  0  0  0  0  0  0  0  0
   -0.7726    0.9946    4.9382 H   0  0  0  0  0  0  0  0  0  0  0  0
    0.3119   -0.4069    4.7547 H   0  0  0  0  0  0  0  0  0  0  0  0
  5  6  2  0  0  0  0
  5  7  1  0  0  0  0
  2  3  1  0  0  0  0
  2  4  1  0  0  0  0
  2  5  1  0  0  0  0
  1  2  1  0  0  0  0
 24 25  2  0  0  0  0
 24 26  1  0  0  0  0
 20 21  1  0  0  0  0
 20 22  1  0  0  0  0
 20 23  1  0  0  0  0
 17 18  1  0  0  0  0
 17 19  1  0  0  0  0
 17 20  1  0  0  0  0
 13 14  1  0  0  0  0
 13 15  1  0  0  0  0
 13 16  1  0  0  0  0
 11 12  1  0  0  0  0
 11 13  1  0  0  0  0
 11 17  1  0  0  0  0
  9 10  1  0  0  0  0
  9 11  1  0  0  0  0
  9 24  1  0  0  0  0
  7  8  1  0  0  0  0
  7  9  1  0  0  0  0
 28 29  1  0  0  0  0
 28 30  1  0  0  0  0
 28 31  1  0  0  0  0
 26 27  1  0  0  0  0
 26 28  1  0  0  0  0
M  END
$$$$
default_name
  -OEChem-02102213163D

 31 30  0     1  0  0  0  0  0999 V2000
   -3.0760   -3.6390    1.5496 H   0  0  0  0  0  0  0  0  0  0  0  0
   -3.0940   -2.6290    1.1426 C   0  0  0  0  0  0  0  0  0  0  0  0
   -3.7160   -1.9930    1.7706 H   0  0  0  0  0  0  0  0  0  0  0  0
   -3.4880   -2.6500    0.1286 H   0  0  0  0  0  0  0  0  0  0  0  0
   -1.6860   -2.0850    1.1196 C   0  0  0  0  0  0  0  0  0  0  0  0
   -0.7540   -2.7700    1.5226 O   0  0  0  0  0  0  0  0  0  0  0  0
   -1.5320   -0.8490    0.6496 N   0  0  0  0  0  0  0  0  0  0  0  0
   -2.3500   -0.3360    0.3566 H   0  0  0  0  0  0  0  0  0  0  0  0
   -0.2470   -0.1410    0.5576 C   0  0  1  0  0  0  0  0  0  0  0  0
    0.4239   -0.7541   -0.0450 H   0  0  0  0  0  0  0  0  0  0  0  0
   -0.4317    1.2160   -0.1683 C   0  0  1  0  0  0  0  0  0  0  0  0
   -1.3548    1.6598    0.2094 H   0  0  0  0  0  0  0  0  0  0  0  0
    0.7161    2.2010    0.1246 C   0  0  0  0  0  0  0  0  0  0  0  0
    1.6526    1.8371   -0.3017 H   0  0  0  0  0  0  0  0  0  0  0  0
    0.4909    3.1800   -0.2953 H   0  0  0  0  0  0  0  0  0  0  0  0
    0.8432    2.3218    1.2010 H   0  0  0  0  0  0  0  0  0  0  0  0
   -0.6084    1.0110   -1.6896 C   0  0  0  0  0  0  0  0  0  0  0  0
   -0.1855    1.8583   -2.2309 H   0  0  0  0  0  0  0  0  0  0  0  0
   -0.0694    0.1116   -1.9872 H   0  0  0  0  0  0  0  0  0  0  0  0
   -2.0698    0.8331   -2.1229 C   0  0  0  0  0  0  0  0  0  0  0  0
   -2.6351    1.7479   -1.9459 H   0  0  0  0  0  0  0  0  0  0  0  0
   -2.1037    0.6056   -3.1886 H   0  0  0  0  0  0  0  0  0  0  0  0
   -2.5253    0.0106   -1.5704 H   0  0  0  0  0  0  0  0  0  0  0  0
    0.3833   -0.0008    1.9525 C   0  0  0  0  0  0  0  0  0  0  0  0
    1.5803   -0.2304    2.1189 O   0  0  0  0  0  0  0  0  0  0  0  0
   -0.4170    0.3858    2.9541 N   0  0  0  0  0  0  0  0  0  0  0  0
   -1.3850    0.5669    2.7398 H   0  0  0  0  0  0  0  0  0  0  0  0
    0.0265    0.5600    4.3358 C   0  0  0  0  0  0  0  0  0  0  0  0
    0.8964    1.2200    4.3632 H   0  0  0  0  0  0  0  0  0  0  0  0
   -0.7726    0.9946    4.9382 H   0  0  0  0  0  0  0  0  0  0  0  0
    0.3119   -0.4069    4.7547 H   0  0  0  0  0  0  0  0  0  0  0  0
  5  6  2  0  0  0  0
  5  7  1  0  0  0  0
  2  3  1  0  0  0  0
  2  4  1  0  0  0  0
  2  5  1  0  0  0  0
  1  2  1  0  0  0  0
 24 25  2  0  0  0  0
 24 26  1  0  0  0  0
 20 21  1  0  0  0  0
 20 22  1  0  0  0  0
 20 23  1  0  0  0  0
 17 18  1  0  0  0  0
 17 19  1  0  0  0  0
 17 20  1  0  0  0  0
 13 14  1  0  0  0  0
 13 15  1  0  0  0  0
 13 16  1  0  0  0  0
 11 12  1  0  0  0  0
 11 13  1  0  0  0  0
 11 17  1  0  0  0  0
  9 10  1  0  0  0  0
  9 11  1  0  0  0  0
  9 24  1  0  0  0  0
  7  8  1  0  0  0  0
  7  9  1  0  0  0  0
 28 29  1  0  0  0  0
 28 30  1  0  0  0  0
 28 31  1  0  0  0  0
 26 27  1  0  0  0  0
 26 28  1  0  0  0  0
M  END
$$$$
default_name
  -OEChem-02102213163D

 31 30  0     1  0  0  0  0  0999 V2000
   -3.0760   -3.6390    1.5496 H   0  0  0  0  0  0  0  0  0  0  0  0
   -3.0940   -2.6290    1.1426 C   0  0  0  0  0  0  0  0  0  0  0  0
   -3.7160   -1.9930    1.7706 H   0  0  0  0  0  0  0  0  0  0  0  0
   -3.4880   -2.6500    0.1286 H   0  0  0  0  0  0  0  0  0  0  0  0
   -1.6860   -2.0850    1.1196 C   0  0  0  0  0  0  0  0  0  0  0  0
   -0.7540   -2.7700    1.5226 O   0  0  0  0  0  0  0  0  0  0  0  0
   -1.5320   -0.8490    0.6496 N   0  0  0  0  0  0  0  0  0  0  0  0
   -2.3500   -0.3360    0.3566 H   0  0  0  0  0  0  0  0  0  0  0  0
   -0.2470   -0.1410    0.5576 C   0  0  1  0  0  0  0  0  0  0  0  0
    0.4239   -0.7541   -0.0450 H   0  0  0  0  0  0  0  0  0  0  0  0
   -0.4317    1.2160   -0.1683 C   0  0  1  0  0  0  0  0  0  0  0  0
   -1.3548    1.6598    0.2094 H   0  0  0  0  0  0  0  0  0  0  0  0
    0.7161    2.2010    0.1246 C   0  0  0  0  0  0  0  0  0  0  0  0
    1.6526    1.8371   -0.3017 H   0  0  0  0  0  0  0  0  0  0  0  0
    0.4909    3.1800   -0.2953 H   0  0  0  0  0  0  0  0  0  0  0  0
    0.8432    2.3218    1.2010 H   0  0  0  0  0  0  0  0  0  0  0  0
   -0.6084    1.0110   -1.6896 C   0  0  0  0  0  0  0  0  0  0  0  0
    0.0332    1.7040   -2.2355 H   0  0  0  0  0  0  0  0  0  0  0  0
   -0.3081   -0.0055   -1.9437 H   0  0  0  0  0  0  0  0  0  0  0  0
   -2.0529    1.1960   -2.1738 C   0  0  0  0  0  0  0  0  0  0  0  0
   -2.3710    2.2299   -2.0415 H   0  0  0  0  0  0  0  0  0  0  0  0
   -2.1112    0.9483   -3.2339 H   0  0  0  0  0  0  0  0  0  0  0  0
   -2.7199    0.5356   -1.6186 H   0  0  0  0  0  0  0  0  0  0  0  0
    0.3833   -0.0008    1.9525 C   0  0  0  0  0  0  0  0  0  0  0  0
    1.5803   -0.2304    2.1189 O   0  0  0  0  0  0  0  0  0  0  0  0
   -0.4170    0.3858    2.9541 N   0  0  0  0  0  0  0  0  0  0  0  0
   -1.3850    0.5669    2.7398 H   0  0  0  0  0  0  0  0  0  0  0  0
    0.0265    0.5600    4.3358 C   0  0  0  0  0  0  0  0  0  0  0  0
    0.8964    1.2200    4.3632 H   0  0  0  0  0  0  0  0  0  0  0  0
   -0.7726    0.9946    4.9382 H   0  0  0  0  0  0  0  0  0  0  0  0
    0.3119   -0.4069    4.7547 H   0  0  0  0  0  0  0  0  0  0  0  0
  5  6  2  0  0  0  0
  5  7  1  0  0  0  0
  2  3  1  0  0  0  0
  2  4  1  0  0  0  0
  2  5  1  0  0  0  0
  1  2  1  0  0  0  0
 24 25  2  0  0  0  0
 24 26  1  0  0  0  0
 20 21  1  0  0  0  0
 20 22  1  0  0  0  0
 20 23  1  0  0  0  0
 17 18  1  0  0  0  0
 17 19  1  0  0  0  0
 17 20  1  0  0  0  0
 13 14  1  0  0  0  0
 13 15  1  0  0  0  0
 13 16  1  0  0  0  0
 11 12  1  0  0  0  0
 11 13  1  0  0  0  0
 11 17  1  0  0  0  0
  9 10  1  0  0  0  0
  9 11  1  0  0  0  0
  9 24  1  0  0  0  0
  7  8  1  0  0  0  0
  7  9  1  0  0  0  0
 28 29  1  0  0  0  0
 28 30  1  0  0  0  0
 28 31  1  0  0  0  0
 26 27  1  0  0  0  0
 26 28  1  0  0  0  0
M  END
$$$$
default_name
  -OEChem-02102213163D

 31 30  0     1  0  0  0  0  0999 V2000
   -3.0760   -3.6390    1.5496 H   0  0  0  0  0  0  0  0  0  0  0  0
   -3.0940   -2.6290    1.1426 C   0  0  0  0  0  0  0  0  0  0  0  0
   -3.7160   -1.9930    1.7706 H   0  0  0  0  0  0  0  0  0  0  0  0
   -3.4880   -2.6500    0.1286 H   0  0  0  0  0  0  0  0  0  0  0  0
   -1.6860   -2.0850    1.1196 C   0  0  0  0  0  0  0  0  0  0  0  0
   -0.7540   -2.7700    1.5226 O   0  0  0  0  0  0  0  0  0  0  0  0
   -1.5320   -0.8490    0.6496 N   0  0  0  0  0  0  0  0  0  0  0  0
   -2.3500   -0.3360    0.3566 H   0  0  0  0  0  0  0  0  0  0  0  0
   -0.2470   -0.1410    0.5576 C   0  0  1  0  0  0  0  0  0  0  0  0
    0.4239   -0.7541   -0.0450 H   0  0  0  0  0  0  0  0  0  0  0  0
   -0.4317    1.2160   -0.1683 C   0  0  1  0  0  0  0  0  0  0  0  0
   -1.3548    1.6598    0.2094 H   0  0  0  0  0  0  0  0  0  0  0  0
    0.7161    2.2010    0.1246 C   0  0  0  0  0  0  0  0  0  0  0  0
    1.6526    1.8371   -0.3017 H   0  0  0  0  0  0  0  0  0  0  0  0
    0.4909    3.1800   -0.2953 H   0  0  0  0  0  0  0  0  0  0  0  0
    0.8432    2.3218    1.2010 H   0  0  0  0  0  0  0  0  0  0  0  0
   -0.6084    1.0110   -1.6896 C   0  0  0  0  0  0  0  0  0  0  0  0
    0.2052    1.4990   -2.2279 H   0  0  0  0  0  0  0  0  0  0  0  0
   -0.5700   -0.0565   -1.9064 H   0  0  0  0  0  0  0  0  0  0  0  0
   -1.9423    1.5406   -2.2331 C   0  0  0  0  0  0  0  0  0  0  0  0
   -1.9897    2.6254   -2.1391 H   0  0  0  0  0  0  0  0  0  0  0  0
   -2.0295    1.2800   -3.2881 H   0  0  0  0  0  0  0  0  0  0  0  0
   -2.7725    1.0909   -1.6873 H   0  0  0  0  0  0  0  0  0  0  0  0
    0.3833   -0.0008    1.9525 C   0  0  0  0  0  0  0  0  0  0  0  0
    1.5803   -0.2304    2.1189 O   0  0  0  0  0  0  0  0  0  0  0  0
   -0.4170    0.3858    2.9541 N   0  0  0  0  0  0  0  0  0  0  0  0
   -1.3850    0.5669    2.7398 H   0  0  0  0  0  0  0  0  0  0  0  0
    0.0265    0.5600    4.3358 C   0  0  0  0  0  0  0  0  0  0  0  0
    0.8964    1.2200    4.3632 H   0  0  0  0  0  0  0  0  0  0  0  0
   -0.7726    0.9946    4.9382 H   0  0  0  0  0  0  0  0  0  0  0  0
    0.3119   -0.4069    4.7547 H   0  0  0  0  0  0  0  0  0  0  0  0
  5  6  2  0  0  0  0
  5  7  1  0  0  0  0
  2  3  1  0  0  0  0
  2  4  1  0  0  0  0
  2  5  1  0  0  0  0
  1  2  1  0  0  0  0
 24 25  2  0  0  0  0
 24 26  1  0  0  0  0
 20 21  1  0  0  0  0
 20 22  1  0  0  0  0
 20 23  1  0  0  0  0
 17 18  1  0  0  0  0
 17 19  1  0  0  0  0
 17 20  1  0  0  0  0
 13 14  1  0  0  0  0
 13 15  1  0  0  0  0
 13 16  1  0  0  0  0
 11 12  1  0  0  0  0
 11 13  1  0  0  0  0
 11 17  1  0  0  0  0
  9 10  1  0  0  0  0
  9 11  1  0  0  0  0
  9 24  1  0  0  0  0
  7  8  1  0  0  0  0
  7  9  1  0  0  0  0
 28 29  1  0  0  0  0
 28 30  1  0  0  0  0
 28 31  1  0  0  0  0
 26 27  1  0  0  0  0
 26 28  1  0  0  0  0
M  END
$$$$
default_name
  -OEChem-02102213163D

 31 30  0     1  0  0  0  0  0999 V2000
   -3.0760   -3.6390    1.5496 H   0  0  0  0  0  0  0  0  0  0  0  0
   -3.0940   -2.6290    1.1426 C   0  0  0  0  0  0  0  0  0  0  0  0
   -3.7160   -1.9930    1.7706 H   0  0  0  0  0  0  0  0  0  0  0  0
   -3.4880   -2.6500    0.1286 H   0  0  0  0  0  0  0  0  0  0  0  0
   -1.6860   -2.0850    1.1196 C   0  0  0  0  0  0  0  0  0  0  0  0
   -0.7540   -2.7700    1.5226 O   0  0  0  0  0  0  0  0  0  0  0  0
   -1.5320   -0.8490    0.6496 N   0  0  0  0  0  0  0  0  0  0  0  0
   -2.3500   -0.3360    0.3566 H   0  0  0  0  0  0  0  0  0  0  0  0
   -0.2470   -0.1410    0.5576 C   0  0  1  0  0  0  0  0  0  0  0  0
    0.4239   -0.7541   -0.0450 H   0  0  0  0  0  0  0  0  0  0  0  0
   -0.4317    1.2160   -0.1683 C   0  0  1  0  0  0  0  0  0  0  0  0
   -1.3548    1.6598    0.2094 H   0  0  0  0  0  0  0  0  0  0  0  0
    0.7161    2.2010    0.1246 C   0  0  0  0  0  0  0  0  0  0  0  0
    1.6526    1.8371   -0.3017 H   0  0  0  0  0  0  0  0  0  0  0  0
    0.4909    3.1800   -0.2953 H   0  0  0  0  0  0  0  0  0  0  0  0
    0.8432    2.3218    1.2010 H   0  0  0  0  0  0  0  0  0  0  0  0
   -0.6084    1.0110   -1.6896 C   0  0  0  0  0  0  0  0  0  0  0  0
    0.3189    1.2575   -2.2085 H   0  0  0  0  0  0  0  0  0  0  0  0
   -0.8372   -0.0380   -1.8778 H   0  0  0  0  0  0  0  0  0  0  0  0
   -1.7456    1.8436   -2.2968 C   0  0  0  0  0  0  0  0  0  0  0  0
   -1.5173    2.9073   -2.2319 H   0  0  0  0  0  0  0  0  0  0  0  0
   -1.8643    1.5780   -3.3475 H   0  0  0  0  0  0  0  0  0  0  0  0
   -2.6794    1.6386   -1.7719 H   0  0  0  0  0  0  0  0  0  0  0  0
    0.3833   -0.0008    1.9525 C   0  0  0  0  0  0  0  0  0  0  0  0
    1.5803   -0.2304    2.1189 O   0  0  0  0  0  0  0  0  0  0  0  0
   -0.4170    0.3858    2.9541 N   0  0  0  0  0  0  0  0  0  0  0  0
   -1.3850    0.5669    2.7398 H   0  0  0  0  0  0  0  0  0  0  0  0
    0.0265    0.5600    4.3358 C   0  0  0  0  0  0  0  0  0  0  0  0
    0.8964    1.2200    4.3632 H   0  0  0  0  0  0  0  0  0  0  0  0
   -0.7726    0.9946    4.9382 H   0  0  0  0  0  0  0  0  0  0  0  0
    0.3119   -0.4069    4.7547 H   0  0  0  0  0  0  0  0  0  0  0  0
  5  6  2  0  0  0  0
  5  7  1  0  0  0  0
  2  3  1  0  0  0  0
  2  4  1  0  0  0  0
  2  5  1  0  0  0  0
  1  2  1  0  0  0  0
 24 25  2  0  0  0  0
 24 26  1  0  0  0  0
 20 21  1  0  0  0  0
 20 22  1  0  0  0  0
 20 23  1  0  0  0  0
 17 18  1  0  0  0  0
 17 19  1  0  0  0  0
 17 20  1  0  0  0  0
 13 14  1  0  0  0  0
 13 15  1  0  0  0  0
 13 16  1  0  0  0  0
 11 12  1  0  0  0  0
 11 13  1  0  0  0  0
 11 17  1  0  0  0  0
  9 10  1  0  0  0  0
  9 11  1  0  0  0  0
  9 24  1  0  0  0  0
  7  8  1  0  0  0  0
  7  9  1  0  0  0  0
 28 29  1  0  0  0  0
 28 30  1  0  0  0  0
 28 31  1  0  0  0  0
 26 27  1  0  0  0  0
 26 28  1  0  0  0  0
M  END
$$$$
default_name
  -OEChem-02102213163D

 31 30  0     1  0  0  0  0  0999 V2000
   -3.0760   -3.6390    1.5496 H   0  0  0  0  0  0  0  0  0  0  0  0
   -3.0940   -2.6290    1.1426 C   0  0  0  0  0  0  0  0  0  0  0  0
   -3.7160   -1.9930    1.7706 H   0  0  0  0  0  0  0  0  0  0  0  0
   -3.4880   -2.6500    0.1286 H   0  0  0  0  0  0  0  0  0  0  0  0
   -1.6860   -2.0850    1.1196 C   0  0  0  0  0  0  0  0  0  0  0  0
   -0.7540   -2.7700    1.5226 O   0  0  0  0  0  0  0  0  0  0  0  0
   -1.5320   -0.8490    0.6496 N   0  0  0  0  0  0  0  0  0  0  0  0
   -2.3500   -0.3360    0.3566 H   0  0  0  0  0  0  0  0  0  0  0  0
   -0.2470   -0.1410    0.5576 C   0  0  1  0  0  0  0  0  0  0  0  0
    0.4239   -0.7541   -0.0450 H   0  0  0  0  0  0  0  0  0  0  0  0
   -0.4317    1.2160   -0.1683 C   0  0  1  0  0  0  0  0  0  0  0  0
   -1.3548    1.6598    0.2094 H   0  0  0  0  0  0  0  0  0  0  0  0
    0.7161    2.2010    0.1246 C   0  0  0  0  0  0  0  0  0  0  0  0
    1.6526    1.8371   -0.3017 H   0  0  0  0  0  0  0  0  0  0  0  0
    0.4909    3.1800   -0.2953 H   0  0  0  0  0  0  0  0  0  0  0  0
    0.8432    2.3218    1.2010 H   0  0  0  0  0  0  0  0  0  0  0  0
   -0.6084    1.0110   -1.6896 C   0  0  0  0  0  0  0  0  0  0  0  0
    0.3665    0.9957   -2.1788 H   0  0  0  0  0  0  0  0  0  0  0  0
   -1.0916    0.0489   -1.8600 H   0  0  0  0  0  0  0  0  0  0  0  0
   -1.4763    2.0843   -2.3605 C   0  0  0  0  0  0  0  0  0  0  0  0
   -0.9860    3.0565   -2.3137 H   0  0  0  0  0  0  0  0  0  0  0  0
   -1.6267    1.8219   -3.4079 H   0  0  0  0  0  0  0  0  0  0  0  0
   -2.4469    2.1415   -1.8667 H   0  0  0  0  0  0  0  0  0  0  0  0
    0.3833   -0.0008    1.9525 C   0  0  0  0  0  0  0  0  0  0  0  0
    1.5803   -0.2304    2.1189 O   0  0  0  0  0  0  0  0  0  0  0  0
   -0.4170    0.3858    2.9541 N   0  0  0  0  0  0  0  0  0  0  0  0
   -1.3850    0.5669    2.7398 H   0  0  0  0  0  0  0  0  0  0  0  0
    0.0265    0.5600    4.3358 C   0  0  0  0  0  0  0  0  0  0  0  0
    0.8964    1.2200    4.3632 H   0  0  0  0  0  0  0  0  0  0  0  0
   -0.7726    0.9946    4.9382 H   0  0  0  0  0  0  0  0  0  0  0  0
    0.3119   -0.4069    4.7547 H   0  0  0  0  0  0  0  0  0  0  0  0
  5  6  2  0  0  0  0
  5  7  1  0  0  0  0
  2  3  1  0  0  0  0
  2  4  1  0  0  0  0
  2  5  1  0  0  0  0
  1  2  1  0  0  0  0
 24 25  2  0  0  0  0
 24 26  1  0  0  0  0
 20 21  1  0  0  0  0
 20 22  1  0  0  0  0
 20 23  1  0  0  0  0
 17 18  1  0  0  0  0
 17 19  1  0  0  0  0
 17 20  1  0  0  0  0
 13 14  1  0  0  0  0
 13 15  1  0  0  0  0
 13 16  1  0  0  0  0
 11 12  1  0  0  0  0
 11 13  1  0  0  0  0
 11 17  1  0  0  0  0
  9 10  1  0  0  0  0
  9 11  1  0  0  0  0
  9 24  1  0  0  0  0
  7  8  1  0  0  0  0
  7  9  1  0  0  0  0
 28 29  1  0  0  0  0
 28 30  1  0  0  0  0
 28 31  1  0  0  0  0
 26 27  1  0  0  0  0
 26 28  1  0  0  0  0
M  END
$$$$
default_name
  -OEChem-02102213163D

 31 30  0     1  0  0  0  0  0999 V2000
   -3.0760   -3.6390    1.5496 H   0  0  0  0  0  0  0  0  0  0  0  0
   -3.0940   -2.6290    1.1426 C   0  0  0  0  0  0  0  0  0  0  0  0
   -3.7160   -1.9930    1.7706 H   0  0  0  0  0  0  0  0  0  0  0  0
   -3.4880   -2.6500    0.1286 H   0  0  0  0  0  0  0  0  0  0  0  0
   -1.6860   -2.0850    1.1196 C   0  0  0  0  0  0  0  0  0  0  0  0
   -0.7540   -2.7700    1.5226 O   0  0  0  0  0  0  0  0  0  0  0  0
   -1.5320   -0.8490    0.6496 N   0  0  0  0  0  0  0  0  0  0  0  0
   -2.3500   -0.3360    0.3566 H   0  0  0  0  0  0  0  0  0  0  0  0
   -0.2470   -0.1410    0.5576 C   0  0  1  0  0  0  0  0  0  0  0  0
    0.4239   -0.7541   -0.0450 H   0  0  0  0  0  0  0  0  0  0  0  0
   -0.4317    1.2160   -0.1683 C   0  0  1  0  0  0  0  0  0  0  0  0
   -1.3548    1.6598    0.2094 H   0  0  0  0  0  0  0  0  0  0  0  0
    0.7161    2.2010    0.1246 C   0  0  0  0  0  0  0  0  0  0  0  0
    1.6526    1.8371   -0.3017 H   0  0  0  0  0  0  0  0  0  0  0  0
    0.4909    3.1800   -0.2953 H   0  0  0  0  0  0  0  0  0  0  0  0
    0.8432    2.3218    1.2010 H   0  0  0  0  0  0  0  0  0  0  0  0
   -0.6084    1.0110   -1.6896 C   0  0  0  0  0  0  0  0  0  0  0  0
    0.3447    0.7317   -2.1407 H   0  0  0  0  0  0  0  0  0  0  0  0
   -1.3158    0.1982   -1.8541 H   0  0  0  0  0  0  0  0  0  0  0  0
   -1.1526    2.2462   -2.4199 C   0  0  0  0  0  0  0  0  0  0  0  0
   -0.4320    3.0628   -2.3789 H   0  0  0  0  0  0  0  0  0  0  0  0
   -1.3330    1.9952   -3.4654 H   0  0  0  0  0  0  0  0  0  0  0  0
   -2.0911    2.5651   -1.9651 H   0  0  0  0  0  0  0  0  0  0  0  0
    0.3833   -0.0008    1.9525 C   0  0  0  0  0  0  0  0  0  0  0  0
    1.5803   -0.2304    2.1189 O   0  0  0  0  0  0  0  0  0  0  0  0
   -0.4170    0.3858    2.9541 N   0  0  0  0  0  0  0  0  0  0  0  0
   -1.3850    0.5669    2.7398 H   0  0  0  0  0  0  0  0  0  0  0  0
    0.0265    0.5600    4.3358 C   0  0  0  0  0  0  0  0  0  0  0  0
    0.8964    1.2200    4.3632 H   0  0  0  0  0  0  0  0  0  0  0  0
   -0.7726    0.9946    4.9382 H   0  0  0  0  0  0  0  0  0  0  0  0
    0.3119   -0.4069    4.7547 H   0  0  0  0  0  0  0  0  0  0  0  0
  5  6  2  0  0  0  0
  5  7  1  0  0  0  0
  2  3  1  0  0  0  0
  2  4  1  0  0  0  0
  2  5  1  0  0  0  0
  1  2  1  0  0  0  0
 24 25  2  0  0  0  0
 24 26  1  0  0  0  0
 20 21  1  0  0  0  0
 20 22  1  0  0  0  0
 20 23  1  0  0  0  0
 17 18  1  0  0  0  0
 17 19  1  0  0  0  0
 17 20  1  0  0  0  0
 13 14  1  0  0  0  0
 13 15  1  0  0  0  0
 13 16  1  0  0  0  0
 11 12  1  0  0  0  0
 11 13  1  0  0  0  0
 11 17  1  0  0  0  0
  9 10  1  0  0  0  0
  9 11  1  0  0  0  0
  9 24  1  0  0  0  0
  7  8  1  0  0  0  0
  7  9  1  0  0  0  0
 28 29  1  0  0  0  0
 28 30  1  0  0  0  0
 28 31  1  0  0  0  0
 26 27  1  0  0  0  0
 26 28  1  0  0  0  0
M  END
$$$$
default_name
  -OEChem-02102213163D

 31 30  0     1  0  0  0  0  0999 V2000
   -3.0760   -3.6390    1.5496 H   0  0  0  0  0  0  0  0  0  0  0  0
   -3.0940   -2.6290    1.1426 C   0  0  0  0  0  0  0  0  0  0  0  0
   -3.7160   -1.9930    1.7706 H   0  0  0  0  0  0  0  0  0  0  0  0
   -3.4880   -2.6500    0.1286 H   0  0  0  0  0  0  0  0  0  0  0  0
   -1.6860   -2.0850    1.1196 C   0  0  0  0  0  0  0  0  0  0  0  0
   -0.7540   -2.7700    1.5226 O   0  0  0  0  0  0  0  0  0  0  0  0
   -1.5320   -0.8490    0.6496 N   0  0  0  0  0  0  0  0  0  0  0  0
   -2.3500   -0.3360    0.3566 H   0  0  0  0  0  0  0  0  0  0  0  0
   -0.2470   -0.1410    0.5576 C   0  0  1  0  0  0  0  0  0  0  0  0
    0.4239   -0.7541   -0.0450 H   0  0  0  0  0  0  0  0  0  0  0  0
   -0.4317    1.2160   -0.1683 C   0  0  1  0  0  0  0  0  0  0  0  0
   -1.1853    1.7778    0.3869 H   0  0  0  0  0  0  0  0  0  0  0  0
    0.8604    2.0549   -0.1852 C   0  0  0  0  0  0  0  0  0  0  0  0
    1.6252    1.5698   -0.7943 H   0  0  0  0  0  0  0  0  0  0  0  0
    0.6620    3.0471   -0.5873 H   0  0  0  0  0  0  0  0  0  0  0  0
    1.2434    2.1770    0.8286 H   0  0  0  0  0  0  0  0  0  0  0  0
   -0.9742    1.0090   -1.6003 C   0  0  0  0  0  0  0  0  0  0  0  0
   -0.2948    0.3709   -2.1670 H   0  0  0  0  0  0  0  0  0  0  0  0
   -1.9415    0.5103   -1.5401 H   0  0  0  0  0  0  0  0  0  0  0  0
   -1.1807    2.3163   -2.3771 C   0  0  0  0  0  0  0  0  0  0  0  0
   -0.2251    2.8070   -2.5608 H   0  0  0  0  0  0  0  0  0  0  0  0
   -1.6464    2.0940   -3.3375 H   0  0  0  0  0  0  0  0  0  0  0  0
   -1.8320    2.9859   -1.8142 H   0  0  0  0  0  0  0  0  0  0  0  0
    0.3833   -0.0008    1.9525 C   0  0  0  0  0  0  0  0  0  0  0  0
    1.5803   -0.2304    2.1189 O   0  0  0  0  0  0  0  0  0  0  0  0
   -0.4170    0.3858    2.9541 N   0  0  0  0  0  0  0  0  0  0  0  0
   -1.3850    0.5669    2.7398 H   0  0  0  0  0  0  0  0  0  0  0  0
    0.0265    0.5600    4.3358 C   0  0  0  0  0  0  0  0  0  0  0  0
    0.8964    1.2200    4.3632 H   0  0  0  0  0  0  0  0  0  0  0  0
   -0.7726    0.9946    4.9382 H   0  0  0  0  0  0  0  0  0  0  0  0
    0.3119   -0.4069    4.7547 H   0  0  0  0  0  0  0  0  0  0  0  0
  5  6  2  0  0  0  0
  5  7  1  0  0  0  0
  2  3  1  0  0  0  0
  2  4  1  0  0  0  0
  2  5  1  0  0  0  0
  1  2  1  0  0  0  0
 24 25  2  0  0  0  0
 24 26  1  0  0  0  0
 20 21  1  0  0  0  0
 20 22  1  0  0  0  0
 20 23  1  0  0  0  0
 17 18  1  0  0  0  0
 17 19  1  0  0  0  0
 17 20  1  0  0  0  0
 13 14  1  0  0  0  0
 13 15  1  0  0  0  0
 13 16  1  0  0  0  0
 11 12  1  0  0  0  0
 11 13  1  0  0  0  0
 11 17  1  0  0  0  0
  9 10  1  0  0  0  0
  9 11  1  0  0  0  0
  9 24  1  0  0  0  0
  7  8  1  0  0  0  0
  7  9  1  0  0  0  0
 28 29  1  0  0  0  0
 28 30  1  0  0  0  0
 28 31  1  0  0  0  0
 26 27  1  0  0  0  0
 26 28  1  0  0  0  0
M  END
$$$$
default_name
  -OEChem-02102213163D

 31 30  0     1  0  0  0  0  0999 V2000
   -3.0760   -3.6390    1.5496 H   0  0  0  0  0  0  0  0  0  0  0  0
   -3.0940   -2.6290    1.1426 C   0  0  0  0  0  0  0  0  0  0  0  0
   -3.7160   -1.9930    1.7706 H   0  0  0  0  0  0  0  0  0  0  0  0
   -3.4880   -2.6500    0.1286 H   0  0  0  0  0  0  0  0  0  0  0  0
   -1.6860   -2.0850    1.1196 C   0  0  0  0  0  0  0  0  0  0  0  0
   -0.7540   -2.7700    1.5226 O   0  0  0  0  0  0  0  0  0  0  0  0
   -1.5320   -0.8490    0.6496 N   0  0  0  0  0  0  0  0  0  0  0  0
   -2.3500   -0.3360    0.3566 H   0  0  0  0  0  0  0  0  0  0  0  0
   -0.2470   -0.1410    0.5576 C   0  0  1  0  0  0  0  0  0  0  0  0
    0.4239   -0.7541   -0.0450 H   0  0  0  0  0  0  0  0  0  0  0  0
   -0.4317    1.2160   -0.1683 C   0  0  1  0  0  0  0  0  0  0  0  0
   -1.1853    1.7778    0.3869 H   0  0  0  0  0  0  0  0  0  0  0  0
    0.8604    2.0549   -0.1852 C   0  0  0  0  0  0  0  0  0  0  0  0
    1.6252    1.5698   -0.7943 H   0  0  0  0  0  0  0  0  0  0  0  0
    0.6620    3.0471   -0.5873 H   0  0  0  0  0  0  0  0  0  0  0  0
    1.2434    2.1770    0.8286 H   0  0  0  0  0  0  0  0  0  0  0  0
   -0.9742    1.0090   -1.6003 C   0  0  0  0  0  0  0  0  0  0  0  0
   -0.4558    0.1765   -2.0779 H   0  0  0  0  0  0  0  0  0  0  0  0
   -2.0344    0.7632   -1.5414 H   0  0  0  0  0  0  0  0  0  0  0  0
   -0.8406    2.2479   -2.4961 C   0  0  0  0  0  0  0  0  0  0  0  0
    0.2093    2.4770   -2.6776 H   0  0  0  0  0  0  0  0  0  0  0  0
   -1.3234    2.0527   -3.4539 H   0  0  0  0  0  0  0  0  0  0  0  0
   -1.3240    3.1037   -2.0237 H   0  0  0  0  0  0  0  0  0  0  0  0
    0.3833   -0.0008    1.9525 C   0  0  0  0  0  0  0  0  0  0  0  0
    1.5803   -0.2304    2.1189 O   0  0  0  0  0  0  0  0  0  0  0  0
   -0.4170    0.3858    2.9541 N   0  0  0  0  0  0  0  0  0  0  0  0
   -1.3850    0.5669    2.7398 H   0  0  0  0  0  0  0  0  0  0  0  0
    0.0265    0.5600    4.3358 C   0  0  0  0  0  0  0  0  0  0  0  0
    0.8964    1.2200    4.3632 H   0  0  0  0  0  0  0  0  0  0  0  0
   -0.7726    0.9946    4.9382 H   0  0  0  0  0  0  0  0  0  0  0  0
    0.3119   -0.4069    4.7547 H   0  0  0  0  0  0  0  0  0  0  0  0
  5  6  2  0  0  0  0
  5  7  1  0  0  0  0
  2  3  1  0  0  0  0
  2  4  1  0  0  0  0
  2  5  1  0  0  0  0
  1  2  1  0  0  0  0
 24 25  2  0  0  0  0
 24 26  1  0  0  0  0
 20 21  1  0  0  0  0
 20 22  1  0  0  0  0
 20 23  1  0  0  0  0
 17 18  1  0  0  0  0
 17 19  1  0  0  0  0
 17 20  1  0  0  0  0
 13 14  1  0  0  0  0
 13 15  1  0  0  0  0
 13 16  1  0  0  0  0
 11 12  1  0  0  0  0
 11 13  1  0  0  0  0
 11 17  1  0  0  0  0
  9 10  1  0  0  0  0
  9 11  1  0  0  0  0
  9 24  1  0  0  0  0
  7  8  1  0  0  0  0
  7  9  1  0  0  0  0
 28 29  1  0  0  0  0
 28 30  1  0  0  0  0
 28 31  1  0  0  0  0
 26 27  1  0  0  0  0
 26 28  1  0  0  0  0
M  END
$$$$
default_name
  -OEChem-02102213163D

 31 30  0     1  0  0  0  0  0999 V2000
   -3.0760   -3.6390    1.5496 H   0  0  0  0  0  0  0  0  0  0  0  0
   -3.0940   -2.6290    1.1426 C   0  0  0  0  0  0  0  0  0  0  0  0
   -3.7160   -1.9930    1.7706 H   0  0  0  0  0  0  0  0  0  0  0  0
   -3.4880   -2.6500    0.1286 H   0  0  0  0  0  0  0  0  0  0  0  0
   -1.6860   -2.0850    1.1196 C   0  0  0  0  0  0  0  0  0  0  0  0
   -0.7540   -2.7700    1.5226 O   0  0  0  0  0  0  0  0  0  0  0  0
   -1.5320   -0.8490    0.6496 N   0  0  0  0  0  0  0  0  0  0  0  0
   -2.3500   -0.3360    0.3566 H   0  0  0  0  0  0  0  0  0  0  0  0
   -0.2470   -0.1410    0.5576 C   0  0  1  0  0  0  0  0  0  0  0  0
    0.4239   -0.7541   -0.0450 H   0  0  0  0  0  0  0  0  0  0  0  0
   -0.4317    1.2160   -0.1683 C   0  0  1  0  0  0  0  0  0  0  0  0
   -1.1853    1.7778    0.3869 H   0  0  0  0  0  0  0  0  0  0  0  0
    0.8604    2.0549   -0.1852 C   0  0  0  0  0  0  0  0  0  0  0  0
    1.6252    1.5698   -0.7943 H   0  0  0  0  0  0  0  0  0  0  0  0
    0.6620    3.0471   -0.5873 H   0  0  0  0  0  0  0  0  0  0  0  0
    1.2434    2.1770    0.8286 H   0  0  0  0  0  0  0  0  0  0  0  0
   -0.9742    1.0090   -1.6003 C   0  0  0  0  0  0  0  0  0  0  0  0
   -0.6610    0.0354   -1.9798 H   0  0  0  0  0  0  0  0  0  0  0  0
   -2.0635    1.0296   -1.5689 H   0  0  0  0  0  0  0  0  0  0  0  0
   -0.5243    2.0894   -2.5930 C   0  0  0  0  0  0  0  0  0  0  0  0
    0.5538    2.0434   -2.7455 H   0  0  0  0  0  0  0  0  0  0  0  0
   -1.0173    1.9247   -3.5514 H   0  0  0  0  0  0  0  0  0  0  0  0
   -0.7977    3.0767   -2.2191 H   0  0  0  0  0  0  0  0  0  0  0  0
    0.3833   -0.0008    1.9525 C   0  0  0  0  0  0  0  0  0  0  0  0
    1.5803   -0.2304    2.1189 O   0  0  0  0  0  0  0  0  0  0  0  0
   -0.4170    0.3858    2.9541 N   0  0  0  0  0  0  0  0  0  0  0  0
   -1.3850    0.5669    2.7398 H   0  0  0  0  0  0  0  0  0  0  0  0
    0.0265    0.5600    4.3358 C   0  0  0  0  0  0  0  0  0  0  0  0
    0.8964    1.2200    4.3632 H   0  0  0  0  0  0  0  0  0  0  0  0
   -0.7726    0.9946    4.9382 H   0  0  0  0  0  0  0  0  0  0  0  0
    0.3119   -0.4069    4.7547 H   0  0  0  0  0  0  0  0  0  0  0  0
  5  6  2  0  0  0  0
  5  7  1  0  0  0  0
  2  3  1  0  0  0  0
  2  4  1  0  0  0  0
  2  5  1  0  0  0  0
  1  2  1  0  0  0  0
 24 25  2  0  0  0  0
 24 26  1  0  0  0  0
 20 21  1  0  0  0  0
 20 22  1  0  0  0  0
 20 23  1  0  0  0  0
 17 18  1  0  0  0  0
 17 19  1  0  0  0  0
 17 20  1  0  0  0  0
 13 14  1  0  0  0  0
 13 15  1  0  0  0  0
 13 16  1  0  0  0  0
 11 12  1  0  0  0  0
 11 13  1  0  0  0  0
 11 17  1  0  0  0  0
  9 10  1  0  0  0  0
  9 11  1  0  0  0  0
  9 24  1  0  0  0  0
  7  8  1  0  0  0  0
  7  9  1  0  0  0  0
 28 29  1  0  0  0  0
 28 30  1  0  0  0  0
 28 31  1  0  0  0  0
 26 27  1  0  0  0  0
 26 28  1  0  0  0  0
M  END
$$$$
default_name
  -OEChem-02102213163D

 31 30  0     1  0  0  0  0  0999 V2000
   -3.0760   -3.6390    1.5496 H   0  0  0  0  0  0  0  0  0  0  0  0
   -3.0940   -2.6290    1.1426 C   0  0  0  0  0  0  0  0  0  0  0  0
   -3.7160   -1.9930    1.7706 H   0  0  0  0  0  0  0  0  0  0  0  0
   -3.4880   -2.6500    0.1286 H   0  0  0  0  0  0  0  0  0  0  0  0
   -1.6860   -2.0850    1.1196 C   0  0  0  0  0  0  0  0  0  0  0  0
   -0.7540   -2.7700    1.5226 O   0  0  0  0  0  0  0  0  0  0  0  0
   -1.5320   -0.8490    0.6496 N   0  0  0  0  0  0  0  0  0  0  0  0
   -2.3500   -0.3360    0.3566 H   0  0  0  0  0  0  0  0  0  0  0  0
   -0.2470   -0.1410    0.5576 C   0  0  1  0  0  0  0  0  0  0  0  0
    0.4239   -0.7541   -0.0450 H   0  0  0  0  0  0  0  0  0  0  0  0
   -0.4317    1.2160   -0.1683 C   0  0  1  0  0  0  0  0  0  0  0  0
   -1.1853    1.7778    0.3869 H   0  0  0  0  0  0  0  0  0  0  0  0
    0.8604    2.0549   -0.1852 C   0  0  0  0  0  0  0  0  0  0  0  0
    1.6252    1.5698   -0.7943 H   0  0  0  0  0  0  0  0  0  0  0  0
    0.6620    3.0471   -0.5873 H   0  0  0  0  0  0  0  0  0  0  0  0
    1.2434    2.1770    0.8286 H   0  0  0  0  0  0  0  0  0  0  0  0
   -0.9742    1.0090   -1.6003 C   0  0  0  0  0  0  0  0  0  0  0  0
   -0.8965   -0.0427   -1.8793 H   0  0  0  0  0  0  0  0  0  0  0  0
   -2.0267    1.2914   -1.6207 H   0  0  0  0  0  0  0  0  0  0  0  0
   -0.2535    1.8517   -2.6613 C   0  0  0  0  0  0  0  0  0  0  0  0
    0.7850    1.5359   -2.7597 H   0  0  0  0  0  0  0  0  0  0  0  0
   -0.7489    1.7188   -3.6233 H   0  0  0  0  0  0  0  0  0  0  0  0
   -0.2892    2.9066   -2.3872 H   0  0  0  0  0  0  0  0  0  0  0  0
    0.3833   -0.0008    1.9525 C   0  0  0  0  0  0  0  0  0  0  0  0
    1.5803   -0.2304    2.1189 O   0  0  0  0  0  0  0  0  0  0  0  0
   -0.4170    0.3858    2.9541 N   0  0  0  0  0  0  0  0  0  0  0  0
   -1.3850    0.5669    2.7398 H   0  0  0  0  0  0  0  0  0  0  0  0
    0.0265    0.5600    4.3358 C   0  0  0  0  0  0  0  0  0  0  0  0
    0.8964    1.2200    4.3632 H   0  0  0  0  0  0  0  0  0  0  0  0
   -0.7726    0.9946    4.9382 H   0  0  0  0  0  0  0  0  0  0  0  0
    0.3119   -0.4069    4.7547 H   0  0  0  0  0  0  0  0  0  0  0  0
  5  6  2  0  0  0  0
  5  7  1  0  0  0  0
  2  3  1  0  0  0  0
  2  4  1  0  0  0  0
  2  5  1  0  0  0  0
  1  2  1  0  0  0  0
 24 25  2  0  0  0  0
 24 26  1  0  0  0  0
 20 21  1  0  0  0  0
 20 22  1  0  0  0  0
 20 23  1  0  0  0  0
 17 18  1  0  0  0  0
 17 19  1  0  0  0  0
 17 20  1  0  0  0  0
 13 14  1  0  0  0  0
 13 15  1  0  0  0  0
 13 16  1  0  0  0  0
 11 12  1  0  0  0  0
 11 13  1  0  0  0  0
 11 17  1  0  0  0  0
  9 10  1  0  0  0  0
  9 11  1  0  0  0  0
  9 24  1  0  0  0  0
  7  8  1  0  0  0  0
  7  9  1  0  0  0  0
 28 29  1  0  0  0  0
 28 30  1  0  0  0  0
 28 31  1  0  0  0  0
 26 27  1  0  0  0  0
 26 28  1  0  0  0  0
M  END
$$$$
default_name
  -OEChem-02102213163D

 31 30  0     1  0  0  0  0  0999 V2000
   -3.0760   -3.6390    1.5496 H   0  0  0  0  0  0  0  0  0  0  0  0
   -3.0940   -2.6290    1.1426 C   0  0  0  0  0  0  0  0  0  0  0  0
   -3.7160   -1.9930    1.7706 H   0  0  0  0  0  0  0  0  0  0  0  0
   -3.4880   -2.6500    0.1286 H   0  0  0  0  0  0  0  0  0  0  0  0
   -1.6860   -2.0850    1.1196 C   0  0  0  0  0  0  0  0  0  0  0  0
   -0.7540   -2.7700    1.5226 O   0  0  0  0  0  0  0  0  0  0  0  0
   -1.5320   -0.8490    0.6496 N   0  0  0  0  0  0  0  0  0  0  0  0
   -2.3500   -0.3360    0.3566 H   0  0  0  0  0  0  0  0  0  0  0  0
   -0.2470   -0.1410    0.5576 C   0  0  1  0  0  0  0  0  0  0  0  0
    0.4239   -0.7541   -0.0450 H   0  0  0  0  0  0  0  0  0  0  0  0
   -0.4317    1.2160   -0.1683 C   0  0  1  0  0  0  0  0  0  0  0  0
   -1.1853    1.7778    0.3869 H   0  0  0  0  0  0  0  0  0  0  0  0
    0.8604    2.0549   -0.1852 C   0  0  0  0  0  0  0  0  0  0  0  0
    1.6252    1.5698   -0.7943 H   0  0  0  0  0  0  0  0  0  0  0  0
    0.6620    3.0471   -0.5873 H   0  0  0  0  0  0  0  0  0  0  0  0
    1.2434    2.1770    0.8286 H   0  0  0  0  0  0  0  0  0  0  0  0
   -0.9742    1.0090   -1.6003 C   0  0  0  0  0  0  0  0  0  0  0  0
   -1.1462   -0.0525   -1.7833 H   0  0  0  0  0  0  0  0  0  0  0  0
   -1.9266    1.5308   -1.6932 H   0  0  0  0  0  0  0  0  0  0  0  0
   -0.0465    1.5509   -2.6962 C   0  0  0  0  0  0  0  0  0  0  0  0
    0.8870    0.9889   -2.7193 H   0  0  0  0  0  0  0  0  0  0  0  0
   -0.5365    1.4489   -3.6648 H   0  0  0  0  0  0  0  0  0  0  0  0
    0.1671    2.6051   -2.5165 H   0  0  0  0  0  0  0  0  0  0  0  0
    0.3833   -0.0008    1.9525 C   0  0  0  0  0  0  0  0  0  0  0  0
    1.5803   -0.2304    2.1189 O   0  0  0  0  0  0  0  0  0  0  0  0
   -0.4170    0.3858    2.9541 N   0  0  0  0  0  0  0  0  0  0  0  0
   -1.3850    0.5669    2.7398 H   0  0  0  0  0  0  0  0  0  0  0  0
    0.0265    0.5600    4.3358 C   0  0  0  0  0  0  0  0  0  0  0  0
    0.8964    1.2200    4.3632 H   0  0  0  0  0  0  0  0  0  0  0  0
   -0.7726    0.9946    4.9382 H   0  0  0  0  0  0  0  0  0  0  0  0
    0.3119   -0.4069    4.7547 H   0  0  0  0  0  0  0  0  0  0  0  0
  5  6  2  0  0  0  0
  5  7  1  0  0  0  0
  2  3  1  0  0  0  0
  2  4  1  0  0  0  0
  2  5  1  0  0  0  0
  1  2  1  0  0  0  0
 24 25  2  0  0  0  0
 24 26  1  0  0  0  0
 20 21  1  0  0  0  0
 20 22  1  0  0  0  0
 20 23  1  0  0  0  0
 17 18  1  0  0  0  0
 17 19  1  0  0  0  0
 17 20  1  0  0  0  0
 13 14  1  0  0  0  0
 13 15  1  0  0  0  0
 13 16  1  0  0  0  0
 11 12  1  0  0  0  0
 11 13  1  0  0  0  0
 11 17  1  0  0  0  0
  9 10  1  0  0  0  0
  9 11  1  0  0  0  0
  9 24  1  0  0  0  0
  7  8  1  0  0  0  0
  7  9  1  0  0  0  0
 28 29  1  0  0  0  0
 28 30  1  0  0  0  0
 28 31  1  0  0  0  0
 26 27  1  0  0  0  0
 26 28  1  0  0  0  0
M  END
$$$$
default_name
  -OEChem-02102213163D

 31 30  0     1  0  0  0  0  0999 V2000
   -3.0760   -3.6390    1.5496 H   0  0  0  0  0  0  0  0  0  0  0  0
   -3.0940   -2.6290    1.1426 C   0  0  0  0  0  0  0  0  0  0  0  0
   -3.7160   -1.9930    1.7706 H   0  0  0  0  0  0  0  0  0  0  0  0
   -3.4880   -2.6500    0.1286 H   0  0  0  0  0  0  0  0  0  0  0  0
   -1.6860   -2.0850    1.1196 C   0  0  0  0  0  0  0  0  0  0  0  0
   -0.7540   -2.7700    1.5226 O   0  0  0  0  0  0  0  0  0  0  0  0
   -1.5320   -0.8490    0.6496 N   0  0  0  0  0  0  0  0  0  0  0  0
   -2.3500   -0.3360    0.3566 H   0  0  0  0  0  0  0  0  0  0  0  0
   -0.2470   -0.1410    0.5576 C   0  0  1  0  0  0  0  0  0  0  0  0
    0.4239   -0.7541   -0.0450 H   0  0  0  0  0  0  0  0  0  0  0  0
   -0.4317    1.2160   -0.1683 C   0  0  1  0  0  0  0  0  0  0  0  0
   -1.1853    1.7778    0.3869 H   0  0  0  0  0  0  0  0  0  0  0  0
    0.8604    2.0549   -0.1852 C   0  0  0  0  0  0  0  0  0  0  0  0
    1.6252    1.5698   -0.7943 H   0  0  0  0  0  0  0  0  0  0  0  0
    0.6620    3.0471   -0.5873 H   0  0  0  0  0  0  0  0  0  0  0  0
    1.2434    2.1770    0.8286 H   0  0  0  0  0  0  0  0  0  0  0  0
   -0.9742    1.0090   -1.6003 C   0  0  0  0  0  0  0  0  0  0  0  0
   -1.3930    0.0066   -1.6983 H   0  0  0  0  0  0  0  0  0  0  0  0
   -1.7700    1.7314   -1.7816 H   0  0  0  0  0  0  0  0  0  0  0  0
    0.0825    1.2075   -2.6954 C   0  0  0  0  0  0  0  0  0  0  0  0
    0.8529    0.4397   -2.6270 H   0  0  0  0  0  0  0  0  0  0  0  0
   -0.3947    1.1336   -3.6729 H   0  0  0  0  0  0  0  0  0  0  0  0
    0.5400    2.1926   -2.5982 H   0  0  0  0  0  0  0  0  0  0  0  0
    0.3833   -0.0008    1.9525 C   0  0  0  0  0  0  0  0  0  0  0  0
    1.5803   -0.2304    2.1189 O   0  0  0  0  0  0  0  0  0  0  0  0
   -0.4170    0.3858    2.9541 N   0  0  0  0  0  0  0  0  0  0  0  0
   -1.3850    0.5669    2.7398 H   0  0  0  0  0  0  0  0  0  0  0  0
    0.0265    0.5600    4.3358 C   0  0  0  0  0  0  0  0  0  0  0  0
    0.8964    1.2200    4.3632 H   0  0  0  0  0  0  0  0  0  0  0  0
   -0.7726    0.9946    4.9382 H   0  0  0  0  0  0  0  0  0  0  0  0
    0.3119   -0.4069    4.7547 H   0  0  0  0  0  0  0  0  0  0  0  0
  5  6  2  0  0  0  0
  5  7  1  0  0  0  0
  2  3  1  0  0  0  0
  2  4  1  0  0  0  0
  2  5  1  0  0  0  0
  1  2  1  0  0  0  0
 24 25  2  0  0  0  0
 24 26  1  0  0  0  0
 20 21  1  0  0  0  0
 20 22  1  0  0  0  0
 20 23  1  0  0  0  0
 17 18  1  0  0  0  0
 17 19  1  0  0  0  0
 17 20  1  0  0  0  0
 13 14  1  0  0  0  0
 13 15  1  0  0  0  0
 13 16  1  0  0  0  0
 11 12  1  0  0  0  0
 11 13  1  0  0  0  0
 11 17  1  0  0  0  0
  9 10  1  0  0  0  0
  9 11  1  0  0  0  0
  9 24  1  0  0  0  0
  7  8  1  0  0  0  0
  7  9  1  0  0  0  0
 28 29  1  0  0  0  0
 28 30  1  0  0  0  0
 28 31  1  0  0  0  0
 26 27  1  0  0  0  0
 26 28  1  0  0  0  0
M  END
$$$$
default_name
  -OEChem-02102213163D

 31 30  0     1  0  0  0  0  0999 V2000
   -3.0760   -3.6390    1.5496 H   0  0  0  0  0  0  0  0  0  0  0  0
   -3.0940   -2.6290    1.1426 C   0  0  0  0  0  0  0  0  0  0  0  0
   -3.7160   -1.9930    1.7706 H   0  0  0  0  0  0  0  0  0  0  0  0
   -3.4880   -2.6500    0.1286 H   0  0  0  0  0  0  0  0  0  0  0  0
   -1.6860   -2.0850    1.1196 C   0  0  0  0  0  0  0  0  0  0  0  0
   -0.7540   -2.7700    1.5226 O   0  0  0  0  0  0  0  0  0  0  0  0
   -1.5320   -0.8490    0.6496 N   0  0  0  0  0  0  0  0  0  0  0  0
   -2.3500   -0.3360    0.3566 H   0  0  0  0  0  0  0  0  0  0  0  0
   -0.2470   -0.1410    0.5576 C   0  0  1  0  0  0  0  0  0  0  0  0
    0.4239   -0.7541   -0.0450 H   0  0  0  0  0  0  0  0  0  0  0  0
   -0.4317    1.2160   -0.1683 C   0  0  1  0  0  0  0  0  0  0  0  0
   -1.1853    1.7778    0.3869 H   0  0  0  0  0  0  0  0  0  0  0  0
    0.8604    2.0549   -0.1852 C   0  0  0  0  0  0  0  0  0  0  0  0
    1.6252    1.5698   -0.7943 H   0  0  0  0  0  0  0  0  0  0  0  0
    0.6620    3.0471   -0.5873 H   0  0  0  0  0  0  0  0  0  0  0  0
    1.2434    2.1770    0.8286 H   0  0  0  0  0  0  0  0  0  0  0  0
   -0.9742    1.0090   -1.6003 C   0  0  0  0  0  0  0  0  0  0  0  0
   -1.6202    0.1306   -1.6301 H   0  0  0  0  0  0  0  0  0  0  0  0
   -1.5675    1.8796   -1.8797 H   0  0  0  0  0  0  0  0  0  0  0  0
    0.1247    0.8450   -2.6590 C   0  0  0  0  0  0  0  0  0  0  0  0
    0.6851   -0.0742   -2.4891 H   0  0  0  0  0  0  0  0  0  0  0  0
   -0.3330    0.7943   -3.6472 H   0  0  0  0  0  0  0  0  0  0  0  0
    0.8041    1.6974   -2.6266 H   0  0  0  0  0  0  0  0  0  0  0  0
    0.3833   -0.0008    1.9525 C   0  0  0  0  0  0  0  0  0  0  0  0
    1.5803   -0.2304    2.1189 O   0  0  0  0  0  0  0  0  0  0  0  0
   -0.4170    0.3858    2.9541 N   0  0  0  0  0  0  0  0  0  0  0  0
   -1.3850    0.5669    2.7398 H   0  0  0  0  0  0  0  0  0  0  0  0
    0.0265    0.5600    4.3358 C   0  0  0  0  0  0  0  0  0  0  0  0
    0.8964    1.2200    4.3632 H   0  0  0  0  0  0  0  0  0  0  0  0
   -0.7726    0.9946    4.9382 H   0  0  0  0  0  0  0  0  0  0  0  0
    0.3119   -0.4069    4.7547 H   0  0  0  0  0  0  0  0  0  0  0  0
  5  6  2  0  0  0  0
  5  7  1  0  0  0  0
  2  3  1  0  0  0  0
  2  4  1  0  0  0  0
  2  5  1  0  0  0  0
  1  2  1  0  0  0  0
 24 25  2  0  0  0  0
 24 26  1  0  0  0  0
 20 21  1  0  0  0  0
 20 22  1  0  0  0  0
 20 23  1  0  0  0  0
 17 18  1  0  0  0  0
 17 19  1  0  0  0  0
 17 20  1  0  0  0  0
 13 14  1  0  0  0  0
 13 15  1  0  0  0  0
 13 16  1  0  0  0  0
 11 12  1  0  0  0  0
 11 13  1  0  0  0  0
 11 17  1  0  0  0  0
  9 10  1  0  0  0  0
  9 11  1  0  0  0  0
  9 24  1  0  0  0  0
  7  8  1  0  0  0  0
  7  9  1  0  0  0  0
 28 29  1  0  0  0  0
 28 30  1  0  0  0  0
 28 31  1  0  0  0  0
 26 27  1  0  0  0  0
 26 28  1  0  0  0  0
M  END
$$$$
default_name
  -OEChem-02102213163D

 31 30  0     1  0  0  0  0  0999 V2000
   -3.0760   -3.6390    1.5496 H   0  0  0  0  0  0  0  0  0  0  0  0
   -3.0940   -2.6290    1.1426 C   0  0  0  0  0  0  0  0  0  0  0  0
   -3.7160   -1.9930    1.7706 H   0  0  0  0  0  0  0  0  0  0  0  0
   -3.4880   -2.6500    0.1286 H   0  0  0  0  0  0  0  0  0  0  0  0
   -1.6860   -2.0850    1.1196 C   0  0  0  0  0  0  0  0  0  0  0  0
   -0.7540   -2.7700    1.5226 O   0  0  0  0  0  0  0  0  0  0  0  0
   -1.5320   -0.8490    0.6496 N   0  0  0  0  0  0  0  0  0  0  0  0
   -2.3500   -0.3360    0.3566 H   0  0  0  0  0  0  0  0  0  0  0  0
   -0.2470   -0.1410    0.5576 C   0  0  1  0  0  0  0  0  0  0  0  0
    0.4239   -0.7541   -0.0450 H   0  0  0  0  0  0  0  0  0  0  0  0
   -0.4317    1.2160   -0.1683 C   0  0  1  0  0  0  0  0  0  0  0  0
   -1.1853    1.7778    0.3869 H   0  0  0  0  0  0  0  0  0  0  0  0
    0.8604    2.0549   -0.1852 C   0  0  0  0  0  0  0  0  0  0  0  0
    1.6252    1.5698   -0.7943 H   0  0  0  0  0  0  0  0  0  0  0  0
    0.6620    3.0471   -0.5873 H   0  0  0  0  0  0  0  0  0  0  0  0
    1.2434    2.1770    0.8286 H   0  0  0  0  0  0  0  0  0  0  0  0
   -0.9742    1.0090   -1.6003 C   0  0  0  0  0  0  0  0  0  0  0  0
   -1.8123    0.3111   -1.5834 H   0  0  0  0  0  0  0  0  0  0  0  0
   -1.3330    1.9652   -1.9809 H   0  0  0  0  0  0  0  0  0  0  0  0
    0.0772    0.4880   -2.5894 C   0  0  0  0  0  0  0  0  0  0  0  0
    0.3949   -0.5178   -2.3151 H   0  0  0  0  0  0  0  0  0  0  0  0
   -0.3557    0.4541   -3.5894 H   0  0  0  0  0  0  0  0  0  0  0  0
    0.9414    1.1531   -2.6000 H   0  0  0  0  0  0  0  0  0  0  0  0
    0.3833   -0.0008    1.9525 C   0  0  0  0  0  0  0  0  0  0  0  0
    1.5803   -0.2304    2.1189 O   0  0  0  0  0  0  0  0  0  0  0  0
   -0.4170    0.3858    2.9541 N   0  0  0  0  0  0  0  0  0  0  0  0
   -1.3850    0.5669    2.7398 H   0  0  0  0  0  0  0  0  0  0  0  0
    0.0265    0.5600    4.3358 C   0  0  0  0  0  0  0  0  0  0  0  0
    0.8964    1.2200    4.3632 H   0  0  0  0  0  0  0  0  0  0  0  0
   -0.7726    0.9946    4.9382 H   0  0  0  0  0  0  0  0  0  0  0  0
    0.3119   -0.4069    4.7547 H   0  0  0  0  0  0  0  0  0  0  0  0
  5  6  2  0  0  0  0
  5  7  1  0  0  0  0
  2  3  1  0  0  0  0
  2  4  1  0  0  0  0
  2  5  1  0  0  0  0
  1  2  1  0  0  0  0
 24 25  2  0  0  0  0
 24 26  1  0  0  0  0
 20 21  1  0  0  0  0
 20 22  1  0  0  0  0
 20 23  1  0  0  0  0
 17 18  1  0  0  0  0
 17 19  1  0  0  0  0
 17 20  1  0  0  0  0
 13 14  1  0  0  0  0
 13 15  1  0  0  0  0
 13 16  1  0  0  0  0
 11 12  1  0  0  0  0
 11 13  1  0  0  0  0
 11 17  1  0  0  0  0
  9 10  1  0  0  0  0
  9 11  1  0  0  0  0
  9 24  1  0  0  0  0
  7  8  1  0  0  0  0
  7  9  1  0  0  0  0
 28 29  1  0  0  0  0
 28 30  1  0  0  0  0
 28 31  1  0  0  0  0
 26 27  1  0  0  0  0
 26 28  1  0  0  0  0
M  END
$$$$
default_name
  -OEChem-02102213163D

 31 30  0     1  0  0  0  0  0999 V2000
   -3.0760   -3.6390    1.5496 H   0  0  0  0  0  0  0  0  0  0  0  0
   -3.0940   -2.6290    1.1426 C   0  0  0  0  0  0  0  0  0  0  0  0
   -3.7160   -1.9930    1.7706 H   0  0  0  0  0  0  0  0  0  0  0  0
   -3.4880   -2.6500    0.1286 H   0  0  0  0  0  0  0  0  0  0  0  0
   -1.6860   -2.0850    1.1196 C   0  0  0  0  0  0  0  0  0  0  0  0
   -0.7540   -2.7700    1.5226 O   0  0  0  0  0  0  0  0  0  0  0  0
   -1.5320   -0.8490    0.6496 N   0  0  0  0  0  0  0  0  0  0  0  0
   -2.3500   -0.3360    0.3566 H   0  0  0  0  0  0  0  0  0  0  0  0
   -0.2470   -0.1410    0.5576 C   0  0  1  0  0  0  0  0  0  0  0  0
    0.4239   -0.7541   -0.0450 H   0  0  0  0  0  0  0  0  0  0  0  0
   -0.4317    1.2160   -0.1683 C   0  0  1  0  0  0  0  0  0  0  0  0
   -1.1853    1.7778    0.3869 H   0  0  0  0  0  0  0  0  0  0  0  0
    0.8604    2.0549   -0.1852 C   0  0  0  0  0  0  0  0  0  0  0  0
    1.6252    1.5698   -0.7943 H   0  0  0  0  0  0  0  0  0  0  0  0
    0.6620    3.0471   -0.5873 H   0  0  0  0  0  0  0  0  0  0  0  0
    1.2434    2.1770    0.8286 H   0  0  0  0  0  0  0  0  0  0  0  0
   -0.9742    1.0090   -1.6003 C   0  0  0  0  0  0  0  0  0  0  0  0
   -1.9562    0.5357   -1.5614 H   0  0  0  0  0  0  0  0  0  0  0  0
   -1.0824    1.9825   -2.0783 H   0  0  0  0  0  0  0  0  0  0  0  0
   -0.0567    0.1609   -2.4914 C   0  0  0  0  0  0  0  0  0  0  0  0
    0.0023   -0.8608   -2.1167 H   0  0  0  0  0  0  0  0  0  0  0  0
   -0.4613    0.1361   -3.5035 H   0  0  0  0  0  0  0  0  0  0  0  0
    0.9426    0.5968   -2.5200 H   0  0  0  0  0  0  0  0  0  0  0  0
    0.3833   -0.0008    1.9525 C   0  0  0  0  0  0  0  0  0  0  0  0
    1.5803   -0.2304    2.1189 O   0  0  0  0  0  0  0  0  0  0  0  0
   -0.4170    0.3858    2.9541 N   0  0  0  0  0  0  0  0  0  0  0  0
   -1.3850    0.5669    2.7398 H   0  0  0  0  0  0  0  0  0  0  0  0
    0.0265    0.5600    4.3358 C   0  0  0  0  0  0  0  0  0  0  0  0
    0.8964    1.2200    4.3632 H   0  0  0  0  0  0  0  0  0  0  0  0
   -0.7726    0.9946    4.9382 H   0  0  0  0  0  0  0  0  0  0  0  0
    0.3119   -0.4069    4.7547 H   0  0  0  0  0  0  0  0  0  0  0  0
  5  6  2  0  0  0  0
  5  7  1  0  0  0  0
  2  3  1  0  0  0  0
  2  4  1  0  0  0  0
  2  5  1  0  0  0  0
  1  2  1  0  0  0  0
 24 25  2  0  0  0  0
 24 26  1  0  0  0  0
 20 21  1  0  0  0  0
 20 22  1  0  0  0  0
 20 23  1  0  0  0  0
 17 18  1  0  0  0  0
 17 19  1  0  0  0  0
 17 20  1  0  0  0  0
 13 14  1  0  0  0  0
 13 15  1  0  0  0  0
 13 16  1  0  0  0  0
 11 12  1  0  0  0  0
 11 13  1  0  0  0  0
 11 17  1  0  0  0  0
  9 10  1  0  0  0  0
  9 11  1  0  0  0  0
  9 24  1  0  0  0  0
  7  8  1  0  0  0  0
  7  9  1  0  0  0  0
 28 29  1  0  0  0  0
 28 30  1  0  0  0  0
 28 31  1  0  0  0  0
 26 27  1  0  0  0  0
 26 28  1  0  0  0  0
M  END
$$$$
default_name
  -OEChem-02102213163D

 31 30  0     1  0  0  0  0  0999 V2000
   -3.0760   -3.6390    1.5496 H   0  0  0  0  0  0  0  0  0  0  0  0
   -3.0940   -2.6290    1.1426 C   0  0  0  0  0  0  0  0  0  0  0  0
   -3.7160   -1.9930    1.7706 H   0  0  0  0  0  0  0  0  0  0  0  0
   -3.4880   -2.6500    0.1286 H   0  0  0  0  0  0  0  0  0  0  0  0
   -1.6860   -2.0850    1.1196 C   0  0  0  0  0  0  0  0  0  0  0  0
   -0.7540   -2.7700    1.5226 O   0  0  0  0  0  0  0  0  0  0  0  0
   -1.5320   -0.8490    0.6496 N   0  0  0  0  0  0  0  0  0  0  0  0
   -2.3500   -0.3360    0.3566 H   0  0  0  0  0  0  0  0  0  0  0  0
   -0.2470   -0.1410    0.5576 C   0  0  1  0  0  0  0  0  0  0  0  0
    0.4239   -0.7541   -0.0450 H   0  0  0  0  0  0  0  0  0  0  0  0
   -0.4317    1.2160   -0.1683 C   0  0  1  0  0  0  0  0  0  0  0  0
   -1.1853    1.7778    0.3869 H   0  0  0  0  0  0  0  0  0  0  0  0
    0.8604    2.0549   -0.1852 C   0  0  0  0  0  0  0  0  0  0  0  0
    1.6252    1.5698   -0.7943 H   0  0  0  0  0  0  0  0  0  0  0  0
    0.6620    3.0471   -0.5873 H   0  0  0  0  0  0  0  0  0  0  0  0
    1.2434    2.1770    0.8286 H   0  0  0  0  0  0  0  0  0  0  0  0
   -0.9742    1.0090   -1.6003 C   0  0  0  0  0  0  0  0  0  0  0  0
   -2.0420    0.7892   -1.5655 H   0  0  0  0  0  0  0  0  0  0  0  0
   -0.8328    1.9302   -2.1653 H   0  0  0  0  0  0  0  0  0  0  0  0
   -0.2679   -0.1141   -2.3717 C   0  0  0  0  0  0  0  0  0  0  0  0
   -0.4662   -1.0800   -1.9076 H   0  0  0  0  0  0  0  0  0  0  0  0
   -0.6425   -0.1379   -3.3953 H   0  0  0  0  0  0  0  0  0  0  0  0
    0.8075    0.0665   -2.3921 H   0  0  0  0  0  0  0  0  0  0  0  0
    0.3833   -0.0008    1.9525 C   0  0  0  0  0  0  0  0  0  0  0  0
    1.5803   -0.2304    2.1189 O   0  0  0  0  0  0  0  0  0  0  0  0
   -0.4170    0.3858    2.9541 N   0  0  0  0  0  0  0  0  0  0  0  0
   -1.3850    0.5669    2.7398 H   0  0  0  0  0  0  0  0  0  0  0  0
    0.0265    0.5600    4.3358 C   0  0  0  0  0  0  0  0  0  0  0  0
    0.8964    1.2200    4.3632 H   0  0  0  0  0  0  0  0  0  0  0  0
   -0.7726    0.9946    4.9382 H   0  0  0  0  0  0  0  0  0  0  0  0
    0.3119   -0.4069    4.7547 H   0  0  0  0  0  0  0  0  0  0  0  0
  5  6  2  0  0  0  0
  5  7  1  0  0  0  0
  2  3  1  0  0  0  0
  2  4  1  0  0  0  0
  2  5  1  0  0  0  0
  1  2  1  0  0  0  0
 24 25  2  0  0  0  0
 24 26  1  0  0  0  0
 20 21  1  0  0  0  0
 20 22  1  0  0  0  0
 20 23  1  0  0  0  0
 17 18  1  0  0  0  0
 17 19  1  0  0  0  0
 17 20  1  0  0  0  0
 13 14  1  0  0  0  0
 13 15  1  0  0  0  0
 13 16  1  0  0  0  0
 11 12  1  0  0  0  0
 11 13  1  0  0  0  0
 11 17  1  0  0  0  0
  9 10  1  0  0  0  0
  9 11  1  0  0  0  0
  9 24  1  0  0  0  0
  7  8  1  0  0  0  0
  7  9  1  0  0  0  0
 28 29  1  0  0  0  0
 28 30  1  0  0  0  0
 28 31  1  0  0  0  0
 26 27  1  0  0  0  0
 26 28  1  0  0  0  0
M  END
$$$$
default_name
  -OEChem-02102213163D

 31 30  0     1  0  0  0  0  0999 V2000
   -3.0760   -3.6390    1.5496 H   0  0  0  0  0  0  0  0  0  0  0  0
   -3.0940   -2.6290    1.1426 C   0  0  0  0  0  0  0  0  0  0  0  0
   -3.7160   -1.9930    1.7706 H   0  0  0  0  0  0  0  0  0  0  0  0
   -3.4880   -2.6500    0.1286 H   0  0  0  0  0  0  0  0  0  0  0  0
   -1.6860   -2.0850    1.1196 C   0  0  0  0  0  0  0  0  0  0  0  0
   -0.7540   -2.7700    1.5226 O   0  0  0  0  0  0  0  0  0  0  0  0
   -1.5320   -0.8490    0.6496 N   0  0  0  0  0  0  0  0  0  0  0  0
   -2.3500   -0.3360    0.3566 H   0  0  0  0  0  0  0  0  0  0  0  0
   -0.2470   -0.1410    0.5576 C   0  0  1  0  0  0  0  0  0  0  0  0
    0.4239   -0.7541   -0.0450 H   0  0  0  0  0  0  0  0  0  0  0  0
   -0.4317    1.2160   -0.1683 C   0  0  1  0  0  0  0  0  0  0  0  0
   -1.1853    1.7778    0.3869 H   0  0  0  0  0  0  0  0  0  0  0  0
    0.8604    2.0549   -0.1852 C   0  0  0  0  0  0  0  0  0  0  0  0
    1.6252    1.5698   -0.7943 H   0  0  0  0  0  0  0  0  0  0  0  0
    0.6620    3.0471   -0.5873 H   0  0  0  0  0  0  0  0  0  0  0  0
    1.2434    2.1770    0.8286 H   0  0  0  0  0  0  0  0  0  0  0  0
   -0.9742    1.0090   -1.6003 C   0  0  0  0  0  0  0  0  0  0  0  0
   -2.0640    1.0543   -1.5955 H   0  0  0  0  0  0  0  0  0  0  0  0
   -0.6013    1.8120   -2.2360 H   0  0  0  0  0  0  0  0  0  0  0  0
   -0.5419   -0.3181   -2.2384 C   0  0  0  0  0  0  0  0  0  0  0  0
   -0.9785   -1.1604   -1.7019 H   0  0  0  0  0  0  0  0  0  0  0  0
   -0.8870   -0.3492   -3.2721 H   0  0  0  0  0  0  0  0  0  0  0  0
    0.5453   -0.4018   -2.2252 H   0  0  0  0  0  0  0  0  0  0  0  0
    0.3833   -0.0008    1.9525 C   0  0  0  0  0  0  0  0  0  0  0  0
    1.5803   -0.2304    2.1189 O   0  0  0  0  0  0  0  0  0  0  0  0
   -0.4170    0.3858    2.9541 N   0  0  0  0  0  0  0  0  0  0  0  0
   -1.3850    0.5669    2.7398 H   0  0  0  0  0  0  0  0  0  0  0  0
    0.0265    0.5600    4.3358 C   0  0  0  0  0  0  0  0  0  0  0  0
    0.8964    1.2200    4.3632 H   0  0  0  0  0  0  0  0  0  0  0  0
   -0.7726    0.9946    4.9382 H   0  0  0  0  0  0  0  0  0  0  0  0
    0.3119   -0.4069    4.7547 H   0  0  0  0  0  0  0  0  0  0  0  0
  5  6  2  0  0  0  0
  5  7  1  0  0  0  0
  2  3  1  0  0  0  0
  2  4  1  0  0  0  0
  2  5  1  0  0  0  0
  1  2  1  0  0  0  0
 24 25  2  0  0  0  0
 24 26  1  0  0  0  0
 20 21  1  0  0  0  0
 20 22  1  0  0  0  0
 20 23  1  0  0  0  0
 17 18  1  0  0  0  0
 17 19  1  0  0  0  0
 17 20  1  0  0  0  0
 13 14  1  0  0  0  0
 13 15  1  0  0  0  0
 13 16  1  0  0  0  0
 11 12  1  0  0  0  0
 11 13  1  0  0  0  0
 11 17  1  0  0  0  0
  9 10  1  0  0  0  0
  9 11  1  0  0  0  0
  9 24  1  0  0  0  0
  7  8  1  0  0  0  0
  7  9  1  0  0  0  0
 28 29  1  0  0  0  0
 28 30  1  0  0  0  0
 28 31  1  0  0  0  0
 26 27  1  0  0  0  0
 26 28  1  0  0  0  0
M  END
$$$$
default_name
  -OEChem-02102213163D

 31 30  0     1  0  0  0  0  0999 V2000
   -3.0760   -3.6390    1.5496 H   0  0  0  0  0  0  0  0  0  0  0  0
   -3.0940   -2.6290    1.1426 C   0  0  0  0  0  0  0  0  0  0  0  0
   -3.7160   -1.9930    1.7706 H   0  0  0  0  0  0  0  0  0  0  0  0
   -3.4880   -2.6500    0.1286 H   0  0  0  0  0  0  0  0  0  0  0  0
   -1.6860   -2.0850    1.1196 C   0  0  0  0  0  0  0  0  0  0  0  0
   -0.7540   -2.7700    1.5226 O   0  0  0  0  0  0  0  0  0  0  0  0
   -1.5320   -0.8490    0.6496 N   0  0  0  0  0  0  0  0  0  0  0  0
   -2.3500   -0.3360    0.3566 H   0  0  0  0  0  0  0  0  0  0  0  0
   -0.2470   -0.1410    0.5576 C   0  0  1  0  0  0  0  0  0  0  0  0
    0.4239   -0.7541   -0.0450 H   0  0  0  0  0  0  0  0  0  0  0  0
   -0.4317    1.2160   -0.1683 C   0  0  1  0  0  0  0  0  0  0  0  0
   -1.1853    1.7778    0.3869 H   0  0  0  0  0  0  0  0  0  0  0  0
    0.8604    2.0549   -0.1852 C   0  0  0  0  0  0  0  0  0  0  0  0
    1.6252    1.5698   -0.7943 H   0  0  0  0  0  0  0  0  0  0  0  0
    0.6620    3.0471   -0.5873 H   0  0  0  0  0  0  0  0  0  0  0  0
    1.2434    2.1770    0.8286 H   0  0  0  0  0  0  0  0  0  0  0  0
   -0.9742    1.0090   -1.6003 C   0  0  0  0  0  0  0  0  0  0  0  0
   -2.0206    1.3129   -1.6493 H   0  0  0  0  0  0  0  0  0  0  0  0
   -0.4035    1.6358   -2.2854 H   0  0  0  0  0  0  0  0  0  0  0  0
   -0.8602   -0.4374   -2.1005 C   0  0  0  0  0  0  0  0  0  0  0  0
   -1.4998   -1.0964   -1.5136 H   0  0  0  0  0  0  0  0  0  0  0  0
   -1.1781   -0.4835   -3.1424 H   0  0  0  0  0  0  0  0  0  0  0  0
    0.1740   -0.7760   -2.0304 H   0  0  0  0  0  0  0  0  0  0  0  0
    0.3833   -0.0008    1.9525 C   0  0  0  0  0  0  0  0  0  0  0  0
    1.5803   -0.2304    2.1189 O   0  0  0  0  0  0  0  0  0  0  0  0
   -0.4170    0.3858    2.9541 N   0  0  0  0  0  0  0  0  0  0  0  0
   -1.3850    0.5669    2.7398 H   0  0  0  0  0  0  0  0  0  0  0  0
    0.0265    0.5600    4.3358 C   0  0  0  0  0  0  0  0  0  0  0  0
    0.8964    1.2200    4.3632 H   0  0  0  0  0  0  0  0  0  0  0  0
   -0.7726    0.9946    4.9382 H   0  0  0  0  0  0  0  0  0  0  0  0
    0.3119   -0.4069    4.7547 H   0  0  0  0  0  0  0  0  0  0  0  0
  5  6  2  0  0  0  0
  5  7  1  0  0  0  0
  2  3  1  0  0  0  0
  2  4  1  0  0  0  0
  2  5  1  0  0  0  0
  1  2  1  0  0  0  0
 24 25  2  0  0  0  0
 24 26  1  0  0  0  0
 20 21  1  0  0  0  0
 20 22  1  0  0  0  0
 20 23  1  0  0  0  0
 17 18  1  0  0  0  0
 17 19  1  0  0  0  0
 17 20  1  0  0  0  0
 13 14  1  0  0  0  0
 13 15  1  0  0  0  0
 13 16  1  0  0  0  0
 11 12  1  0  0  0  0
 11 13  1  0  0  0  0
 11 17  1  0  0  0  0
  9 10  1  0  0  0  0
  9 11  1  0  0  0  0
  9 24  1  0  0  0  0
  7  8  1  0  0  0  0
  7  9  1  0  0  0  0
 28 29  1  0  0  0  0
 28 30  1  0  0  0  0
 28 31  1  0  0  0  0
 26 27  1  0  0  0  0
 26 28  1  0  0  0  0
M  END
$$$$
default_name
  -OEChem-02102213163D

 31 30  0     1  0  0  0  0  0999 V2000
   -3.0760   -3.6390    1.5496 H   0  0  0  0  0  0  0  0  0  0  0  0
   -3.0940   -2.6290    1.1426 C   0  0  0  0  0  0  0  0  0  0  0  0
   -3.7160   -1.9930    1.7706 H   0  0  0  0  0  0  0  0  0  0  0  0
   -3.4880   -2.6500    0.1286 H   0  0  0  0  0  0  0  0  0  0  0  0
   -1.6860   -2.0850    1.1196 C   0  0  0  0  0  0  0  0  0  0  0  0
   -0.7540   -2.7700    1.5226 O   0  0  0  0  0  0  0  0  0  0  0  0
   -1.5320   -0.8490    0.6496 N   0  0  0  0  0  0  0  0  0  0  0  0
   -2.3500   -0.3360    0.3566 H   0  0  0  0  0  0  0  0  0  0  0  0
   -0.2470   -0.1410    0.5576 C   0  0  1  0  0  0  0  0  0  0  0  0
    0.4239   -0.7541   -0.0450 H   0  0  0  0  0  0  0  0  0  0  0  0
   -0.4317    1.2160   -0.1683 C   0  0  1  0  0  0  0  0  0  0  0  0
   -1.1853    1.7778    0.3869 H   0  0  0  0  0  0  0  0  0  0  0  0
    0.8604    2.0549   -0.1852 C   0  0  0  0  0  0  0  0  0  0  0  0
    1.6252    1.5698   -0.7943 H   0  0  0  0  0  0  0  0  0  0  0  0
    0.6620    3.0471   -0.5873 H   0  0  0  0  0  0  0  0  0  0  0  0
    1.2434    2.1770    0.8286 H   0  0  0  0  0  0  0  0  0  0  0  0
   -0.9742    1.0090   -1.6003 C   0  0  0  0  0  0  0  0  0  0  0  0
   -1.9149    1.5474   -1.7233 H   0  0  0  0  0  0  0  0  0  0  0  0
   -0.2531    1.4137   -2.3103 H   0  0  0  0  0  0  0  0  0  0  0  0
   -1.2011   -0.4637   -1.9676 C   0  0  0  0  0  0  0  0  0  0  0  0
   -1.9945   -0.8925   -1.3557 H   0  0  0  0  0  0  0  0  0  0  0  0
   -1.4960   -0.5316   -3.0150 H   0  0  0  0  0  0  0  0  0  0  0  0
   -0.2811   -1.0307   -1.8212 H   0  0  0  0  0  0  0  0  0  0  0  0
    0.3833   -0.0008    1.9525 C   0  0  0  0  0  0  0  0  0  0  0  0
    1.5803   -0.2304    2.1189 O   0  0  0  0  0  0  0  0  0  0  0  0
   -0.4170    0.3858    2.9541 N   0  0  0  0  0  0  0  0  0  0  0  0
   -1.3850    0.5669    2.7398 H   0  0  0  0  0  0  0  0  0  0  0  0
    0.0265    0.5600    4.3358 C   0  0  0  0  0  0  0  0  0  0  0  0
    0.8964    1.2200    4.3632 H   0  0  0  0  0  0  0  0  0  0  0  0
   -0.7726    0.9946    4.9382 H   0  0  0  0  0  0  0  0  0  0  0  0
    0.3119   -0.4069    4.7547 H   0  0  0  0  0  0  0  0  0  0  0  0
  5  6  2  0  0  0  0
  5  7  1  0  0  0  0
  2  3  1  0  0  0  0
  2  4  1  0  0  0  0
  2  5  1  0  0  0  0
  1  2  1  0  0  0  0
 24 25  2  0  0  0  0
 24 26  1  0  0  0  0
 20 21  1  0  0  0  0
 20 22  1  0  0  0  0
 20 23  1  0  0  0  0
 17 18  1  0  0  0  0
 17 19  1  0  0  0  0
 17 20  1  0  0  0  0
 13 14  1  0  0  0  0
 13 15  1  0  0  0  0
 13 16  1  0  0  0  0
 11 12  1  0  0  0  0
 11 13  1  0  0  0  0
 11 17  1  0  0  0  0
  9 10  1  0  0  0  0
  9 11  1  0  0  0  0
  9 24  1  0  0  0  0
  7  8  1  0  0  0  0
  7  9  1  0  0  0  0
 28 29  1  0  0  0  0
 28 30  1  0  0  0  0
 28 31  1  0  0  0  0
 26 27  1  0  0  0  0
 26 28  1  0  0  0  0
M  END
$$$$
default_name
  -OEChem-02102213163D

 31 30  0     1  0  0  0  0  0999 V2000
   -3.0760   -3.6390    1.5496 H   0  0  0  0  0  0  0  0  0  0  0  0
   -3.0940   -2.6290    1.1426 C   0  0  0  0  0  0  0  0  0  0  0  0
   -3.7160   -1.9930    1.7706 H   0  0  0  0  0  0  0  0  0  0  0  0
   -3.4880   -2.6500    0.1286 H   0  0  0  0  0  0  0  0  0  0  0  0
   -1.6860   -2.0850    1.1196 C   0  0  0  0  0  0  0  0  0  0  0  0
   -0.7540   -2.7700    1.5226 O   0  0  0  0  0  0  0  0  0  0  0  0
   -1.5320   -0.8490    0.6496 N   0  0  0  0  0  0  0  0  0  0  0  0
   -2.3500   -0.3360    0.3566 H   0  0  0  0  0  0  0  0  0  0  0  0
   -0.2470   -0.1410    0.5576 C   0  0  1  0  0  0  0  0  0  0  0  0
    0.4239   -0.7541   -0.0450 H   0  0  0  0  0  0  0  0  0  0  0  0
   -0.4317    1.2160   -0.1683 C   0  0  1  0  0  0  0  0  0  0  0  0
   -1.1853    1.7778    0.3869 H   0  0  0  0  0  0  0  0  0  0  0  0
    0.8604    2.0549   -0.1852 C   0  0  0  0  0  0  0  0  0  0  0  0
    1.6252    1.5698   -0.7943 H   0  0  0  0  0  0  0  0  0  0  0  0
    0.6620    3.0471   -0.5873 H   0  0  0  0  0  0  0  0  0  0  0  0
    1.2434    2.1770    0.8286 H   0  0  0  0  0  0  0  0  0  0  0  0
   -0.9742    1.0090   -1.6003 C   0  0  0  0  0  0  0  0  0  0  0  0
   -1.7539    1.7418   -1.8124 H   0  0  0  0  0  0  0  0  0  0  0  0
   -0.1601    1.1609   -2.3090 H   0  0  0  0  0  0  0  0  0  0  0  0
   -1.5412   -0.3953   -1.8486 C   0  0  0  0  0  0  0  0  0  0  0  0
   -2.4289   -0.5625   -1.2388 H   0  0  0  0  0  0  0  0  0  0  0  0
   -1.8190   -0.4903   -2.8986 H   0  0  0  0  0  0  0  0  0  0  0  0
   -0.7891   -1.1486   -1.6117 H   0  0  0  0  0  0  0  0  0  0  0  0
    0.3833   -0.0008    1.9525 C   0  0  0  0  0  0  0  0  0  0  0  0
    1.5803   -0.2304    2.1189 O   0  0  0  0  0  0  0  0  0  0  0  0
   -0.4170    0.3858    2.9541 N   0  0  0  0  0  0  0  0  0  0  0  0
   -1.3850    0.5669    2.7398 H   0  0  0  0  0  0  0  0  0  0  0  0
    0.0265    0.5600    4.3358 C   0  0  0  0  0  0  0  0  0  0  0  0
    0.8964    1.2200    4.3632 H   0  0  0  0  0  0  0  0  0  0  0  0
   -0.7726    0.9946    4.9382 H   0  0  0  0  0  0  0  0  0  0  0  0
    0.3119   -0.4069    4.7547 H   0  0  0  0  0  0  0  0  0  0  0  0
  5  6  2  0  0  0  0
  5  7  1  0  0  0  0
  2  3  1  0  0  0  0
  2  4  1  0  0  0  0
  2  5  1  0  0  0  0
  1  2  1  0  0  0  0
 24 25  2  0  0  0  0
 24 26  1  0  0  0  0
 20 21  1  0  0  0  0
 20 22  1  0  0  0  0
 20 23  1  0  0  0  0
 17 18  1  0  0  0  0
 17 19  1  0  0  0  0
 17 20  1  0  0  0  0
 13 14  1  0  0  0  0
 13 15  1  0  0  0  0
 13 16  1  0  0  0  0
 11 12  1  0  0  0  0
 11 13  1  0  0  0  0
 11 17  1  0  0  0  0
  9 10  1  0  0  0  0
  9 11  1  0  0  0  0
  9 24  1  0  0  0  0
  7  8  1  0  0  0  0
  7  9  1  0  0  0  0
 28 29  1  0  0  0  0
 28 30  1  0  0  0  0
 28 31  1  0  0  0  0
 26 27  1  0  0  0  0
 26 28  1  0  0  0  0
M  END
$$$$
default_name
  -OEChem-02102213163D

 31 30  0     1  0  0  0  0  0999 V2000
   -3.0760   -3.6390    1.5496 H   0  0  0  0  0  0  0  0  0  0  0  0
   -3.0940   -2.6290    1.1426 C   0  0  0  0  0  0  0  0  0  0  0  0
   -3.7160   -1.9930    1.7706 H   0  0  0  0  0  0  0  0  0  0  0  0
   -3.4880   -2.6500    0.1286 H   0  0  0  0  0  0  0  0  0  0  0  0
   -1.6860   -2.0850    1.1196 C   0  0  0  0  0  0  0  0  0  0  0  0
   -0.7540   -2.7700    1.5226 O   0  0  0  0  0  0  0  0  0  0  0  0
   -1.5320   -0.8490    0.6496 N   0  0  0  0  0  0  0  0  0  0  0  0
   -2.3500   -0.3360    0.3566 H   0  0  0  0  0  0  0  0  0  0  0  0
   -0.2470   -0.1410    0.5576 C   0  0  1  0  0  0  0  0  0  0  0  0
    0.4239   -0.7541   -0.0450 H   0  0  0  0  0  0  0  0  0  0  0  0
   -0.4317    1.2160   -0.1683 C   0  0  1  0  0  0  0  0  0  0  0  0
   -1.1853    1.7778    0.3869 H   0  0  0  0  0  0  0  0  0  0  0  0
    0.8604    2.0549   -0.1852 C   0  0  0  0  0  0  0  0  0  0  0  0
    1.6252    1.5698   -0.7943 H   0  0  0  0  0  0  0  0  0  0  0  0
    0.6620    3.0471   -0.5873 H   0  0  0  0  0  0  0  0  0  0  0  0
    1.2434    2.1770    0.8286 H   0  0  0  0  0  0  0  0  0  0  0  0
   -0.9742    1.0090   -1.6003 C   0  0  0  0  0  0  0  0  0  0  0  0
   -1.5486    1.8828   -1.9105 H   0  0  0  0  0  0  0  0  0  0  0  0
   -0.1311    0.8945   -2.2815 H   0  0  0  0  0  0  0  0  0  0  0  0
   -1.8575   -0.2368   -1.7517 C   0  0  0  0  0  0  0  0  0  0  0  0
   -2.7734   -0.1289   -1.1710 H   0  0  0  0  0  0  0  0  0  0  0  0
   -2.1252   -0.3623   -2.8011 H   0  0  0  0  0  0  0  0  0  0  0  0
   -1.3153   -1.1216   -1.4162 H   0  0  0  0  0  0  0  0  0  0  0  0
    0.3833   -0.0008    1.9525 C   0  0  0  0  0  0  0  0  0  0  0  0
    1.5803   -0.2304    2.1189 O   0  0  0  0  0  0  0  0  0  0  0  0
   -0.4170    0.3858    2.9541 N   0  0  0  0  0  0  0  0  0  0  0  0
   -1.3850    0.5669    2.7398 H   0  0  0  0  0  0  0  0  0  0  0  0
    0.0265    0.5600    4.3358 C   0  0  0  0  0  0  0  0  0  0  0  0
    0.8964    1.2200    4.3632 H   0  0  0  0  0  0  0  0  0  0  0  0
   -0.7726    0.9946    4.9382 H   0  0  0  0  0  0  0  0  0  0  0  0
    0.3119   -0.4069    4.7547 H   0  0  0  0  0  0  0  0  0  0  0  0
  5  6  2  0  0  0  0
  5  7  1  0  0  0  0
  2  3  1  0  0  0  0
  2  4  1  0  0  0  0
  2  5  1  0  0  0  0
  1  2  1  0  0  0  0
 24 25  2  0  0  0  0
 24 26  1  0  0  0  0
 20 21  1  0  0  0  0
 20 22  1  0  0  0  0
 20 23  1  0  0  0  0
 17 18  1  0  0  0  0
 17 19  1  0  0  0  0
 17 20  1  0  0  0  0
 13 14  1  0  0  0  0
 13 15  1  0  0  0  0
 13 16  1  0  0  0  0
 11 12  1  0  0  0  0
 11 13  1  0  0  0  0
 11 17  1  0  0  0  0
  9 10  1  0  0  0  0
  9 11  1  0  0  0  0
  9 24  1  0  0  0  0
  7  8  1  0  0  0  0
  7  9  1  0  0  0  0
 28 29  1  0  0  0  0
 28 30  1  0  0  0  0
 28 31  1  0  0  0  0
 26 27  1  0  0  0  0
 26 28  1  0  0  0  0
M  END
$$$$
default_name
  -OEChem-02102213163D

 31 30  0     1  0  0  0  0  0999 V2000
   -3.0760   -3.6390    1.5496 H   0  0  0  0  0  0  0  0  0  0  0  0
   -3.0940   -2.6290    1.1426 C   0  0  0  0  0  0  0  0  0  0  0  0
   -3.7160   -1.9930    1.7706 H   0  0  0  0  0  0  0  0  0  0  0  0
   -3.4880   -2.6500    0.1286 H   0  0  0  0  0  0  0  0  0  0  0  0
   -1.6860   -2.0850    1.1196 C   0  0  0  0  0  0  0  0  0  0  0  0
   -0.7540   -2.7700    1.5226 O   0  0  0  0  0  0  0  0  0  0  0  0
   -1.5320   -0.8490    0.6496 N   0  0  0  0  0  0  0  0  0  0  0  0
   -2.3500   -0.3360    0.3566 H   0  0  0  0  0  0  0  0  0  0  0  0
   -0.2470   -0.1410    0.5576 C   0  0  1  0  0  0  0  0  0  0  0  0
    0.4239   -0.7541   -0.0450 H   0  0  0  0  0  0  0  0  0  0  0  0
   -0.4317    1.2160   -0.1683 C   0  0  1  0  0  0  0  0  0  0  0  0
   -1.1853    1.7778    0.3869 H   0  0  0  0  0  0  0  0  0  0  0  0
    0.8604    2.0549   -0.1852 C   0  0  0  0  0  0  0  0  0  0  0  0
    1.6252    1.5698   -0.7943 H   0  0  0  0  0  0  0  0  0  0  0  0
    0.6620    3.0471   -0.5873 H   0  0  0  0  0  0  0  0  0  0  0  0
    1.2434    2.1770    0.8286 H   0  0  0  0  0  0  0  0  0  0  0  0
   -0.9742    1.0090   -1.6003 C   0  0  0  0  0  0  0  0  0  0  0  0
   -1.3132    1.9610   -2.0110 H   0  0  0  0  0  0  0  0  0  0  0  0
   -0.1678    0.6326   -2.2297 H   0  0  0  0  0  0  0  0  0  0  0  0
   -2.1284    0.0009   -1.6835 C   0  0  0  0  0  0  0  0  0  0  0  0
   -3.0045    0.3786   -1.1568 H   0  0  0  0  0  0  0  0  0  0  0  0
   -2.3936   -0.1564   -2.7292 H   0  0  0  0  0  0  0  0  0  0  0  0
   -1.8239   -0.9515   -1.2481 H   0  0  0  0  0  0  0  0  0  0  0  0
    0.3833   -0.0008    1.9525 C   0  0  0  0  0  0  0  0  0  0  0  0
    1.5803   -0.2304    2.1189 O   0  0  0  0  0  0  0  0  0  0  0  0
   -0.4170    0.3858    2.9541 N   0  0  0  0  0  0  0  0  0  0  0  0
   -1.3850    0.5669    2.7398 H   0  0  0  0  0  0  0  0  0  0  0  0
    0.0265    0.5600    4.3358 C   0  0  0  0  0  0  0  0  0  0  0  0
    0.8964    1.2200    4.3632 H   0  0  0  0  0  0  0  0  0  0  0  0
   -0.7726    0.9946    4.9382 H   0  0  0  0  0  0  0  0  0  0  0  0
    0.3119   -0.4069    4.7547 H   0  0  0  0  0  0  0  0  0  0  0  0
  5  6  2  0  0  0  0
  5  7  1  0  0  0  0
  2  3  1  0  0  0  0
  2  4  1  0  0  0  0
  2  5  1  0  0  0  0
  1  2  1  0  0  0  0
 24 25  2  0  0  0  0
 24 26  1  0  0  0  0
 20 21  1  0  0  0  0
 20 22  1  0  0  0  0
 20 23  1  0  0  0  0
 17 18  1  0  0  0  0
 17 19  1  0  0  0  0
 17 20  1  0  0  0  0
 13 14  1  0  0  0  0
 13 15  1  0  0  0  0
 13 16  1  0  0  0  0
 11 12  1  0  0  0  0
 11 13  1  0  0  0  0
 11 17  1  0  0  0  0
  9 10  1  0  0  0  0
  9 11  1  0  0  0  0
  9 24  1  0  0  0  0
  7  8  1  0  0  0  0
  7  9  1  0  0  0  0
 28 29  1  0  0  0  0
 28 30  1  0  0  0  0
 28 31  1  0  0  0  0
 26 27  1  0  0  0  0
 26 28  1  0  0  0  0
M  END
$$$$
default_name
  -OEChem-02102213163D

 31 30  0     1  0  0  0  0  0999 V2000
   -3.0760   -3.6390    1.5496 H   0  0  0  0  0  0  0  0  0  0  0  0
   -3.0940   -2.6290    1.1426 C   0  0  0  0  0  0  0  0  0  0  0  0
   -3.7160   -1.9930    1.7706 H   0  0  0  0  0  0  0  0  0  0  0  0
   -3.4880   -2.6500    0.1286 H   0  0  0  0  0  0  0  0  0  0  0  0
   -1.6860   -2.0850    1.1196 C   0  0  0  0  0  0  0  0  0  0  0  0
   -0.7540   -2.7700    1.5226 O   0  0  0  0  0  0  0  0  0  0  0  0
   -1.5320   -0.8490    0.6496 N   0  0  0  0  0  0  0  0  0  0  0  0
   -2.3500   -0.3360    0.3566 H   0  0  0  0  0  0  0  0  0  0  0  0
   -0.2470   -0.1410    0.5576 C   0  0  1  0  0  0  0  0  0  0  0  0
    0.4239   -0.7541   -0.0450 H   0  0  0  0  0  0  0  0  0  0  0  0
   -0.4317    1.2160   -0.1683 C   0  0  1  0  0  0  0  0  0  0  0  0
   -1.1853    1.7778    0.3869 H   0  0  0  0  0  0  0  0  0  0  0  0
    0.8604    2.0549   -0.1852 C   0  0  0  0  0  0  0  0  0  0  0  0
    1.6252    1.5698   -0.7943 H   0  0  0  0  0  0  0  0  0  0  0  0
    0.6620    3.0471   -0.5873 H   0  0  0  0  0  0  0  0  0  0  0  0
    1.2434    2.1770    0.8286 H   0  0  0  0  0  0  0  0  0  0  0  0
   -0.9742    1.0090   -1.6003 C   0  0  0  0  0  0  0  0  0  0  0  0
   -1.0635    1.9708   -2.1070 H   0  0  0  0  0  0  0  0  0  0  0  0
   -0.2680    0.3933   -2.1572 H   0  0  0  0  0  0  0  0  0  0  0  0
   -2.3353    0.3017   -1.6485 C   0  0  0  0  0  0  0  0  0  0  0  0
   -3.1065    0.9256   -1.1972 H   0  0  0  0  0  0  0  0  0  0  0  0
   -2.6059    0.1134   -2.6877 H   0  0  0  0  0  0  0  0  0  0  0  0
   -2.2802   -0.6500   -1.1189 H   0  0  0  0  0  0  0  0  0  0  0  0
    0.3833   -0.0008    1.9525 C   0  0  0  0  0  0  0  0  0  0  0  0
    1.5803   -0.2304    2.1189 O   0  0  0  0  0  0  0  0  0  0  0  0
   -0.4170    0.3858    2.9541 N   0  0  0  0  0  0  0  0  0  0  0  0
   -1.3850    0.5669    2.7398 H   0  0  0  0  0  0  0  0  0  0  0  0
    0.0265    0.5600    4.3358 C   0  0  0  0  0  0  0  0  0  0  0  0
    0.8964    1.2200    4.3632 H   0  0  0  0  0  0  0  0  0  0  0  0
   -0.7726    0.9946    4.9382 H   0  0  0  0  0  0  0  0  0  0  0  0
    0.3119   -0.4069    4.7547 H   0  0  0  0  0  0  0  0  0  0  0  0
  5  6  2  0  0  0  0
  5  7  1  0  0  0  0
  2  3  1  0  0  0  0
  2  4  1  0  0  0  0
  2  5  1  0  0  0  0
  1  2  1  0  0  0  0
 24 25  2  0  0  0  0
 24 26  1  0  0  0  0
 20 21  1  0  0  0  0
 20 22  1  0  0  0  0
 20 23  1  0  0  0  0
 17 18  1  0  0  0  0
 17 19  1  0  0  0  0
 17 20  1  0  0  0  0
 13 14  1  0  0  0  0
 13 15  1  0  0  0  0
 13 16  1  0  0  0  0
 11 12  1  0  0  0  0
 11 13  1  0  0  0  0
 11 17  1  0  0  0  0
  9 10  1  0  0  0  0
  9 11  1  0  0  0  0
  9 24  1  0  0  0  0
  7  8  1  0  0  0  0
  7  9  1  0  0  0  0
 28 29  1  0  0  0  0
 28 30  1  0  0  0  0
 28 31  1  0  0  0  0
 26 27  1  0  0  0  0
 26 28  1  0  0  0  0
M  END
$$$$
default_name
  -OEChem-02102213163D

 31 30  0     1  0  0  0  0  0999 V2000
   -3.0760   -3.6390    1.5496 H   0  0  0  0  0  0  0  0  0  0  0  0
   -3.0940   -2.6290    1.1426 C   0  0  0  0  0  0  0  0  0  0  0  0
   -3.7160   -1.9930    1.7706 H   0  0  0  0  0  0  0  0  0  0  0  0
   -3.4880   -2.6500    0.1286 H   0  0  0  0  0  0  0  0  0  0  0  0
   -1.6860   -2.0850    1.1196 C   0  0  0  0  0  0  0  0  0  0  0  0
   -0.7540   -2.7700    1.5226 O   0  0  0  0  0  0  0  0  0  0  0  0
   -1.5320   -0.8490    0.6496 N   0  0  0  0  0  0  0  0  0  0  0  0
   -2.3500   -0.3360    0.3566 H   0  0  0  0  0  0  0  0  0  0  0  0
   -0.2470   -0.1410    0.5576 C   0  0  1  0  0  0  0  0  0  0  0  0
    0.4239   -0.7541   -0.0450 H   0  0  0  0  0  0  0  0  0  0  0  0
   -0.4317    1.2160   -0.1683 C   0  0  1  0  0  0  0  0  0  0  0  0
   -1.1853    1.7778    0.3869 H   0  0  0  0  0  0  0  0  0  0  0  0
    0.8604    2.0549   -0.1852 C   0  0  0  0  0  0  0  0  0  0  0  0
    1.6252    1.5698   -0.7943 H   0  0  0  0  0  0  0  0  0  0  0  0
    0.6620    3.0471   -0.5873 H   0  0  0  0  0  0  0  0  0  0  0  0
    1.2434    2.1770    0.8286 H   0  0  0  0  0  0  0  0  0  0  0  0
   -0.9742    1.0090   -1.6003 C   0  0  0  0  0  0  0  0  0  0  0  0
   -0.8166    1.9117   -2.1920 H   0  0  0  0  0  0  0  0  0  0  0  0
   -0.4246    0.1926   -2.0688 H   0  0  0  0  0  0  0  0  0  0  0  0
   -2.4643    0.6451   -1.6493 C   0  0  0  0  0  0  0  0  0  0  0  0
   -3.0725    1.4748   -1.2895 H   0  0  0  0  0  0  0  0  0  0  0  0
   -2.7478    0.4288   -2.6796 H   0  0  0  0  0  0  0  0  0  0  0  0
   -2.6531   -0.2375   -1.0372 H   0  0  0  0  0  0  0  0  0  0  0  0
    0.3833   -0.0008    1.9525 C   0  0  0  0  0  0  0  0  0  0  0  0
    1.5803   -0.2304    2.1189 O   0  0  0  0  0  0  0  0  0  0  0  0
   -0.4170    0.3858    2.9541 N   0  0  0  0  0  0  0  0  0  0  0  0
   -1.3850    0.5669    2.7398 H   0  0  0  0  0  0  0  0  0  0  0  0
    0.0265    0.5600    4.3358 C   0  0  0  0  0  0  0  0  0  0  0  0
    0.8964    1.2200    4.3632 H   0  0  0  0  0  0  0  0  0  0  0  0
   -0.7726    0.9946    4.9382 H   0  0  0  0  0  0  0  0  0  0  0  0
    0.3119   -0.4069    4.7547 H   0  0  0  0  0  0  0  0  0  0  0  0
  5  6  2  0  0  0  0
  5  7  1  0  0  0  0
  2  3  1  0  0  0  0
  2  4  1  0  0  0  0
  2  5  1  0  0  0  0
  1  2  1  0  0  0  0
 24 25  2  0  0  0  0
 24 26  1  0  0  0  0
 20 21  1  0  0  0  0
 20 22  1  0  0  0  0
 20 23  1  0  0  0  0
 17 18  1  0  0  0  0
 17 19  1  0  0  0  0
 17 20  1  0  0  0  0
 13 14  1  0  0  0  0
 13 15  1  0  0  0  0
 13 16  1  0  0  0  0
 11 12  1  0  0  0  0
 11 13  1  0  0  0  0
 11 17  1  0  0  0  0
  9 10  1  0  0  0  0
  9 11  1  0  0  0  0
  9 24  1  0  0  0  0
  7  8  1  0  0  0  0
  7  9  1  0  0  0  0
 28 29  1  0  0  0  0
 28 30  1  0  0  0  0
 28 31  1  0  0  0  0
 26 27  1  0  0  0  0
 26 28  1  0  0  0  0
M  END
$$$$
default_name
  -OEChem-02102213163D

 31 30  0     1  0  0  0  0  0999 V2000
   -3.0760   -3.6390    1.5496 H   0  0  0  0  0  0  0  0  0  0  0  0
   -3.0940   -2.6290    1.1426 C   0  0  0  0  0  0  0  0  0  0  0  0
   -3.7160   -1.9930    1.7706 H   0  0  0  0  0  0  0  0  0  0  0  0
   -3.4880   -2.6500    0.1286 H   0  0  0  0  0  0  0  0  0  0  0  0
   -1.6860   -2.0850    1.1196 C   0  0  0  0  0  0  0  0  0  0  0  0
   -0.7540   -2.7700    1.5226 O   0  0  0  0  0  0  0  0  0  0  0  0
   -1.5320   -0.8490    0.6496 N   0  0  0  0  0  0  0  0  0  0  0  0
   -2.3500   -0.3360    0.3566 H   0  0  0  0  0  0  0  0  0  0  0  0
   -0.2470   -0.1410    0.5576 C   0  0  1  0  0  0  0  0  0  0  0  0
    0.4239   -0.7541   -0.0450 H   0  0  0  0  0  0  0  0  0  0  0  0
   -0.4317    1.2160   -0.1683 C   0  0  1  0  0  0  0  0  0  0  0  0
   -1.1853    1.7778    0.3869 H   0  0  0  0  0  0  0  0  0  0  0  0
    0.8604    2.0549   -0.1852 C   0  0  0  0  0  0  0  0  0  0  0  0
    1.6252    1.5698   -0.7943 H   0  0  0  0  0  0  0  0  0  0  0  0
    0.6620    3.0471   -0.5873 H   0  0  0  0  0  0  0  0  0  0  0  0
    1.2434    2.1770    0.8286 H   0  0  0  0  0  0  0  0  0  0  0  0
   -0.9742    1.0090   -1.6003 C   0  0  0  0  0  0  0  0  0  0  0  0
   -0.5894    1.7877   -2.2602 H   0  0  0  0  0  0  0  0  0  0  0  0
   -0.6271    0.0445   -1.9707 H   0  0  0  0  0  0  0  0  0  0  0  0
   -2.5065    1.0076   -1.6857 C   0  0  0  0  0  0  0  0  0  0  0  0
   -2.9046    1.9887   -1.4273 H   0  0  0  0  0  0  0  0  0  0  0  0
   -2.8094    0.7681   -2.7053 H   0  0  0  0  0  0  0  0  0  0  0  0
   -2.9172    0.2577   -1.0087 H   0  0  0  0  0  0  0  0  0  0  0  0
    0.3833   -0.0008    1.9525 C   0  0  0  0  0  0  0  0  0  0  0  0
    1.5803   -0.2304    2.1189 O   0  0  0  0  0  0  0  0  0  0  0  0
   -0.4170    0.3858    2.9541 N   0  0  0  0  0  0  0  0  0  0  0  0
   -1.3850    0.5669    2.7398 H   0  0  0  0  0  0  0  0  0  0  0  0
    0.0265    0.5600    4.3358 C   0  0  0  0  0  0  0  0  0  0  0  0
    0.8964    1.2200    4.3632 H   0  0  0  0  0  0  0  0  0  0  0  0
   -0.7726    0.9946    4.9382 H   0  0  0  0  0  0  0  0  0  0  0  0
    0.3119   -0.4069    4.7547 H   0  0  0  0  0  0  0  0  0  0  0  0
  5  6  2  0  0  0  0
  5  7  1  0  0  0  0
  2  3  1  0  0  0  0
  2  4  1  0  0  0  0
  2  5  1  0  0  0  0
  1  2  1  0  0  0  0
 24 25  2  0  0  0  0
 24 26  1  0  0  0  0
 20 21  1  0  0  0  0
 20 22  1  0  0  0  0
 20 23  1  0  0  0  0
 17 18  1  0  0  0  0
 17 19  1  0  0  0  0
 17 20  1  0  0  0  0
 13 14  1  0  0  0  0
 13 15  1  0  0  0  0
 13 16  1  0  0  0  0
 11 12  1  0  0  0  0
 11 13  1  0  0  0  0
 11 17  1  0  0  0  0
  9 10  1  0  0  0  0
  9 11  1  0  0  0  0
  9 24  1  0  0  0  0
  7  8  1  0  0  0  0
  7  9  1  0  0  0  0
 28 29  1  0  0  0  0
 28 30  1  0  0  0  0
 28 31  1  0  0  0  0
 26 27  1  0  0  0  0
 26 28  1  0  0  0  0
M  END
$$$$
default_name
  -OEChem-02102213163D

 31 30  0     1  0  0  0  0  0999 V2000
   -3.0760   -3.6390    1.5496 H   0  0  0  0  0  0  0  0  0  0  0  0
   -3.0940   -2.6290    1.1426 C   0  0  0  0  0  0  0  0  0  0  0  0
   -3.7160   -1.9930    1.7706 H   0  0  0  0  0  0  0  0  0  0  0  0
   -3.4880   -2.6500    0.1286 H   0  0  0  0  0  0  0  0  0  0  0  0
   -1.6860   -2.0850    1.1196 C   0  0  0  0  0  0  0  0  0  0  0  0
   -0.7540   -2.7700    1.5226 O   0  0  0  0  0  0  0  0  0  0  0  0
   -1.5320   -0.8490    0.6496 N   0  0  0  0  0  0  0  0  0  0  0  0
   -2.3500   -0.3360    0.3566 H   0  0  0  0  0  0  0  0  0  0  0  0
   -0.2470   -0.1410    0.5576 C   0  0  1  0  0  0  0  0  0  0  0  0
    0.4239   -0.7541   -0.0450 H   0  0  0  0  0  0  0  0  0  0  0  0
   -0.4317    1.2160   -0.1683 C   0  0  1  0  0  0  0  0  0  0  0  0
   -1.1853    1.7778    0.3869 H   0  0  0  0  0  0  0  0  0  0  0  0
    0.8604    2.0549   -0.1852 C   0  0  0  0  0  0  0  0  0  0  0  0
    1.6252    1.5698   -0.7943 H   0  0  0  0  0  0  0  0  0  0  0  0
    0.6620    3.0471   -0.5873 H   0  0  0  0  0  0  0  0  0  0  0  0
    1.2434    2.1770    0.8286 H   0  0  0  0  0  0  0  0  0  0  0  0
   -0.9742    1.0090   -1.6003 C   0  0  0  0  0  0  0  0  0  0  0  0
   -0.3973    1.6072   -2.3068 H   0  0  0  0  0  0  0  0  0  0  0  0
   -0.8616   -0.0412   -1.8695 H   0  0  0  0  0  0  0  0  0  0  0  0
   -2.4590    1.3646   -1.7553 C   0  0  0  0  0  0  0  0  0  0  0  0
   -2.6145    2.4323   -1.6014 H   0  0  0  0  0  0  0  0  0  0  0  0
   -2.7867    1.1083   -2.7630 H   0  0  0  0  0  0  0  0  0  0  0  0
   -3.0545    0.8021   -1.0354 H   0  0  0  0  0  0  0  0  0  0  0  0
    0.3833   -0.0008    1.9525 C   0  0  0  0  0  0  0  0  0  0  0  0
    1.5803   -0.2304    2.1189 O   0  0  0  0  0  0  0  0  0  0  0  0
   -0.4170    0.3858    2.9541 N   0  0  0  0  0  0  0  0  0  0  0  0
   -1.3850    0.5669    2.7398 H   0  0  0  0  0  0  0  0  0  0  0  0
    0.0265    0.5600    4.3358 C   0  0  0  0  0  0  0  0  0  0  0  0
    0.8964    1.2200    4.3632 H   0  0  0  0  0  0  0  0  0  0  0  0
   -0.7726    0.9946    4.9382 H   0  0  0  0  0  0  0  0  0  0  0  0
    0.3119   -0.4069    4.7547 H   0  0  0  0  0  0  0  0  0  0  0  0
  5  6  2  0  0  0  0
  5  7  1  0  0  0  0
  2  3  1  0  0  0  0
  2  4  1  0  0  0  0
  2  5  1  0  0  0  0
  1  2  1  0  0  0  0
 24 25  2  0  0  0  0
 24 26  1  0  0  0  0
 20 21  1  0  0  0  0
 20 22  1  0  0  0  0
 20 23  1  0  0  0  0
 17 18  1  0  0  0  0
 17 19  1  0  0  0  0
 17 20  1  0  0  0  0
 13 14  1  0  0  0  0
 13 15  1  0  0  0  0
 13 16  1  0  0  0  0
 11 12  1  0  0  0  0
 11 13  1  0  0  0  0
 11 17  1  0  0  0  0
  9 10  1  0  0  0  0
  9 11  1  0  0  0  0
  9 24  1  0  0  0  0
  7  8  1  0  0  0  0
  7  9  1  0  0  0  0
 28 29  1  0  0  0  0
 28 30  1  0  0  0  0
 28 31  1  0  0  0  0
 26 27  1  0  0  0  0
 26 28  1  0  0  0  0
M  END
$$$$
default_name
  -OEChem-02102213163D

 31 30  0     1  0  0  0  0  0999 V2000
   -3.0760   -3.6390    1.5496 H   0  0  0  0  0  0  0  0  0  0  0  0
   -3.0940   -2.6290    1.1426 C   0  0  0  0  0  0  0  0  0  0  0  0
   -3.7160   -1.9930    1.7706 H   0  0  0  0  0  0  0  0  0  0  0  0
   -3.4880   -2.6500    0.1286 H   0  0  0  0  0  0  0  0  0  0  0  0
   -1.6860   -2.0850    1.1196 C   0  0  0  0  0  0  0  0  0  0  0  0
   -0.7540   -2.7700    1.5226 O   0  0  0  0  0  0  0  0  0  0  0  0
   -1.5320   -0.8490    0.6496 N   0  0  0  0  0  0  0  0  0  0  0  0
   -2.3500   -0.3360    0.3566 H   0  0  0  0  0  0  0  0  0  0  0  0
   -0.2470   -0.1410    0.5576 C   0  0  1  0  0  0  0  0  0  0  0  0
    0.4239   -0.7541   -0.0450 H   0  0  0  0  0  0  0  0  0  0  0  0
   -0.4317    1.2160   -0.1683 C   0  0  1  0  0  0  0  0  0  0  0  0
   -1.1853    1.7778    0.3869 H   0  0  0  0  0  0  0  0  0  0  0  0
    0.8604    2.0549   -0.1852 C   0  0  0  0  0  0  0  0  0  0  0  0
    1.6252    1.5698   -0.7943 H   0  0  0  0  0  0  0  0  0  0  0  0
    0.6620    3.0471   -0.5873 H   0  0  0  0  0  0  0  0  0  0  0  0
    1.2434    2.1770    0.8286 H   0  0  0  0  0  0  0  0  0  0  0  0
   -0.9742    1.0090   -1.6003 C   0  0  0  0  0  0  0  0  0  0  0  0
   -0.2535    1.3826   -2.3289 H   0  0  0  0  0  0  0  0  0  0  0  0
   -1.1122   -0.0585   -1.7721 H   0  0  0  0  0  0  0  0  0  0  0  0
   -2.3251    1.6917   -1.8533 C   0  0  0  0  0  0  0  0  0  0  0  0
   -2.2218    2.7753   -1.7997 H   0  0  0  0  0  0  0  0  0  0  0  0
   -2.6812    1.4263   -2.8490 H   0  0  0  0  0  0  0  0  0  0  0  0
   -3.0556    1.3583   -1.1154 H   0  0  0  0  0  0  0  0  0  0  0  0
    0.3833   -0.0008    1.9525 C   0  0  0  0  0  0  0  0  0  0  0  0
    1.5803   -0.2304    2.1189 O   0  0  0  0  0  0  0  0  0  0  0  0
   -0.4170    0.3858    2.9541 N   0  0  0  0  0  0  0  0  0  0  0  0
   -1.3850    0.5669    2.7398 H   0  0  0  0  0  0  0  0  0  0  0  0
    0.0265    0.5600    4.3358 C   0  0  0  0  0  0  0  0  0  0  0  0
    0.8964    1.2200    4.3632 H   0  0  0  0  0  0  0  0  0  0  0  0
   -0.7726    0.9946    4.9382 H   0  0  0  0  0  0  0  0  0  0  0  0
    0.3119   -0.4069    4.7547 H   0  0  0  0  0  0  0  0  0  0  0  0
  5  6  2  0  0  0  0
  5  7  1  0  0  0  0
  2  3  1  0  0  0  0
  2  4  1  0  0  0  0
  2  5  1  0  0  0  0
  1  2  1  0  0  0  0
 24 25  2  0  0  0  0
 24 26  1  0  0  0  0
 20 21  1  0  0  0  0
 20 22  1  0  0  0  0
 20 23  1  0  0  0  0
 17 18  1  0  0  0  0
 17 19  1  0  0  0  0
 17 20  1  0  0  0  0
 13 14  1  0  0  0  0
 13 15  1  0  0  0  0
 13 16  1  0  0  0  0
 11 12  1  0  0  0  0
 11 13  1  0  0  0  0
 11 17  1  0  0  0  0
  9 10  1  0  0  0  0
  9 11  1  0  0  0  0
  9 24  1  0  0  0  0
  7  8  1  0  0  0  0
  7  9  1  0  0  0  0
 28 29  1  0  0  0  0
 28 30  1  0  0  0  0
 28 31  1  0  0  0  0
 26 27  1  0  0  0  0
 26 28  1  0  0  0  0
M  END
$$$$
default_name
  -OEChem-02102213163D

 31 30  0     1  0  0  0  0  0999 V2000
   -3.0760   -3.6390    1.5496 H   0  0  0  0  0  0  0  0  0  0  0  0
   -3.0940   -2.6290    1.1426 C   0  0  0  0  0  0  0  0  0  0  0  0
   -3.7160   -1.9930    1.7706 H   0  0  0  0  0  0  0  0  0  0  0  0
   -3.4880   -2.6500    0.1286 H   0  0  0  0  0  0  0  0  0  0  0  0
   -1.6860   -2.0850    1.1196 C   0  0  0  0  0  0  0  0  0  0  0  0
   -0.7540   -2.7700    1.5226 O   0  0  0  0  0  0  0  0  0  0  0  0
   -1.5320   -0.8490    0.6496 N   0  0  0  0  0  0  0  0  0  0  0  0
   -2.3500   -0.3360    0.3566 H   0  0  0  0  0  0  0  0  0  0  0  0
   -0.2470   -0.1410    0.5576 C   0  0  1  0  0  0  0  0  0  0  0  0
    0.4239   -0.7541   -0.0450 H   0  0  0  0  0  0  0  0  0  0  0  0
   -0.4317    1.2160   -0.1683 C   0  0  1  0  0  0  0  0  0  0  0  0
   -1.1853    1.7778    0.3869 H   0  0  0  0  0  0  0  0  0  0  0  0
    0.8604    2.0549   -0.1852 C   0  0  0  0  0  0  0  0  0  0  0  0
    1.6252    1.5698   -0.7943 H   0  0  0  0  0  0  0  0  0  0  0  0
    0.6620    3.0471   -0.5873 H   0  0  0  0  0  0  0  0  0  0  0  0
    1.2434    2.1770    0.8286 H   0  0  0  0  0  0  0  0  0  0  0  0
   -0.9742    1.0090   -1.6003 C   0  0  0  0  0  0  0  0  0  0  0  0
   -0.1676    1.1291   -2.3248 H   0  0  0  0  0  0  0  0  0  0  0  0
   -1.3617   -0.0062   -1.6851 H   0  0  0  0  0  0  0  0  0  0  0  0
   -2.1140    1.9667   -1.9731 C   0  0  0  0  0  0  0  0  0  0  0  0
   -1.7533    2.9945   -2.0089 H   0  0  0  0  0  0  0  0  0  0  0  0
   -2.5000    1.7002   -2.9572 H   0  0  0  0  0  0  0  0  0  0  0  0
   -2.9205    1.8887   -1.2432 H   0  0  0  0  0  0  0  0  0  0  0  0
    0.3833   -0.0008    1.9525 C   0  0  0  0  0  0  0  0  0  0  0  0
    1.5803   -0.2304    2.1189 O   0  0  0  0  0  0  0  0  0  0  0  0
   -0.4170    0.3858    2.9541 N   0  0  0  0  0  0  0  0  0  0  0  0
   -1.3850    0.5669    2.7398 H   0  0  0  0  0  0  0  0  0  0  0  0
    0.0265    0.5600    4.3358 C   0  0  0  0  0  0  0  0  0  0  0  0
    0.8964    1.2200    4.3632 H   0  0  0  0  0  0  0  0  0  0  0  0
   -0.7726    0.9946    4.9382 H   0  0  0  0  0  0  0  0  0  0  0  0
    0.3119   -0.4069    4.7547 H   0  0  0  0  0  0  0  0  0  0  0  0
  5  6  2  0  0  0  0
  5  7  1  0  0  0  0
  2  3  1  0  0  0  0
  2  4  1  0  0  0  0
  2  5  1  0  0  0  0
  1  2  1  0  0  0  0
 24 25  2  0  0  0  0
 24 26  1  0  0  0  0
 20 21  1  0  0  0  0
 20 22  1  0  0  0  0
 20 23  1  0  0  0  0
 17 18  1  0  0  0  0
 17 19  1  0  0  0  0
 17 20  1  0  0  0  0
 13 14  1  0  0  0  0
 13 15  1  0  0  0  0
 13 16  1  0  0  0  0
 11 12  1  0  0  0  0
 11 13  1  0  0  0  0
 11 17  1  0  0  0  0
  9 10  1  0  0  0  0
  9 11  1  0  0  0  0
  9 24  1  0  0  0  0
  7  8  1  0  0  0  0
  7  9  1  0  0  0  0
 28 29  1  0  0  0  0
 28 30  1  0  0  0  0
 28 31  1  0  0  0  0
 26 27  1  0  0  0  0
 26 28  1  0  0  0  0
M  END
$$$$
default_name
  -OEChem-02102213163D

 31 30  0     1  0  0  0  0  0999 V2000
   -3.0760   -3.6390    1.5496 H   0  0  0  0  0  0  0  0  0  0  0  0
   -3.0940   -2.6290    1.1426 C   0  0  0  0  0  0  0  0  0  0  0  0
   -3.7160   -1.9930    1.7706 H   0  0  0  0  0  0  0  0  0  0  0  0
   -3.4880   -2.6500    0.1286 H   0  0  0  0  0  0  0  0  0  0  0  0
   -1.6860   -2.0850    1.1196 C   0  0  0  0  0  0  0  0  0  0  0  0
   -0.7540   -2.7700    1.5226 O   0  0  0  0  0  0  0  0  0  0  0  0
   -1.5320   -0.8490    0.6496 N   0  0  0  0  0  0  0  0  0  0  0  0
   -2.3500   -0.3360    0.3566 H   0  0  0  0  0  0  0  0  0  0  0  0
   -0.2470   -0.1410    0.5576 C   0  0  1  0  0  0  0  0  0  0  0  0
    0.4239   -0.7541   -0.0450 H   0  0  0  0  0  0  0  0  0  0  0  0
   -0.4317    1.2160   -0.1683 C   0  0  1  0  0  0  0  0  0  0  0  0
   -1.1853    1.7778    0.3869 H   0  0  0  0  0  0  0  0  0  0  0  0
    0.8604    2.0549   -0.1852 C   0  0  0  0  0  0  0  0  0  0  0  0
    1.6252    1.5698   -0.7943 H   0  0  0  0  0  0  0  0  0  0  0  0
    0.6620    3.0471   -0.5873 H   0  0  0  0  0  0  0  0  0  0  0  0
    1.2434    2.1770    0.8286 H   0  0  0  0  0  0  0  0  0  0  0  0
   -0.9742    1.0090   -1.6003 C   0  0  0  0  0  0  0  0  0  0  0  0
   -0.1456    0.8640   -2.2948 H   0  0  0  0  0  0  0  0  0  0  0  0
   -1.5933    0.1120   -1.6144 H   0  0  0  0  0  0  0  0  0  0  0  0
   -1.8399    2.1707   -2.1064 C   0  0  0  0  0  0  0  0  0  0  0  0
   -1.2410    3.0749   -2.2146 H   0  0  0  0  0  0  0  0  0  0  0  0
   -2.2555    1.9116   -3.0804 H   0  0  0  0  0  0  0  0  0  0  0  0
   -2.6584    2.3569   -1.4102 H   0  0  0  0  0  0  0  0  0  0  0  0
    0.3833   -0.0008    1.9525 C   0  0  0  0  0  0  0  0  0  0  0  0
    1.5803   -0.2304    2.1189 O   0  0  0  0  0  0  0  0  0  0  0  0
   -0.4170    0.3858    2.9541 N   0  0  0  0  0  0  0  0  0  0  0  0
   -1.3850    0.5669    2.7398 H   0  0  0  0  0  0  0  0  0  0  0  0
    0.0265    0.5600    4.3358 C   0  0  0  0  0  0  0  0  0  0  0  0
    0.8964    1.2200    4.3632 H   0  0  0  0  0  0  0  0  0  0  0  0
   -0.7726    0.9946    4.9382 H   0  0  0  0  0  0  0  0  0  0  0  0
    0.3119   -0.4069    4.7547 H   0  0  0  0  0  0  0  0  0  0  0  0
  5  6  2  0  0  0  0
  5  7  1  0  0  0  0
  2  3  1  0  0  0  0
  2  4  1  0  0  0  0
  2  5  1  0  0  0  0
  1  2  1  0  0  0  0
 24 25  2  0  0  0  0
 24 26  1  0  0  0  0
 20 21  1  0  0  0  0
 20 22  1  0  0  0  0
 20 23  1  0  0  0  0
 17 18  1  0  0  0  0
 17 19  1  0  0  0  0
 17 20  1  0  0  0  0
 13 14  1  0  0  0  0
 13 15  1  0  0  0  0
 13 16  1  0  0  0  0
 11 12  1  0  0  0  0
 11 13  1  0  0  0  0
 11 17  1  0  0  0  0
  9 10  1  0  0  0  0
  9 11  1  0  0  0  0
  9 24  1  0  0  0  0
  7  8  1  0  0  0  0
  7  9  1  0  0  0  0
 28 29  1  0  0  0  0
 28 30  1  0  0  0  0
 28 31  1  0  0  0  0
 26 27  1  0  0  0  0
 26 28  1  0  0  0  0
M  END
$$$$
default_name
  -OEChem-02102213163D

 31 30  0     1  0  0  0  0  0999 V2000
   -3.0760   -3.6390    1.5496 H   0  0  0  0  0  0  0  0  0  0  0  0
   -3.0940   -2.6290    1.1426 C   0  0  0  0  0  0  0  0  0  0  0  0
   -3.7160   -1.9930    1.7706 H   0  0  0  0  0  0  0  0  0  0  0  0
   -3.4880   -2.6500    0.1286 H   0  0  0  0  0  0  0  0  0  0  0  0
   -1.6860   -2.0850    1.1196 C   0  0  0  0  0  0  0  0  0  0  0  0
   -0.7540   -2.7700    1.5226 O   0  0  0  0  0  0  0  0  0  0  0  0
   -1.5320   -0.8490    0.6496 N   0  0  0  0  0  0  0  0  0  0  0  0
   -2.3500   -0.3360    0.3566 H   0  0  0  0  0  0  0  0  0  0  0  0
   -0.2470   -0.1410    0.5576 C   0  0  1  0  0  0  0  0  0  0  0  0
    0.4239   -0.7541   -0.0450 H   0  0  0  0  0  0  0  0  0  0  0  0
   -0.4317    1.2160   -0.1683 C   0  0  1  0  0  0  0  0  0  0  0  0
   -1.1853    1.7778    0.3869 H   0  0  0  0  0  0  0  0  0  0  0  0
    0.8604    2.0549   -0.1852 C   0  0  0  0  0  0  0  0  0  0  0  0
    1.6252    1.5698   -0.7943 H   0  0  0  0  0  0  0  0  0  0  0  0
    0.6620    3.0471   -0.5873 H   0  0  0  0  0  0  0  0  0  0  0  0
    1.2434    2.1770    0.8286 H   0  0  0  0  0  0  0  0  0  0  0  0
   -0.9742    1.0090   -1.6003 C   0  0  0  0  0  0  0  0  0  0  0  0
   -0.1890    0.6054   -2.2410 H   0  0  0  0  0  0  0  0  0  0  0  0
   -1.7910    0.2882   -1.5650 H   0  0  0  0  0  0  0  0  0  0  0  0
   -1.5216    2.2900   -2.2442 C   0  0  0  0  0  0  0  0  0  0  0  0
   -0.7198    3.0109   -2.4028 H   0  0  0  0  0  0  0  0  0  0  0  0
   -1.9643    2.0459   -3.2101 H   0  0  0  0  0  0  0  0  0  0  0  0
   -2.2871    2.7311   -1.6049 H   0  0  0  0  0  0  0  0  0  0  0  0
    0.3833   -0.0008    1.9525 C   0  0  0  0  0  0  0  0  0  0  0  0
    1.5803   -0.2304    2.1189 O   0  0  0  0  0  0  0  0  0  0  0  0
   -0.4170    0.3858    2.9541 N   0  0  0  0  0  0  0  0  0  0  0  0
   -1.3850    0.5669    2.7398 H   0  0  0  0  0  0  0  0  0  0  0  0
    0.0265    0.5600    4.3358 C   0  0  0  0  0  0  0  0  0  0  0  0
    0.8964    1.2200    4.3632 H   0  0  0  0  0  0  0  0  0  0  0  0
   -0.7726    0.9946    4.9382 H   0  0  0  0  0  0  0  0  0  0  0  0
    0.3119   -0.4069    4.7547 H   0  0  0  0  0  0  0  0  0  0  0  0
  5  6  2  0  0  0  0
  5  7  1  0  0  0  0
  2  3  1  0  0  0  0
  2  4  1  0  0  0  0
  2  5  1  0  0  0  0
  1  2  1  0  0  0  0
 24 25  2  0  0  0  0
 24 26  1  0  0  0  0
 20 21  1  0  0  0  0
 20 22  1  0  0  0  0
 20 23  1  0  0  0  0
 17 18  1  0  0  0  0
 17 19  1  0  0  0  0
 17 20  1  0  0  0  0
 13 14  1  0  0  0  0
 13 15  1  0  0  0  0
 13 16  1  0  0  0  0
 11 12  1  0  0  0  0
 11 13  1  0  0  0  0
 11 17  1  0  0  0  0
  9 10  1  0  0  0  0
  9 11  1  0  0  0  0
  9 24  1  0  0  0  0
  7  8  1  0  0  0  0
  7  9  1  0  0  0  0
 28 29  1  0  0  0  0
 28 30  1  0  0  0  0
 28 31  1  0  0  0  0
 26 27  1  0  0  0  0
 26 28  1  0  0  0  0
M  END
$$$$
default_name
  -OEChem-02102213163D

 31 30  0     1  0  0  0  0  0999 V2000
   -3.0760   -3.6390    1.5496 H   0  0  0  0  0  0  0  0  0  0  0  0
   -3.0940   -2.6290    1.1426 C   0  0  0  0  0  0  0  0  0  0  0  0
   -3.7160   -1.9930    1.7706 H   0  0  0  0  0  0  0  0  0  0  0  0
   -3.4880   -2.6500    0.1286 H   0  0  0  0  0  0  0  0  0  0  0  0
   -1.6860   -2.0850    1.1196 C   0  0  0  0  0  0  0  0  0  0  0  0
   -0.7540   -2.7700    1.5226 O   0  0  0  0  0  0  0  0  0  0  0  0
   -1.5320   -0.8490    0.6496 N   0  0  0  0  0  0  0  0  0  0  0  0
   -2.3500   -0.3360    0.3566 H   0  0  0  0  0  0  0  0  0  0  0  0
   -0.2470   -0.1410    0.5576 C   0  0  1  0  0  0  0  0  0  0  0  0
    0.4239   -0.7541   -0.0450 H   0  0  0  0  0  0  0  0  0  0  0  0
   -0.4317    1.2160   -0.1683 C   0  0  1  0  0  0  0  0  0  0  0  0
   -0.9670    1.8767    0.5163 H   0  0  0  0  0  0  0  0  0  0  0  0
    0.9119    1.8867   -0.5127 C   0  0  0  0  0  0  0  0  0  0  0  0
    1.4548    1.2998   -1.2557 H   0  0  0  0  0  0  0  0  0  0  0  0
    0.7450    2.8890   -0.9039 H   0  0  0  0  0  0  0  0  0  0  0  0
    1.5280    1.9772    0.3827 H   0  0  0  0  0  0  0  0  0  0  0  0
   -1.3075    1.0542   -1.4310 C   0  0  0  0  0  0  0  0  0  0  0  0
   -0.8555    0.3268   -2.1067 H   0  0  0  0  0  0  0  0  0  0  0  0
   -2.2872    0.6812   -1.1328 H   0  0  0  0  0  0  0  0  0  0  0  0
   -1.5308    2.3638   -2.1994 C   0  0  0  0  0  0  0  0  0  0  0  0
   -0.5914    2.7282   -2.6148 H   0  0  0  0  0  0  0  0  0  0  0  0
   -2.2264    2.1852   -3.0196 H   0  0  0  0  0  0  0  0  0  0  0  0
   -1.9527    3.1187   -1.5351 H   0  0  0  0  0  0  0  0  0  0  0  0
    0.3833   -0.0008    1.9525 C   0  0  0  0  0  0  0  0  0  0  0  0
    1.5803   -0.2304    2.1189 O   0  0  0  0  0  0  0  0  0  0  0  0
   -0.4170    0.3858    2.9541 N   0  0  0  0  0  0  0  0  0  0  0  0
   -1.3850    0.5669    2.7398 H   0  0  0  0  0  0  0  0  0  0  0  0
    0.0265    0.5600    4.3358 C   0  0  0  0  0  0  0  0  0  0  0  0
    0.8964    1.2200    4.3632 H   0  0  0  0  0  0  0  0  0  0  0  0
   -0.7726    0.9946    4.9382 H   0  0  0  0  0  0  0  0  0  0  0  0
    0.3119   -0.4069    4.7547 H   0  0  0  0  0  0  0  0  0  0  0  0
  5  6  2  0  0  0  0
  5  7  1  0  0  0  0
  2  3  1  0  0  0  0
  2  4  1  0  0  0  0
  2  5  1  0  0  0  0
  1  2  1  0  0  0  0
 24 25  2  0  0  0  0
 24 26  1  0  0  0  0
 20 21  1  0  0  0  0
 20 22  1  0  0  0  0
 20 23  1  0  0  0  0
 17 18  1  0  0  0  0
 17 19  1  0  0  0  0
 17 20  1  0  0  0  0
 13 14  1  0  0  0  0
 13 15  1  0  0  0  0
 13 16  1  0  0  0  0
 11 12  1  0  0  0  0
 11 13  1  0  0  0  0
 11 17  1  0  0  0  0
  9 10  1  0  0  0  0
  9 11  1  0  0  0  0
  9 24  1  0  0  0  0
  7  8  1  0  0  0  0
  7  9  1  0  0  0  0
 28 29  1  0  0  0  0
 28 30  1  0  0  0  0
 28 31  1  0  0  0  0
 26 27  1  0  0  0  0
 26 28  1  0  0  0  0
M  END
$$$$
default_name
  -OEChem-02102213163D

 31 30  0     1  0  0  0  0  0999 V2000
   -3.0760   -3.6390    1.5496 H   0  0  0  0  0  0  0  0  0  0  0  0
   -3.0940   -2.6290    1.1426 C   0  0  0  0  0  0  0  0  0  0  0  0
   -3.7160   -1.9930    1.7706 H   0  0  0  0  0  0  0  0  0  0  0  0
   -3.4880   -2.6500    0.1286 H   0  0  0  0  0  0  0  0  0  0  0  0
   -1.6860   -2.0850    1.1196 C   0  0  0  0  0  0  0  0  0  0  0  0
   -0.7540   -2.7700    1.5226 O   0  0  0  0  0  0  0  0  0  0  0  0
   -1.5320   -0.8490    0.6496 N   0  0  0  0  0  0  0  0  0  0  0  0
   -2.3500   -0.3360    0.3566 H   0  0  0  0  0  0  0  0  0  0  0  0
   -0.2470   -0.1410    0.5576 C   0  0  1  0  0  0  0  0  0  0  0  0
    0.4239   -0.7541   -0.0450 H   0  0  0  0  0  0  0  0  0  0  0  0
   -0.4317    1.2160   -0.1683 C   0  0  1  0  0  0  0  0  0  0  0  0
   -0.9670    1.8767    0.5163 H   0  0  0  0  0  0  0  0  0  0  0  0
    0.9119    1.8867   -0.5127 C   0  0  0  0  0  0  0  0  0  0  0  0
    1.4548    1.2998   -1.2557 H   0  0  0  0  0  0  0  0  0  0  0  0
    0.7450    2.8890   -0.9039 H   0  0  0  0  0  0  0  0  0  0  0  0
    1.5280    1.9772    0.3827 H   0  0  0  0  0  0  0  0  0  0  0  0
   -1.3075    1.0542   -1.4310 C   0  0  0  0  0  0  0  0  0  0  0  0
   -1.0136    0.1556   -1.9751 H   0  0  0  0  0  0  0  0  0  0  0  0
   -2.3476    0.9436   -1.1245 H   0  0  0  0  0  0  0  0  0  0  0  0
   -1.2373    2.2514   -2.3886 C   0  0  0  0  0  0  0  0  0  0  0  0
   -0.2372    2.3446   -2.8114 H   0  0  0  0  0  0  0  0  0  0  0  0
   -1.9457    2.1019   -3.2036 H   0  0  0  0  0  0  0  0  0  0  0  0
   -1.4958    3.1688   -1.8584 H   0  0  0  0  0  0  0  0  0  0  0  0
    0.3833   -0.0008    1.9525 C   0  0  0  0  0  0  0  0  0  0  0  0
    1.5803   -0.2304    2.1189 O   0  0  0  0  0  0  0  0  0  0  0  0
   -0.4170    0.3858    2.9541 N   0  0  0  0  0  0  0  0  0  0  0  0
   -1.3850    0.5669    2.7398 H   0  0  0  0  0  0  0  0  0  0  0  0
    0.0265    0.5600    4.3358 C   0  0  0  0  0  0  0  0  0  0  0  0
    0.8964    1.2200    4.3632 H   0  0  0  0  0  0  0  0  0  0  0  0
   -0.7726    0.9946    4.9382 H   0  0  0  0  0  0  0  0  0  0  0  0
    0.3119   -0.4069    4.7547 H   0  0  0  0  0  0  0  0  0  0  0  0
  5  6  2  0  0  0  0
  5  7  1  0  0  0  0
  2  3  1  0  0  0  0
  2  4  1  0  0  0  0
  2  5  1  0  0  0  0
  1  2  1  0  0  0  0
 24 25  2  0  0  0  0
 24 26  1  0  0  0  0
 20 21  1  0  0  0  0
 20 22  1  0  0  0  0
 20 23  1  0  0  0  0
 17 18  1  0  0  0  0
 17 19  1  0  0  0  0
 17 20  1  0  0  0  0
 13 14  1  0  0  0  0
 13 15  1  0  0  0  0
 13 16  1  0  0  0  0
 11 12  1  0  0  0  0
 11 13  1  0  0  0  0
 11 17  1  0  0  0  0
  9 10  1  0  0  0  0
  9 11  1  0  0  0  0
  9 24  1  0  0  0  0
  7  8  1  0  0  0  0
  7  9  1  0  0  0  0
 28 29  1  0  0  0  0
 28 30  1  0  0  0  0
 28 31  1  0  0  0  0
 26 27  1  0  0  0  0
 26 28  1  0  0  0  0
M  END
$$$$
default_name
  -OEChem-02102213163D

 31 30  0     1  0  0  0  0  0999 V2000
   -3.0760   -3.6390    1.5496 H   0  0  0  0  0  0  0  0  0  0  0  0
   -3.0940   -2.6290    1.1426 C   0  0  0  0  0  0  0  0  0  0  0  0
   -3.7160   -1.9930    1.7706 H   0  0  0  0  0  0  0  0  0  0  0  0
   -3.4880   -2.6500    0.1286 H   0  0  0  0  0  0  0  0  0  0  0  0
   -1.6860   -2.0850    1.1196 C   0  0  0  0  0  0  0  0  0  0  0  0
   -0.7540   -2.7700    1.5226 O   0  0  0  0  0  0  0  0  0  0  0  0
   -1.5320   -0.8490    0.6496 N   0  0  0  0  0  0  0  0  0  0  0  0
   -2.3500   -0.3360    0.3566 H   0  0  0  0  0  0  0  0  0  0  0  0
   -0.2470   -0.1410    0.5576 C   0  0  1  0  0  0  0  0  0  0  0  0
    0.4239   -0.7541   -0.0450 H   0  0  0  0  0  0  0  0  0  0  0  0
   -0.4317    1.2160   -0.1683 C   0  0  1  0  0  0  0  0  0  0  0  0
   -0.9670    1.8767    0.5163 H   0  0  0  0  0  0  0  0  0  0  0  0
    0.9119    1.8867   -0.5127 C   0  0  0  0  0  0  0  0  0  0  0  0
    1.4548    1.2998   -1.2557 H   0  0  0  0  0  0  0  0  0  0  0  0
    0.7450    2.8890   -0.9039 H   0  0  0  0  0  0  0  0  0  0  0  0
    1.5280    1.9772    0.3827 H   0  0  0  0  0  0  0  0  0  0  0  0
   -1.3075    1.0542   -1.4310 C   0  0  0  0  0  0  0  0  0  0  0  0
   -1.2061    0.0429   -1.8272 H   0  0  0  0  0  0  0  0  0  0  0  0
   -2.3506    1.2111   -1.1567 H   0  0  0  0  0  0  0  0  0  0  0  0
   -0.9724    2.0531   -2.5469 C   0  0  0  0  0  0  0  0  0  0  0  0
    0.0292    1.8704   -2.9354 H   0  0  0  0  0  0  0  0  0  0  0  0
   -1.6872    1.9351   -3.3616 H   0  0  0  0  0  0  0  0  0  0  0  0
   -1.0351    3.0730   -2.1657 H   0  0  0  0  0  0  0  0  0  0  0  0
    0.3833   -0.0008    1.9525 C   0  0  0  0  0  0  0  0  0  0  0  0
    1.5803   -0.2304    2.1189 O   0  0  0  0  0  0  0  0  0  0  0  0
   -0.4170    0.3858    2.9541 N   0  0  0  0  0  0  0  0  0  0  0  0
   -1.3850    0.5669    2.7398 H   0  0  0  0  0  0  0  0  0  0  0  0
    0.0265    0.5600    4.3358 C   0  0  0  0  0  0  0  0  0  0  0  0
    0.8964    1.2200    4.3632 H   0  0  0  0  0  0  0  0  0  0  0  0
   -0.7726    0.9946    4.9382 H   0  0  0  0  0  0  0  0  0  0  0  0
    0.3119   -0.4069    4.7547 H   0  0  0  0  0  0  0  0  0  0  0  0
  5  6  2  0  0  0  0
  5  7  1  0  0  0  0
  2  3  1  0  0  0  0
  2  4  1  0  0  0  0
  2  5  1  0  0  0  0
  1  2  1  0  0  0  0
 24 25  2  0  0  0  0
 24 26  1  0  0  0  0
 20 21  1  0  0  0  0
 20 22  1  0  0  0  0
 20 23  1  0  0  0  0
 17 18  1  0  0  0  0
 17 19  1  0  0  0  0
 17 20  1  0  0  0  0
 13 14  1  0  0  0  0
 13 15  1  0  0  0  0
 13 16  1  0  0  0  0
 11 12  1  0  0  0  0
 11 13  1  0  0  0  0
 11 17  1  0  0  0  0
  9 10  1  0  0  0  0
  9 11  1  0  0  0  0
  9 24  1  0  0  0  0
  7  8  1  0  0  0  0
  7  9  1  0  0  0  0
 28 29  1  0  0  0  0
 28 30  1  0  0  0  0
 28 31  1  0  0  0  0
 26 27  1  0  0  0  0
 26 28  1  0  0  0  0
M  END
$$$$
default_name
  -OEChem-02102213163D

 31 30  0     1  0  0  0  0  0999 V2000
   -3.0760   -3.6390    1.5496 H   0  0  0  0  0  0  0  0  0  0  0  0
   -3.0940   -2.6290    1.1426 C   0  0  0  0  0  0  0  0  0  0  0  0
   -3.7160   -1.9930    1.7706 H   0  0  0  0  0  0  0  0  0  0  0  0
   -3.4880   -2.6500    0.1286 H   0  0  0  0  0  0  0  0  0  0  0  0
   -1.6860   -2.0850    1.1196 C   0  0  0  0  0  0  0  0  0  0  0  0
   -0.7540   -2.7700    1.5226 O   0  0  0  0  0  0  0  0  0  0  0  0
   -1.5320   -0.8490    0.6496 N   0  0  0  0  0  0  0  0  0  0  0  0
   -2.3500   -0.3360    0.3566 H   0  0  0  0  0  0  0  0  0  0  0  0
   -0.2470   -0.1410    0.5576 C   0  0  1  0  0  0  0  0  0  0  0  0
    0.4239   -0.7541   -0.0450 H   0  0  0  0  0  0  0  0  0  0  0  0
   -0.4317    1.2160   -0.1683 C   0  0  1  0  0  0  0  0  0  0  0  0
   -0.9670    1.8767    0.5163 H   0  0  0  0  0  0  0  0  0  0  0  0
    0.9119    1.8867   -0.5127 C   0  0  0  0  0  0  0  0  0  0  0  0
    1.4548    1.2998   -1.2557 H   0  0  0  0  0  0  0  0  0  0  0  0
    0.7450    2.8890   -0.9039 H   0  0  0  0  0  0  0  0  0  0  0  0
    1.5280    1.9772    0.3827 H   0  0  0  0  0  0  0  0  0  0  0  0
   -1.3075    1.0542   -1.4310 C   0  0  0  0  0  0  0  0  0  0  0  0
   -1.4199   -0.0035   -1.6729 H   0  0  0  0  0  0  0  0  0  0  0  0
   -2.2961    1.4653   -1.2271 H   0  0  0  0  0  0  0  0  0  0  0  0
   -0.7543    1.7823   -2.6635 C   0  0  0  0  0  0  0  0  0  0  0  0
    0.1896    1.3378   -2.9785 H   0  0  0  0  0  0  0  0  0  0  0  0
   -1.4685    1.6961   -3.4827 H   0  0  0  0  0  0  0  0  0  0  0  0
   -0.6020    2.8380   -2.4360 H   0  0  0  0  0  0  0  0  0  0  0  0
    0.3833   -0.0008    1.9525 C   0  0  0  0  0  0  0  0  0  0  0  0
    1.5803   -0.2304    2.1189 O   0  0  0  0  0  0  0  0  0  0  0  0
   -0.4170    0.3858    2.9541 N   0  0  0  0  0  0  0  0  0  0  0  0
   -1.3850    0.5669    2.7398 H   0  0  0  0  0  0  0  0  0  0  0  0
    0.0265    0.5600    4.3358 C   0  0  0  0  0  0  0  0  0  0  0  0
    0.8964    1.2200    4.3632 H   0  0  0  0  0  0  0  0  0  0  0  0
   -0.7726    0.9946    4.9382 H   0  0  0  0  0  0  0  0  0  0  0  0
    0.3119   -0.4069    4.7547 H   0  0  0  0  0  0  0  0  0  0  0  0
  5  6  2  0  0  0  0
  5  7  1  0  0  0  0
  2  3  1  0  0  0  0
  2  4  1  0  0  0  0
  2  5  1  0  0  0  0
  1  2  1  0  0  0  0
 24 25  2  0  0  0  0
 24 26  1  0  0  0  0
 20 21  1  0  0  0  0
 20 22  1  0  0  0  0
 20 23  1  0  0  0  0
 17 18  1  0  0  0  0
 17 19  1  0  0  0  0
 17 20  1  0  0  0  0
 13 14  1  0  0  0  0
 13 15  1  0  0  0  0
 13 16  1  0  0  0  0
 11 12  1  0  0  0  0
 11 13  1  0  0  0  0
 11 17  1  0  0  0  0
  9 10  1  0  0  0  0
  9 11  1  0  0  0  0
  9 24  1  0  0  0  0
  7  8  1  0  0  0  0
  7  9  1  0  0  0  0
 28 29  1  0  0  0  0
 28 30  1  0  0  0  0
 28 31  1  0  0  0  0
 26 27  1  0  0  0  0
 26 28  1  0  0  0  0
M  END
$$$$
default_name
  -OEChem-02102213163D

 31 30  0     1  0  0  0  0  0999 V2000
   -3.0760   -3.6390    1.5496 H   0  0  0  0  0  0  0  0  0  0  0  0
   -3.0940   -2.6290    1.1426 C   0  0  0  0  0  0  0  0  0  0  0  0
   -3.7160   -1.9930    1.7706 H   0  0  0  0  0  0  0  0  0  0  0  0
   -3.4880   -2.6500    0.1286 H   0  0  0  0  0  0  0  0  0  0  0  0
   -1.6860   -2.0850    1.1196 C   0  0  0  0  0  0  0  0  0  0  0  0
   -0.7540   -2.7700    1.5226 O   0  0  0  0  0  0  0  0  0  0  0  0
   -1.5320   -0.8490    0.6496 N   0  0  0  0  0  0  0  0  0  0  0  0
   -2.3500   -0.3360    0.3566 H   0  0  0  0  0  0  0  0  0  0  0  0
   -0.2470   -0.1410    0.5576 C   0  0  1  0  0  0  0  0  0  0  0  0
    0.4239   -0.7541   -0.0450 H   0  0  0  0  0  0  0  0  0  0  0  0
   -0.4317    1.2160   -0.1683 C   0  0  1  0  0  0  0  0  0  0  0  0
   -0.9670    1.8767    0.5163 H   0  0  0  0  0  0  0  0  0  0  0  0
    0.9119    1.8867   -0.5127 C   0  0  0  0  0  0  0  0  0  0  0  0
    1.4548    1.2998   -1.2557 H   0  0  0  0  0  0  0  0  0  0  0  0
    0.7450    2.8890   -0.9039 H   0  0  0  0  0  0  0  0  0  0  0  0
    1.5280    1.9772    0.3827 H   0  0  0  0  0  0  0  0  0  0  0  0
   -1.3075    1.0542   -1.4310 C   0  0  0  0  0  0  0  0  0  0  0  0
   -1.6404    0.0195   -1.5229 H   0  0  0  0  0  0  0  0  0  0  0  0
   -2.1878    1.6891   -1.3309 H   0  0  0  0  0  0  0  0  0  0  0  0
   -0.5976    1.4575   -2.7305 C   0  0  0  0  0  0  0  0  0  0  0  0
    0.2331    0.7831   -2.9375 H   0  0  0  0  0  0  0  0  0  0  0  0
   -1.3045    1.4012   -3.5586 H   0  0  0  0  0  0  0  0  0  0  0  0
   -0.2261    2.4797   -2.6508 H   0  0  0  0  0  0  0  0  0  0  0  0
    0.3833   -0.0008    1.9525 C   0  0  0  0  0  0  0  0  0  0  0  0
    1.5803   -0.2304    2.1189 O   0  0  0  0  0  0  0  0  0  0  0  0
   -0.4170    0.3858    2.9541 N   0  0  0  0  0  0  0  0  0  0  0  0
   -1.3850    0.5669    2.7398 H   0  0  0  0  0  0  0  0  0  0  0  0
    0.0265    0.5600    4.3358 C   0  0  0  0  0  0  0  0  0  0  0  0
    0.8964    1.2200    4.3632 H   0  0  0  0  0  0  0  0  0  0  0  0
   -0.7726    0.9946    4.9382 H   0  0  0  0  0  0  0  0  0  0  0  0
    0.3119   -0.4069    4.7547 H   0  0  0  0  0  0  0  0  0  0  0  0
  5  6  2  0  0  0  0
  5  7  1  0  0  0  0
  2  3  1  0  0  0  0
  2  4  1  0  0  0  0
  2  5  1  0  0  0  0
  1  2  1  0  0  0  0
 24 25  2  0  0  0  0
 24 26  1  0  0  0  0
 20 21  1  0  0  0  0
 20 22  1  0  0  0  0
 20 23  1  0  0  0  0
 17 18  1  0  0  0  0
 17 19  1  0  0  0  0
 17 20  1  0  0  0  0
 13 14  1  0  0  0  0
 13 15  1  0  0  0  0
 13 16  1  0  0  0  0
 11 12  1  0  0  0  0
 11 13  1  0  0  0  0
 11 17  1  0  0  0  0
  9 10  1  0  0  0  0
  9 11  1  0  0  0  0
  9 24  1  0  0  0  0
  7  8  1  0  0  0  0
  7  9  1  0  0  0  0
 28 29  1  0  0  0  0
 28 30  1  0  0  0  0
 28 31  1  0  0  0  0
 26 27  1  0  0  0  0
 26 28  1  0  0  0  0
M  END
$$$$
default_name
  -OEChem-02102213163D

 31 30  0     1  0  0  0  0  0999 V2000
   -3.0760   -3.6390    1.5496 H   0  0  0  0  0  0  0  0  0  0  0  0
   -3.0940   -2.6290    1.1426 C   0  0  0  0  0  0  0  0  0  0  0  0
   -3.7160   -1.9930    1.7706 H   0  0  0  0  0  0  0  0  0  0  0  0
   -3.4880   -2.6500    0.1286 H   0  0  0  0  0  0  0  0  0  0  0  0
   -1.6860   -2.0850    1.1196 C   0  0  0  0  0  0  0  0  0  0  0  0
   -0.7540   -2.7700    1.5226 O   0  0  0  0  0  0  0  0  0  0  0  0
   -1.5320   -0.8490    0.6496 N   0  0  0  0  0  0  0  0  0  0  0  0
   -2.3500   -0.3360    0.3566 H   0  0  0  0  0  0  0  0  0  0  0  0
   -0.2470   -0.1410    0.5576 C   0  0  1  0  0  0  0  0  0  0  0  0
    0.4239   -0.7541   -0.0450 H   0  0  0  0  0  0  0  0  0  0  0  0
   -0.4317    1.2160   -0.1683 C   0  0  1  0  0  0  0  0  0  0  0  0
   -0.9670    1.8767    0.5163 H   0  0  0  0  0  0  0  0  0  0  0  0
    0.9119    1.8867   -0.5127 C   0  0  0  0  0  0  0  0  0  0  0  0
    1.4548    1.2998   -1.2557 H   0  0  0  0  0  0  0  0  0  0  0  0
    0.7450    2.8890   -0.9039 H   0  0  0  0  0  0  0  0  0  0  0  0
    1.5280    1.9772    0.3827 H   0  0  0  0  0  0  0  0  0  0  0  0
   -1.3075    1.0542   -1.4310 C   0  0  0  0  0  0  0  0  0  0  0  0
   -1.8526    0.1103   -1.3874 H   0  0  0  0  0  0  0  0  0  0  0  0
   -2.0330    1.8671   -1.4611 H   0  0  0  0  0  0  0  0  0  0  0  0
   -0.5132    1.1008   -2.7434 C   0  0  0  0  0  0  0  0  0  0  0  0
    0.1566    0.2441   -2.8154 H   0  0  0  0  0  0  0  0  0  0  0  0
   -1.2064    1.0706   -3.5843 H   0  0  0  0  0  0  0  0  0  0  0  0
    0.0671    2.0226   -2.7956 H   0  0  0  0  0  0  0  0  0  0  0  0
    0.3833   -0.0008    1.9525 C   0  0  0  0  0  0  0  0  0  0  0  0
    1.5803   -0.2304    2.1189 O   0  0  0  0  0  0  0  0  0  0  0  0
   -0.4170    0.3858    2.9541 N   0  0  0  0  0  0  0  0  0  0  0  0
   -1.3850    0.5669    2.7398 H   0  0  0  0  0  0  0  0  0  0  0  0
    0.0265    0.5600    4.3358 C   0  0  0  0  0  0  0  0  0  0  0  0
    0.8964    1.2200    4.3632 H   0  0  0  0  0  0  0  0  0  0  0  0
   -0.7726    0.9946    4.9382 H   0  0  0  0  0  0  0  0  0  0  0  0
    0.3119   -0.4069    4.7547 H   0  0  0  0  0  0  0  0  0  0  0  0
  5  6  2  0  0  0  0
  5  7  1  0  0  0  0
  2  3  1  0  0  0  0
  2  4  1  0  0  0  0
  2  5  1  0  0  0  0
  1  2  1  0  0  0  0
 24 25  2  0  0  0  0
 24 26  1  0  0  0  0
 20 21  1  0  0  0  0
 20 22  1  0  0  0  0
 20 23  1  0  0  0  0
 17 18  1  0  0  0  0
 17 19  1  0  0  0  0
 17 20  1  0  0  0  0
 13 14  1  0  0  0  0
 13 15  1  0  0  0  0
 13 16  1  0  0  0  0
 11 12  1  0  0  0  0
 11 13  1  0  0  0  0
 11 17  1  0  0  0  0
  9 10  1  0  0  0  0
  9 11  1  0  0  0  0
  9 24  1  0  0  0  0
  7  8  1  0  0  0  0
  7  9  1  0  0  0  0
 28 29  1  0  0  0  0
 28 30  1  0  0  0  0
 28 31  1  0  0  0  0
 26 27  1  0  0  0  0
 26 28  1  0  0  0  0
M  END
$$$$
default_name
  -OEChem-02102213163D

 31 30  0     1  0  0  0  0  0999 V2000
   -3.0760   -3.6390    1.5496 H   0  0  0  0  0  0  0  0  0  0  0  0
   -3.0940   -2.6290    1.1426 C   0  0  0  0  0  0  0  0  0  0  0  0
   -3.7160   -1.9930    1.7706 H   0  0  0  0  0  0  0  0  0  0  0  0
   -3.4880   -2.6500    0.1286 H   0  0  0  0  0  0  0  0  0  0  0  0
   -1.6860   -2.0850    1.1196 C   0  0  0  0  0  0  0  0  0  0  0  0
   -0.7540   -2.7700    1.5226 O   0  0  0  0  0  0  0  0  0  0  0  0
   -1.5320   -0.8490    0.6496 N   0  0  0  0  0  0  0  0  0  0  0  0
   -2.3500   -0.3360    0.3566 H   0  0  0  0  0  0  0  0  0  0  0  0
   -0.2470   -0.1410    0.5576 C   0  0  1  0  0  0  0  0  0  0  0  0
    0.4239   -0.7541   -0.0450 H   0  0  0  0  0  0  0  0  0  0  0  0
   -0.4317    1.2160   -0.1683 C   0  0  1  0  0  0  0  0  0  0  0  0
   -0.9670    1.8767    0.5163 H   0  0  0  0  0  0  0  0  0  0  0  0
    0.9119    1.8867   -0.5127 C   0  0  0  0  0  0  0  0  0  0  0  0
    1.4548    1.2998   -1.2557 H   0  0  0  0  0  0  0  0  0  0  0  0
    0.7450    2.8890   -0.9039 H   0  0  0  0  0  0  0  0  0  0  0  0
    1.5280    1.9772    0.3827 H   0  0  0  0  0  0  0  0  0  0  0  0
   -1.3075    1.0542   -1.4310 C   0  0  0  0  0  0  0  0  0  0  0  0
   -2.0420    0.2629   -1.2756 H   0  0  0  0  0  0  0  0  0  0  0  0
   -1.8423    1.9872   -1.6087 H   0  0  0  0  0  0  0  0  0  0  0  0
   -0.5068    0.7365   -2.7011 C   0  0  0  0  0  0  0  0  0  0  0  0
   -0.0345   -0.2424   -2.6205 H   0  0  0  0  0  0  0  0  0  0  0  0
   -1.1808    0.7267   -3.5580 H   0  0  0  0  0  0  0  0  0  0  0  0
    0.2576    1.4979   -2.8605 H   0  0  0  0  0  0  0  0  0  0  0  0
    0.3833   -0.0008    1.9525 C   0  0  0  0  0  0  0  0  0  0  0  0
    1.5803   -0.2304    2.1189 O   0  0  0  0  0  0  0  0  0  0  0  0
   -0.4170    0.3858    2.9541 N   0  0  0  0  0  0  0  0  0  0  0  0
   -1.3850    0.5669    2.7398 H   0  0  0  0  0  0  0  0  0  0  0  0
    0.0265    0.5600    4.3358 C   0  0  0  0  0  0  0  0  0  0  0  0
    0.8964    1.2200    4.3632 H   0  0  0  0  0  0  0  0  0  0  0  0
   -0.7726    0.9946    4.9382 H   0  0  0  0  0  0  0  0  0  0  0  0
    0.3119   -0.4069    4.7547 H   0  0  0  0  0  0  0  0  0  0  0  0
  5  6  2  0  0  0  0
  5  7  1  0  0  0  0
  2  3  1  0  0  0  0
  2  4  1  0  0  0  0
  2  5  1  0  0  0  0
  1  2  1  0  0  0  0
 24 25  2  0  0  0  0
 24 26  1  0  0  0  0
 20 21  1  0  0  0  0
 20 22  1  0  0  0  0
 20 23  1  0  0  0  0
 17 18  1  0  0  0  0
 17 19  1  0  0  0  0
 17 20  1  0  0  0  0
 13 14  1  0  0  0  0
 13 15  1  0  0  0  0
 13 16  1  0  0  0  0
 11 12  1  0  0  0  0
 11 13  1  0  0  0  0
 11 17  1  0  0  0  0
  9 10  1  0  0  0  0
  9 11  1  0  0  0  0
  9 24  1  0  0  0  0
  7  8  1  0  0  0  0
  7  9  1  0  0  0  0
 28 29  1  0  0  0  0
 28 30  1  0  0  0  0
 28 31  1  0  0  0  0
 26 27  1  0  0  0  0
 26 28  1  0  0  0  0
M  END
$$$$
default_name
  -OEChem-02102213163D

 31 30  0     1  0  0  0  0  0999 V2000
   -3.0760   -3.6390    1.5496 H   0  0  0  0  0  0  0  0  0  0  0  0
   -3.0940   -2.6290    1.1426 C   0  0  0  0  0  0  0  0  0  0  0  0
   -3.7160   -1.9930    1.7706 H   0  0  0  0  0  0  0  0  0  0  0  0
   -3.4880   -2.6500    0.1286 H   0  0  0  0  0  0  0  0  0  0  0  0
   -1.6860   -2.0850    1.1196 C   0  0  0  0  0  0  0  0  0  0  0  0
   -0.7540   -2.7700    1.5226 O   0  0  0  0  0  0  0  0  0  0  0  0
   -1.5320   -0.8490    0.6496 N   0  0  0  0  0  0  0  0  0  0  0  0
   -2.3500   -0.3360    0.3566 H   0  0  0  0  0  0  0  0  0  0  0  0
   -0.2470   -0.1410    0.5576 C   0  0  1  0  0  0  0  0  0  0  0  0
    0.4239   -0.7541   -0.0450 H   0  0  0  0  0  0  0  0  0  0  0  0
   -0.4317    1.2160   -0.1683 C   0  0  1  0  0  0  0  0  0  0  0  0
   -0.9670    1.8767    0.5163 H   0  0  0  0  0  0  0  0  0  0  0  0
    0.9119    1.8867   -0.5127 C   0  0  0  0  0  0  0  0  0  0  0  0
    1.4548    1.2998   -1.2557 H   0  0  0  0  0  0  0  0  0  0  0  0
    0.7450    2.8890   -0.9039 H   0  0  0  0  0  0  0  0  0  0  0  0
    1.5280    1.9772    0.3827 H   0  0  0  0  0  0  0  0  0  0  0  0
   -1.3075    1.0542   -1.4310 C   0  0  0  0  0  0  0  0  0  0  0  0
   -2.1958    0.4667   -1.1950 H   0  0  0  0  0  0  0  0  0  0  0  0
   -1.6287    2.0412   -1.7638 H   0  0  0  0  0  0  0  0  0  0  0  0
   -0.5787    0.3895   -2.6068 C   0  0  0  0  0  0  0  0  0  0  0  0
   -0.3273   -0.6433   -2.3660 H   0  0  0  0  0  0  0  0  0  0  0  0
   -1.2296    0.3929   -3.4814 H   0  0  0  0  0  0  0  0  0  0  0  0
    0.3323    0.9412   -2.8410 H   0  0  0  0  0  0  0  0  0  0  0  0
    0.3833   -0.0008    1.9525 C   0  0  0  0  0  0  0  0  0  0  0  0
    1.5803   -0.2304    2.1189 O   0  0  0  0  0  0  0  0  0  0  0  0
   -0.4170    0.3858    2.9541 N   0  0  0  0  0  0  0  0  0  0  0  0
   -1.3850    0.5669    2.7398 H   0  0  0  0  0  0  0  0  0  0  0  0
    0.0265    0.5600    4.3358 C   0  0  0  0  0  0  0  0  0  0  0  0
    0.8964    1.2200    4.3632 H   0  0  0  0  0  0  0  0  0  0  0  0
   -0.7726    0.9946    4.9382 H   0  0  0  0  0  0  0  0  0  0  0  0
    0.3119   -0.4069    4.7547 H   0  0  0  0  0  0  0  0  0  0  0  0
  5  6  2  0  0  0  0
  5  7  1  0  0  0  0
  2  3  1  0  0  0  0
  2  4  1  0  0  0  0
  2  5  1  0  0  0  0
  1  2  1  0  0  0  0
 24 25  2  0  0  0  0
 24 26  1  0  0  0  0
 20 21  1  0  0  0  0
 20 22  1  0  0  0  0
 20 23  1  0  0  0  0
 17 18  1  0  0  0  0
 17 19  1  0  0  0  0
 17 20  1  0  0  0  0
 13 14  1  0  0  0  0
 13 15  1  0  0  0  0
 13 16  1  0  0  0  0
 11 12  1  0  0  0  0
 11 13  1  0  0  0  0
 11 17  1  0  0  0  0
  9 10  1  0  0  0  0
  9 11  1  0  0  0  0
  9 24  1  0  0  0  0
  7  8  1  0  0  0  0
  7  9  1  0  0  0  0
 28 29  1  0  0  0  0
 28 30  1  0  0  0  0
 28 31  1  0  0  0  0
 26 27  1  0  0  0  0
 26 28  1  0  0  0  0
M  END
$$$$
default_name
  -OEChem-02102213163D

 31 30  0     1  0  0  0  0  0999 V2000
   -3.0760   -3.6390    1.5496 H   0  0  0  0  0  0  0  0  0  0  0  0
   -3.0940   -2.6290    1.1426 C   0  0  0  0  0  0  0  0  0  0  0  0
   -3.7160   -1.9930    1.7706 H   0  0  0  0  0  0  0  0  0  0  0  0
   -3.4880   -2.6500    0.1286 H   0  0  0  0  0  0  0  0  0  0  0  0
   -1.6860   -2.0850    1.1196 C   0  0  0  0  0  0  0  0  0  0  0  0
   -0.7540   -2.7700    1.5226 O   0  0  0  0  0  0  0  0  0  0  0  0
   -1.5320   -0.8490    0.6496 N   0  0  0  0  0  0  0  0  0  0  0  0
   -2.3500   -0.3360    0.3566 H   0  0  0  0  0  0  0  0  0  0  0  0
   -0.2470   -0.1410    0.5576 C   0  0  1  0  0  0  0  0  0  0  0  0
    0.4239   -0.7541   -0.0450 H   0  0  0  0  0  0  0  0  0  0  0  0
   -0.4317    1.2160   -0.1683 C   0  0  1  0  0  0  0  0  0  0  0  0
   -0.9670    1.8767    0.5163 H   0  0  0  0  0  0  0  0  0  0  0  0
    0.9119    1.8867   -0.5127 C   0  0  0  0  0  0  0  0  0  0  0  0
    1.4548    1.2998   -1.2557 H   0  0  0  0  0  0  0  0  0  0  0  0
    0.7450    2.8890   -0.9039 H   0  0  0  0  0  0  0  0  0  0  0  0
    1.5280    1.9772    0.3827 H   0  0  0  0  0  0  0  0  0  0  0  0
   -1.3075    1.0542   -1.4310 C   0  0  0  0  0  0  0  0  0  0  0  0
   -2.3033    0.7078   -1.1513 H   0  0  0  0  0  0  0  0  0  0  0  0
   -1.4067    2.0254   -1.9157 H   0  0  0  0  0  0  0  0  0  0  0  0
   -0.7242    0.0833   -2.4666 C   0  0  0  0  0  0  0  0  0  0  0  0
   -0.7019   -0.9313   -2.0694 H   0  0  0  0  0  0  0  0  0  0  0  0
   -1.3494    0.0922   -3.3597 H   0  0  0  0  0  0  0  0  0  0  0  0
    0.2862    0.3906   -2.7385 H   0  0  0  0  0  0  0  0  0  0  0  0
    0.3833   -0.0008    1.9525 C   0  0  0  0  0  0  0  0  0  0  0  0
    1.5803   -0.2304    2.1189 O   0  0  0  0  0  0  0  0  0  0  0  0
   -0.4170    0.3858    2.9541 N   0  0  0  0  0  0  0  0  0  0  0  0
   -1.3850    0.5669    2.7398 H   0  0  0  0  0  0  0  0  0  0  0  0
    0.0265    0.5600    4.3358 C   0  0  0  0  0  0  0  0  0  0  0  0
    0.8964    1.2200    4.3632 H   0  0  0  0  0  0  0  0  0  0  0  0
   -0.7726    0.9946    4.9382 H   0  0  0  0  0  0  0  0  0  0  0  0
    0.3119   -0.4069    4.7547 H   0  0  0  0  0  0  0  0  0  0  0  0
  5  6  2  0  0  0  0
  5  7  1  0  0  0  0
  2  3  1  0  0  0  0
  2  4  1  0  0  0  0
  2  5  1  0  0  0  0
  1  2  1  0  0  0  0
 24 25  2  0  0  0  0
 24 26  1  0  0  0  0
 20 21  1  0  0  0  0
 20 22  1  0  0  0  0
 20 23  1  0  0  0  0
 17 18  1  0  0  0  0
 17 19  1  0  0  0  0
 17 20  1  0  0  0  0
 13 14  1  0  0  0  0
 13 15  1  0  0  0  0
 13 16  1  0  0  0  0
 11 12  1  0  0  0  0
 11 13  1  0  0  0  0
 11 17  1  0  0  0  0
  9 10  1  0  0  0  0
  9 11  1  0  0  0  0
  9 24  1  0  0  0  0
  7  8  1  0  0  0  0
  7  9  1  0  0  0  0
 28 29  1  0  0  0  0
 28 30  1  0  0  0  0
 28 31  1  0  0  0  0
 26 27  1  0  0  0  0
 26 28  1  0  0  0  0
M  END
$$$$
default_name
  -OEChem-02102213163D

 31 30  0     1  0  0  0  0  0999 V2000
   -3.0760   -3.6390    1.5496 H   0  0  0  0  0  0  0  0  0  0  0  0
   -3.0940   -2.6290    1.1426 C   0  0  0  0  0  0  0  0  0  0  0  0
   -3.7160   -1.9930    1.7706 H   0  0  0  0  0  0  0  0  0  0  0  0
   -3.4880   -2.6500    0.1286 H   0  0  0  0  0  0  0  0  0  0  0  0
   -1.6860   -2.0850    1.1196 C   0  0  0  0  0  0  0  0  0  0  0  0
   -0.7540   -2.7700    1.5226 O   0  0  0  0  0  0  0  0  0  0  0  0
   -1.5320   -0.8490    0.6496 N   0  0  0  0  0  0  0  0  0  0  0  0
   -2.3500   -0.3360    0.3566 H   0  0  0  0  0  0  0  0  0  0  0  0
   -0.2470   -0.1410    0.5576 C   0  0  1  0  0  0  0  0  0  0  0  0
    0.4239   -0.7541   -0.0450 H   0  0  0  0  0  0  0  0  0  0  0  0
   -0.4317    1.2160   -0.1683 C   0  0  1  0  0  0  0  0  0  0  0  0
   -0.9670    1.8767    0.5163 H   0  0  0  0  0  0  0  0  0  0  0  0
    0.9119    1.8867   -0.5127 C   0  0  0  0  0  0  0  0  0  0  0  0
    1.4548    1.2998   -1.2557 H   0  0  0  0  0  0  0  0  0  0  0  0
    0.7450    2.8890   -0.9039 H   0  0  0  0  0  0  0  0  0  0  0  0
    1.5280    1.9772    0.3827 H   0  0  0  0  0  0  0  0  0  0  0  0
   -1.3075    1.0542   -1.4310 C   0  0  0  0  0  0  0  0  0  0  0  0
   -2.3574    0.9700   -1.1474 H   0  0  0  0  0  0  0  0  0  0  0  0
   -1.1916    1.9409   -2.0541 H   0  0  0  0  0  0  0  0  0  0  0  0
   -0.9333   -0.1611   -2.2903 C   0  0  0  0  0  0  0  0  0  0  0  0
   -1.1326   -1.0868   -1.7507 H   0  0  0  0  0  0  0  0  0  0  0  0
   -1.5320   -0.1552   -3.2014 H   0  0  0  0  0  0  0  0  0  0  0  0
    0.1225   -0.1165   -2.5599 H   0  0  0  0  0  0  0  0  0  0  0  0
    0.3833   -0.0008    1.9525 C   0  0  0  0  0  0  0  0  0  0  0  0
    1.5803   -0.2304    2.1189 O   0  0  0  0  0  0  0  0  0  0  0  0
   -0.4170    0.3858    2.9541 N   0  0  0  0  0  0  0  0  0  0  0  0
   -1.3850    0.5669    2.7398 H   0  0  0  0  0  0  0  0  0  0  0  0
    0.0265    0.5600    4.3358 C   0  0  0  0  0  0  0  0  0  0  0  0
    0.8964    1.2200    4.3632 H   0  0  0  0  0  0  0  0  0  0  0  0
   -0.7726    0.9946    4.9382 H   0  0  0  0  0  0  0  0  0  0  0  0
    0.3119   -0.4069    4.7547 H   0  0  0  0  0  0  0  0  0  0  0  0
  5  6  2  0  0  0  0
  5  7  1  0  0  0  0
  2  3  1  0  0  0  0
  2  4  1  0  0  0  0
  2  5  1  0  0  0  0
  1  2  1  0  0  0  0
 24 25  2  0  0  0  0
 24 26  1  0  0  0  0
 20 21  1  0  0  0  0
 20 22  1  0  0  0  0
 20 23  1  0  0  0  0
 17 18  1  0  0  0  0
 17 19  1  0  0  0  0
 17 20  1  0  0  0  0
 13 14  1  0  0  0  0
 13 15  1  0  0  0  0
 13 16  1  0  0  0  0
 11 12  1  0  0  0  0
 11 13  1  0  0  0  0
 11 17  1  0  0  0  0
  9 10  1  0  0  0  0
  9 11  1  0  0  0  0
  9 24  1  0  0  0  0
  7  8  1  0  0  0  0
  7  9  1  0  0  0  0
 28 29  1  0  0  0  0
 28 30  1  0  0  0  0
 28 31  1  0  0  0  0
 26 27  1  0  0  0  0
 26 28  1  0  0  0  0
M  END
$$$$
default_name
  -OEChem-02102213163D

 31 30  0     1  0  0  0  0  0999 V2000
   -3.0760   -3.6390    1.5496 H   0  0  0  0  0  0  0  0  0  0  0  0
   -3.0940   -2.6290    1.1426 C   0  0  0  0  0  0  0  0  0  0  0  0
   -3.7160   -1.9930    1.7706 H   0  0  0  0  0  0  0  0  0  0  0  0
   -3.4880   -2.6500    0.1286 H   0  0  0  0  0  0  0  0  0  0  0  0
   -1.6860   -2.0850    1.1196 C   0  0  0  0  0  0  0  0  0  0  0  0
   -0.7540   -2.7700    1.5226 O   0  0  0  0  0  0  0  0  0  0  0  0
   -1.5320   -0.8490    0.6496 N   0  0  0  0  0  0  0  0  0  0  0  0
   -2.3500   -0.3360    0.3566 H   0  0  0  0  0  0  0  0  0  0  0  0
   -0.2470   -0.1410    0.5576 C   0  0  1  0  0  0  0  0  0  0  0  0
    0.4239   -0.7541   -0.0450 H   0  0  0  0  0  0  0  0  0  0  0  0
   -0.4317    1.2160   -0.1683 C   0  0  1  0  0  0  0  0  0  0  0  0
   -0.9670    1.8767    0.5163 H   0  0  0  0  0  0  0  0  0  0  0  0
    0.9119    1.8867   -0.5127 C   0  0  0  0  0  0  0  0  0  0  0  0
    1.4548    1.2998   -1.2557 H   0  0  0  0  0  0  0  0  0  0  0  0
    0.7450    2.8890   -0.9039 H   0  0  0  0  0  0  0  0  0  0  0  0
    1.5280    1.9772    0.3827 H   0  0  0  0  0  0  0  0  0  0  0  0
   -1.3075    1.0542   -1.4310 C   0  0  0  0  0  0  0  0  0  0  0  0
   -2.3543    1.2352   -1.1835 H   0  0  0  0  0  0  0  0  0  0  0  0
   -0.9979    1.7936   -2.1696 H   0  0  0  0  0  0  0  0  0  0  0  0
   -1.1917   -0.3271   -2.0898 C   0  0  0  0  0  0  0  0  0  0  0  0
   -1.5902   -1.0991   -1.4317 H   0  0  0  0  0  0  0  0  0  0  0  0
   -1.7650   -0.3323   -3.0171 H   0  0  0  0  0  0  0  0  0  0  0  0
   -0.1478   -0.5455   -2.3175 H   0  0  0  0  0  0  0  0  0  0  0  0
    0.3833   -0.0008    1.9525 C   0  0  0  0  0  0  0  0  0  0  0  0
    1.5803   -0.2304    2.1189 O   0  0  0  0  0  0  0  0  0  0  0  0
   -0.4170    0.3858    2.9541 N   0  0  0  0  0  0  0  0  0  0  0  0
   -1.3850    0.5669    2.7398 H   0  0  0  0  0  0  0  0  0  0  0  0
    0.0265    0.5600    4.3358 C   0  0  0  0  0  0  0  0  0  0  0  0
    0.8964    1.2200    4.3632 H   0  0  0  0  0  0  0  0  0  0  0  0
   -0.7726    0.9946    4.9382 H   0  0  0  0  0  0  0  0  0  0  0  0
    0.3119   -0.4069    4.7547 H   0  0  0  0  0  0  0  0  0  0  0  0
  5  6  2  0  0  0  0
  5  7  1  0  0  0  0
  2  3  1  0  0  0  0
  2  4  1  0  0  0  0
  2  5  1  0  0  0  0
  1  2  1  0  0  0  0
 24 25  2  0  0  0  0
 24 26  1  0  0  0  0
 20 21  1  0  0  0  0
 20 22  1  0  0  0  0
 20 23  1  0  0  0  0
 17 18  1  0  0  0  0
 17 19  1  0  0  0  0
 17 20  1  0  0  0  0
 13 14  1  0  0  0  0
 13 15  1  0  0  0  0
 13 16  1  0  0  0  0
 11 12  1  0  0  0  0
 11 13  1  0  0  0  0
 11 17  1  0  0  0  0
  9 10  1  0  0  0  0
  9 11  1  0  0  0  0
  9 24  1  0  0  0  0
  7  8  1  0  0  0  0
  7  9  1  0  0  0  0
 28 29  1  0  0  0  0
 28 30  1  0  0  0  0
 28 31  1  0  0  0  0
 26 27  1  0  0  0  0
 26 28  1  0  0  0  0
M  END
$$$$
default_name
  -OEChem-02102213163D

 31 30  0     1  0  0  0  0  0999 V2000
   -3.0760   -3.6390    1.5496 H   0  0  0  0  0  0  0  0  0  0  0  0
   -3.0940   -2.6290    1.1426 C   0  0  0  0  0  0  0  0  0  0  0  0
   -3.7160   -1.9930    1.7706 H   0  0  0  0  0  0  0  0  0  0  0  0
   -3.4880   -2.6500    0.1286 H   0  0  0  0  0  0  0  0  0  0  0  0
   -1.6860   -2.0850    1.1196 C   0  0  0  0  0  0  0  0  0  0  0  0
   -0.7540   -2.7700    1.5226 O   0  0  0  0  0  0  0  0  0  0  0  0
   -1.5320   -0.8490    0.6496 N   0  0  0  0  0  0  0  0  0  0  0  0
   -2.3500   -0.3360    0.3566 H   0  0  0  0  0  0  0  0  0  0  0  0
   -0.2470   -0.1410    0.5576 C   0  0  1  0  0  0  0  0  0  0  0  0
    0.4239   -0.7541   -0.0450 H   0  0  0  0  0  0  0  0  0  0  0  0
   -0.4317    1.2160   -0.1683 C   0  0  1  0  0  0  0  0  0  0  0  0
   -0.9670    1.8767    0.5163 H   0  0  0  0  0  0  0  0  0  0  0  0
    0.9119    1.8867   -0.5127 C   0  0  0  0  0  0  0  0  0  0  0  0
    1.4548    1.2998   -1.2557 H   0  0  0  0  0  0  0  0  0  0  0  0
    0.7450    2.8890   -0.9039 H   0  0  0  0  0  0  0  0  0  0  0  0
    1.5280    1.9772    0.3827 H   0  0  0  0  0  0  0  0  0  0  0  0
   -1.3075    1.0542   -1.4310 C   0  0  0  0  0  0  0  0  0  0  0  0
   -2.2943    1.4854   -1.2572 H   0  0  0  0  0  0  0  0  0  0  0  0
   -0.8388    1.5933   -2.2542 H   0  0  0  0  0  0  0  0  0  0  0  0
   -1.4819   -0.4034   -1.8788 C   0  0  0  0  0  0  0  0  0  0  0  0
   -2.0434   -0.9674   -1.1343 H   0  0  0  0  0  0  0  0  0  0  0  0
   -2.0325   -0.4270   -2.8194 H   0  0  0  0  0  0  0  0  0  0  0  0
   -0.5062   -0.8671   -2.0277 H   0  0  0  0  0  0  0  0  0  0  0  0
    0.3833   -0.0008    1.9525 C   0  0  0  0  0  0  0  0  0  0  0  0
    1.5803   -0.2304    2.1189 O   0  0  0  0  0  0  0  0  0  0  0  0
   -0.4170    0.3858    2.9541 N   0  0  0  0  0  0  0  0  0  0  0  0
   -1.3850    0.5669    2.7398 H   0  0  0  0  0  0  0  0  0  0  0  0
    0.0265    0.5600    4.3358 C   0  0  0  0  0  0  0  0  0  0  0  0
    0.8964    1.2200    4.3632 H   0  0  0  0  0  0  0  0  0  0  0  0
   -0.7726    0.9946    4.9382 H   0  0  0  0  0  0  0  0  0  0  0  0
    0.3119   -0.4069    4.7547 H   0  0  0  0  0  0  0  0  0  0  0  0
  5  6  2  0  0  0  0
  5  7  1  0  0  0  0
  2  3  1  0  0  0  0
  2  4  1  0  0  0  0
  2  5  1  0  0  0  0
  1  2  1  0  0  0  0
 24 25  2  0  0  0  0
 24 26  1  0  0  0  0
 20 21  1  0  0  0  0
 20 22  1  0  0  0  0
 20 23  1  0  0  0  0
 17 18  1  0  0  0  0
 17 19  1  0  0  0  0
 17 20  1  0  0  0  0
 13 14  1  0  0  0  0
 13 15  1  0  0  0  0
 13 16  1  0  0  0  0
 11 12  1  0  0  0  0
 11 13  1  0  0  0  0
 11 17  1  0  0  0  0
  9 10  1  0  0  0  0
  9 11  1  0  0  0  0
  9 24  1  0  0  0  0
  7  8  1  0  0  0  0
  7  9  1  0  0  0  0
 28 29  1  0  0  0  0
 28 30  1  0  0  0  0
 28 31  1  0  0  0  0
 26 27  1  0  0  0  0
 26 28  1  0  0  0  0
M  END
$$$$
default_name
  -OEChem-02102213163D

 31 30  0     1  0  0  0  0  0999 V2000
   -3.0760   -3.6390    1.5496 H   0  0  0  0  0  0  0  0  0  0  0  0
   -3.0940   -2.6290    1.1426 C   0  0  0  0  0  0  0  0  0  0  0  0
   -3.7160   -1.9930    1.7706 H   0  0  0  0  0  0  0  0  0  0  0  0
   -3.4880   -2.6500    0.1286 H   0  0  0  0  0  0  0  0  0  0  0  0
   -1.6860   -2.0850    1.1196 C   0  0  0  0  0  0  0  0  0  0  0  0
   -0.7540   -2.7700    1.5226 O   0  0  0  0  0  0  0  0  0  0  0  0
   -1.5320   -0.8490    0.6496 N   0  0  0  0  0  0  0  0  0  0  0  0
   -2.3500   -0.3360    0.3566 H   0  0  0  0  0  0  0  0  0  0  0  0
   -0.2470   -0.1410    0.5576 C   0  0  1  0  0  0  0  0  0  0  0  0
    0.4239   -0.7541   -0.0450 H   0  0  0  0  0  0  0  0  0  0  0  0
   -0.4317    1.2160   -0.1683 C   0  0  1  0  0  0  0  0  0  0  0  0
   -0.9670    1.8767    0.5163 H   0  0  0  0  0  0  0  0  0  0  0  0
    0.9119    1.8867   -0.5127 C   0  0  0  0  0  0  0  0  0  0  0  0
    1.4548    1.2998   -1.2557 H   0  0  0  0  0  0  0  0  0  0  0  0
    0.7450    2.8890   -0.9039 H   0  0  0  0  0  0  0  0  0  0  0  0
    1.5280    1.9772    0.3827 H   0  0  0  0  0  0  0  0  0  0  0  0
   -1.3075    1.0542   -1.4310 C   0  0  0  0  0  0  0  0  0  0  0  0
   -2.1813    1.7036   -1.3635 H   0  0  0  0  0  0  0  0  0  0  0  0
   -0.7252    1.3538   -2.3023 H   0  0  0  0  0  0  0  0  0  0  0  0
   -1.7840   -0.3847   -1.6716 C   0  0  0  0  0  0  0  0  0  0  0  0
   -2.4614   -0.7007   -0.8785 H   0  0  0  0  0  0  0  0  0  0  0  0
   -2.3163   -0.4329   -2.6218 H   0  0  0  0  0  0  0  0  0  0  0  0
   -0.9282   -1.0595   -1.7104 H   0  0  0  0  0  0  0  0  0  0  0  0
    0.3833   -0.0008    1.9525 C   0  0  0  0  0  0  0  0  0  0  0  0
    1.5803   -0.2304    2.1189 O   0  0  0  0  0  0  0  0  0  0  0  0
   -0.4170    0.3858    2.9541 N   0  0  0  0  0  0  0  0  0  0  0  0
   -1.3850    0.5669    2.7398 H   0  0  0  0  0  0  0  0  0  0  0  0
    0.0265    0.5600    4.3358 C   0  0  0  0  0  0  0  0  0  0  0  0
    0.8964    1.2200    4.3632 H   0  0  0  0  0  0  0  0  0  0  0  0
   -0.7726    0.9946    4.9382 H   0  0  0  0  0  0  0  0  0  0  0  0
    0.3119   -0.4069    4.7547 H   0  0  0  0  0  0  0  0  0  0  0  0
  5  6  2  0  0  0  0
  5  7  1  0  0  0  0
  2  3  1  0  0  0  0
  2  4  1  0  0  0  0
  2  5  1  0  0  0  0
  1  2  1  0  0  0  0
 24 25  2  0  0  0  0
 24 26  1  0  0  0  0
 20 21  1  0  0  0  0
 20 22  1  0  0  0  0
 20 23  1  0  0  0  0
 17 18  1  0  0  0  0
 17 19  1  0  0  0  0
 17 20  1  0  0  0  0
 13 14  1  0  0  0  0
 13 15  1  0  0  0  0
 13 16  1  0  0  0  0
 11 12  1  0  0  0  0
 11 13  1  0  0  0  0
 11 17  1  0  0  0  0
  9 10  1  0  0  0  0
  9 11  1  0  0  0  0
  9 24  1  0  0  0  0
  7  8  1  0  0  0  0
  7  9  1  0  0  0  0
 28 29  1  0  0  0  0
 28 30  1  0  0  0  0
 28 31  1  0  0  0  0
 26 27  1  0  0  0  0
 26 28  1  0  0  0  0
M  END
$$$$
default_name
  -OEChem-02102213163D

 31 30  0     1  0  0  0  0  0999 V2000
   -3.0760   -3.6390    1.5496 H   0  0  0  0  0  0  0  0  0  0  0  0
   -3.0940   -2.6290    1.1426 C   0  0  0  0  0  0  0  0  0  0  0  0
   -3.7160   -1.9930    1.7706 H   0  0  0  0  0  0  0  0  0  0  0  0
   -3.4880   -2.6500    0.1286 H   0  0  0  0  0  0  0  0  0  0  0  0
   -1.6860   -2.0850    1.1196 C   0  0  0  0  0  0  0  0  0  0  0  0
   -0.7540   -2.7700    1.5226 O   0  0  0  0  0  0  0  0  0  0  0  0
   -1.5320   -0.8490    0.6496 N   0  0  0  0  0  0  0  0  0  0  0  0
   -2.3500   -0.3360    0.3566 H   0  0  0  0  0  0  0  0  0  0  0  0
   -0.2470   -0.1410    0.5576 C   0  0  1  0  0  0  0  0  0  0  0  0
    0.4239   -0.7541   -0.0450 H   0  0  0  0  0  0  0  0  0  0  0  0
   -0.4317    1.2160   -0.1683 C   0  0  1  0  0  0  0  0  0  0  0  0
   -0.9670    1.8767    0.5163 H   0  0  0  0  0  0  0  0  0  0  0  0
    0.9119    1.8867   -0.5127 C   0  0  0  0  0  0  0  0  0  0  0  0
    1.4548    1.2998   -1.2557 H   0  0  0  0  0  0  0  0  0  0  0  0
    0.7450    2.8890   -0.9039 H   0  0  0  0  0  0  0  0  0  0  0  0
    1.5280    1.9772    0.3827 H   0  0  0  0  0  0  0  0  0  0  0  0
   -1.3075    1.0542   -1.4310 C   0  0  0  0  0  0  0  0  0  0  0  0
   -2.0232    1.8748   -1.4951 H   0  0  0  0  0  0  0  0  0  0  0  0
   -0.6648    1.0913   -2.3106 H   0  0  0  0  0  0  0  0  0  0  0  0
   -2.0775   -0.2724   -1.4824 C   0  0  0  0  0  0  0  0  0  0  0  0
   -2.8157   -0.3172   -0.6819 H   0  0  0  0  0  0  0  0  0  0  0  0
   -2.5970   -0.3496   -2.4378 H   0  0  0  0  0  0  0  0  0  0  0  0
   -1.3851   -1.1095   -1.3870 H   0  0  0  0  0  0  0  0  0  0  0  0
    0.3833   -0.0008    1.9525 C   0  0  0  0  0  0  0  0  0  0  0  0
    1.5803   -0.2304    2.1189 O   0  0  0  0  0  0  0  0  0  0  0  0
   -0.4170    0.3858    2.9541 N   0  0  0  0  0  0  0  0  0  0  0  0
   -1.3850    0.5669    2.7398 H   0  0  0  0  0  0  0  0  0  0  0  0
    0.0265    0.5600    4.3358 C   0  0  0  0  0  0  0  0  0  0  0  0
    0.8964    1.2200    4.3632 H   0  0  0  0  0  0  0  0  0  0  0  0
   -0.7726    0.9946    4.9382 H   0  0  0  0  0  0  0  0  0  0  0  0
    0.3119   -0.4069    4.7547 H   0  0  0  0  0  0  0  0  0  0  0  0
  5  6  2  0  0  0  0
  5  7  1  0  0  0  0
  2  3  1  0  0  0  0
  2  4  1  0  0  0  0
  2  5  1  0  0  0  0
  1  2  1  0  0  0  0
 24 25  2  0  0  0  0
 24 26  1  0  0  0  0
 20 21  1  0  0  0  0
 20 22  1  0  0  0  0
 20 23  1  0  0  0  0
 17 18  1  0  0  0  0
 17 19  1  0  0  0  0
 17 20  1  0  0  0  0
 13 14  1  0  0  0  0
 13 15  1  0  0  0  0
 13 16  1  0  0  0  0
 11 12  1  0  0  0  0
 11 13  1  0  0  0  0
 11 17  1  0  0  0  0
  9 10  1  0  0  0  0
  9 11  1  0  0  0  0
  9 24  1  0  0  0  0
  7  8  1  0  0  0  0
  7  9  1  0  0  0  0
 28 29  1  0  0  0  0
 28 30  1  0  0  0  0
 28 31  1  0  0  0  0
 26 27  1  0  0  0  0
 26 28  1  0  0  0  0
M  END
$$$$
default_name
  -OEChem-02102213163D

 31 30  0     1  0  0  0  0  0999 V2000
   -3.0760   -3.6390    1.5496 H   0  0  0  0  0  0  0  0  0  0  0  0
   -3.0940   -2.6290    1.1426 C   0  0  0  0  0  0  0  0  0  0  0  0
   -3.7160   -1.9930    1.7706 H   0  0  0  0  0  0  0  0  0  0  0  0
   -3.4880   -2.6500    0.1286 H   0  0  0  0  0  0  0  0  0  0  0  0
   -1.6860   -2.0850    1.1196 C   0  0  0  0  0  0  0  0  0  0  0  0
   -0.7540   -2.7700    1.5226 O   0  0  0  0  0  0  0  0  0  0  0  0
   -1.5320   -0.8490    0.6496 N   0  0  0  0  0  0  0  0  0  0  0  0
   -2.3500   -0.3360    0.3566 H   0  0  0  0  0  0  0  0  0  0  0  0
   -0.2470   -0.1410    0.5576 C   0  0  1  0  0  0  0  0  0  0  0  0
    0.4239   -0.7541   -0.0450 H   0  0  0  0  0  0  0  0  0  0  0  0
   -0.4317    1.2160   -0.1683 C   0  0  1  0  0  0  0  0  0  0  0  0
   -0.9670    1.8767    0.5163 H   0  0  0  0  0  0  0  0  0  0  0  0
    0.9119    1.8867   -0.5127 C   0  0  0  0  0  0  0  0  0  0  0  0
    1.4548    1.2998   -1.2557 H   0  0  0  0  0  0  0  0  0  0  0  0
    0.7450    2.8890   -0.9039 H   0  0  0  0  0  0  0  0  0  0  0  0
    1.5280    1.9772    0.3827 H   0  0  0  0  0  0  0  0  0  0  0  0
   -1.3075    1.0542   -1.4310 C   0  0  0  0  0  0  0  0  0  0  0  0
   -1.8307    1.9875   -1.6431 H   0  0  0  0  0  0  0  0  0  0  0  0
   -0.6618    0.8239   -2.2784 H   0  0  0  0  0  0  0  0  0  0  0  0
   -2.3423   -0.0741   -1.3241 C   0  0  0  0  0  0  0  0  0  0  0  0
   -3.0821    0.1570   -0.5579 H   0  0  0  0  0  0  0  0  0  0  0  0
   -2.8556   -0.1828   -2.2798 H   0  0  0  0  0  0  0  0  0  0  0  0
   -1.8458   -1.0138   -1.0797 H   0  0  0  0  0  0  0  0  0  0  0  0
    0.3833   -0.0008    1.9525 C   0  0  0  0  0  0  0  0  0  0  0  0
    1.5803   -0.2304    2.1189 O   0  0  0  0  0  0  0  0  0  0  0  0
   -0.4170    0.3858    2.9541 N   0  0  0  0  0  0  0  0  0  0  0  0
   -1.3850    0.5669    2.7398 H   0  0  0  0  0  0  0  0  0  0  0  0
    0.0265    0.5600    4.3358 C   0  0  0  0  0  0  0  0  0  0  0  0
    0.8964    1.2200    4.3632 H   0  0  0  0  0  0  0  0  0  0  0  0
   -0.7726    0.9946    4.9382 H   0  0  0  0  0  0  0  0  0  0  0  0
    0.3119   -0.4069    4.7547 H   0  0  0  0  0  0  0  0  0  0  0  0
  5  6  2  0  0  0  0
  5  7  1  0  0  0  0
  2  3  1  0  0  0  0
  2  4  1  0  0  0  0
  2  5  1  0  0  0  0
  1  2  1  0  0  0  0
 24 25  2  0  0  0  0
 24 26  1  0  0  0  0
 20 21  1  0  0  0  0
 20 22  1  0  0  0  0
 20 23  1  0  0  0  0
 17 18  1  0  0  0  0
 17 19  1  0  0  0  0
 17 20  1  0  0  0  0
 13 14  1  0  0  0  0
 13 15  1  0  0  0  0
 13 16  1  0  0  0  0
 11 12  1  0  0  0  0
 11 13  1  0  0  0  0
 11 17  1  0  0  0  0
  9 10  1  0  0  0  0
  9 11  1  0  0  0  0
  9 24  1  0  0  0  0
  7  8  1  0  0  0  0
  7  9  1  0  0  0  0
 28 29  1  0  0  0  0
 28 30  1  0  0  0  0
 28 31  1  0  0  0  0
 26 27  1  0  0  0  0
 26 28  1  0  0  0  0
M  END
$$$$
default_name
  -OEChem-02102213163D

 31 30  0     1  0  0  0  0  0999 V2000
   -3.0760   -3.6390    1.5496 H   0  0  0  0  0  0  0  0  0  0  0  0
   -3.0940   -2.6290    1.1426 C   0  0  0  0  0  0  0  0  0  0  0  0
   -3.7160   -1.9930    1.7706 H   0  0  0  0  0  0  0  0  0  0  0  0
   -3.4880   -2.6500    0.1286 H   0  0  0  0  0  0  0  0  0  0  0  0
   -1.6860   -2.0850    1.1196 C   0  0  0  0  0  0  0  0  0  0  0  0
   -0.7540   -2.7700    1.5226 O   0  0  0  0  0  0  0  0  0  0  0  0
   -1.5320   -0.8490    0.6496 N   0  0  0  0  0  0  0  0  0  0  0  0
   -2.3500   -0.3360    0.3566 H   0  0  0  0  0  0  0  0  0  0  0  0
   -0.2470   -0.1410    0.5576 C   0  0  1  0  0  0  0  0  0  0  0  0
    0.4239   -0.7541   -0.0450 H   0  0  0  0  0  0  0  0  0  0  0  0
   -0.4317    1.2160   -0.1683 C   0  0  1  0  0  0  0  0  0  0  0  0
   -0.9670    1.8767    0.5163 H   0  0  0  0  0  0  0  0  0  0  0  0
    0.9119    1.8867   -0.5127 C   0  0  0  0  0  0  0  0  0  0  0  0
    1.4548    1.2998   -1.2557 H   0  0  0  0  0  0  0  0  0  0  0  0
    0.7450    2.8890   -0.9039 H   0  0  0  0  0  0  0  0  0  0  0  0
    1.5280    1.9772    0.3827 H   0  0  0  0  0  0  0  0  0  0  0  0
   -1.3075    1.0542   -1.4310 C   0  0  0  0  0  0  0  0  0  0  0  0
   -1.6169    2.0339   -1.7973 H   0  0  0  0  0  0  0  0  0  0  0  0
   -0.7163    0.5696   -2.2080 H   0  0  0  0  0  0  0  0  0  0  0  0
   -2.5605    0.1967   -1.2075 C   0  0  0  0  0  0  0  0  0  0  0  0
   -3.2425    0.6897   -0.5149 H   0  0  0  0  0  0  0  0  0  0  0  0
   -3.0743    0.0562   -2.1588 H   0  0  0  0  0  0  0  0  0  0  0  0
   -2.2789   -0.7788   -0.8095 H   0  0  0  0  0  0  0  0  0  0  0  0
    0.3833   -0.0008    1.9525 C   0  0  0  0  0  0  0  0  0  0  0  0
    1.5803   -0.2304    2.1189 O   0  0  0  0  0  0  0  0  0  0  0  0
   -0.4170    0.3858    2.9541 N   0  0  0  0  0  0  0  0  0  0  0  0
   -1.3850    0.5669    2.7398 H   0  0  0  0  0  0  0  0  0  0  0  0
    0.0265    0.5600    4.3358 C   0  0  0  0  0  0  0  0  0  0  0  0
    0.8964    1.2200    4.3632 H   0  0  0  0  0  0  0  0  0  0  0  0
   -0.7726    0.9946    4.9382 H   0  0  0  0  0  0  0  0  0  0  0  0
    0.3119   -0.4069    4.7547 H   0  0  0  0  0  0  0  0  0  0  0  0
  5  6  2  0  0  0  0
  5  7  1  0  0  0  0
  2  3  1  0  0  0  0
  2  4  1  0  0  0  0
  2  5  1  0  0  0  0
  1  2  1  0  0  0  0
 24 25  2  0  0  0  0
 24 26  1  0  0  0  0
 20 21  1  0  0  0  0
 20 22  1  0  0  0  0
 20 23  1  0  0  0  0
 17 18  1  0  0  0  0
 17 19  1  0  0  0  0
 17 20  1  0  0  0  0
 13 14  1  0  0  0  0
 13 15  1  0  0  0  0
 13 16  1  0  0  0  0
 11 12  1  0  0  0  0
 11 13  1  0  0  0  0
 11 17  1  0  0  0  0
  9 10  1  0  0  0  0
  9 11  1  0  0  0  0
  9 24  1  0  0  0  0
  7  8  1  0  0  0  0
  7  9  1  0  0  0  0
 28 29  1  0  0  0  0
 28 30  1  0  0  0  0
 28 31  1  0  0  0  0
 26 27  1  0  0  0  0
 26 28  1  0  0  0  0
M  END
$$$$
default_name
  -OEChem-02102213163D

 31 30  0     1  0  0  0  0  0999 V2000
   -3.0760   -3.6390    1.5496 H   0  0  0  0  0  0  0  0  0  0  0  0
   -3.0940   -2.6290    1.1426 C   0  0  0  0  0  0  0  0  0  0  0  0
   -3.7160   -1.9930    1.7706 H   0  0  0  0  0  0  0  0  0  0  0  0
   -3.4880   -2.6500    0.1286 H   0  0  0  0  0  0  0  0  0  0  0  0
   -1.6860   -2.0850    1.1196 C   0  0  0  0  0  0  0  0  0  0  0  0
   -0.7540   -2.7700    1.5226 O   0  0  0  0  0  0  0  0  0  0  0  0
   -1.5320   -0.8490    0.6496 N   0  0  0  0  0  0  0  0  0  0  0  0
   -2.3500   -0.3360    0.3566 H   0  0  0  0  0  0  0  0  0  0  0  0
   -0.2470   -0.1410    0.5576 C   0  0  1  0  0  0  0  0  0  0  0  0
    0.4239   -0.7541   -0.0450 H   0  0  0  0  0  0  0  0  0  0  0  0
   -0.4317    1.2160   -0.1683 C   0  0  1  0  0  0  0  0  0  0  0  0
   -0.9670    1.8767    0.5163 H   0  0  0  0  0  0  0  0  0  0  0  0
    0.9119    1.8867   -0.5127 C   0  0  0  0  0  0  0  0  0  0  0  0
    1.4548    1.2998   -1.2557 H   0  0  0  0  0  0  0  0  0  0  0  0
    0.7450    2.8890   -0.9039 H   0  0  0  0  0  0  0  0  0  0  0  0
    1.5280    1.9772    0.3827 H   0  0  0  0  0  0  0  0  0  0  0  0
   -1.3075    1.0542   -1.4310 C   0  0  0  0  0  0  0  0  0  0  0  0
   -1.3964    2.0109   -1.9473 H   0  0  0  0  0  0  0  0  0  0  0  0
   -0.8247    0.3458   -2.1042 H   0  0  0  0  0  0  0  0  0  0  0  0
   -2.7172    0.5216   -1.1405 C   0  0  0  0  0  0  0  0  0  0  0  0
   -3.2859    1.2443   -0.5558 H   0  0  0  0  0  0  0  0  0  0  0  0
   -3.2383    0.3510   -2.0828 H   0  0  0  0  0  0  0  0  0  0  0  0
   -2.6549   -0.4205   -0.5946 H   0  0  0  0  0  0  0  0  0  0  0  0
    0.3833   -0.0008    1.9525 C   0  0  0  0  0  0  0  0  0  0  0  0
    1.5803   -0.2304    2.1189 O   0  0  0  0  0  0  0  0  0  0  0  0
   -0.4170    0.3858    2.9541 N   0  0  0  0  0  0  0  0  0  0  0  0
   -1.3850    0.5669    2.7398 H   0  0  0  0  0  0  0  0  0  0  0  0
    0.0265    0.5600    4.3358 C   0  0  0  0  0  0  0  0  0  0  0  0
    0.8964    1.2200    4.3632 H   0  0  0  0  0  0  0  0  0  0  0  0
   -0.7726    0.9946    4.9382 H   0  0  0  0  0  0  0  0  0  0  0  0
    0.3119   -0.4069    4.7547 H   0  0  0  0  0  0  0  0  0  0  0  0
  5  6  2  0  0  0  0
  5  7  1  0  0  0  0
  2  3  1  0  0  0  0
  2  4  1  0  0  0  0
  2  5  1  0  0  0  0
  1  2  1  0  0  0  0
 24 25  2  0  0  0  0
 24 26  1  0  0  0  0
 20 21  1  0  0  0  0
 20 22  1  0  0  0  0
 20 23  1  0  0  0  0
 17 18  1  0  0  0  0
 17 19  1  0  0  0  0
 17 20  1  0  0  0  0
 13 14  1  0  0  0  0
 13 15  1  0  0  0  0
 13 16  1  0  0  0  0
 11 12  1  0  0  0  0
 11 13  1  0  0  0  0
 11 17  1  0  0  0  0
  9 10  1  0  0  0  0
  9 11  1  0  0  0  0
  9 24  1  0  0  0  0
  7  8  1  0  0  0  0
  7  9  1  0  0  0  0
 28 29  1  0  0  0  0
 28 30  1  0  0  0  0
 28 31  1  0  0  0  0
 26 27  1  0  0  0  0
 26 28  1  0  0  0  0
M  END
$$$$
default_name
  -OEChem-02102213163D

 31 30  0     1  0  0  0  0  0999 V2000
   -3.0760   -3.6390    1.5496 H   0  0  0  0  0  0  0  0  0  0  0  0
   -3.0940   -2.6290    1.1426 C   0  0  0  0  0  0  0  0  0  0  0  0
   -3.7160   -1.9930    1.7706 H   0  0  0  0  0  0  0  0  0  0  0  0
   -3.4880   -2.6500    0.1286 H   0  0  0  0  0  0  0  0  0  0  0  0
   -1.6860   -2.0850    1.1196 C   0  0  0  0  0  0  0  0  0  0  0  0
   -0.7540   -2.7700    1.5226 O   0  0  0  0  0  0  0  0  0  0  0  0
   -1.5320   -0.8490    0.6496 N   0  0  0  0  0  0  0  0  0  0  0  0
   -2.3500   -0.3360    0.3566 H   0  0  0  0  0  0  0  0  0  0  0  0
   -0.2470   -0.1410    0.5576 C   0  0  1  0  0  0  0  0  0  0  0  0
    0.4239   -0.7541   -0.0450 H   0  0  0  0  0  0  0  0  0  0  0  0
   -0.4317    1.2160   -0.1683 C   0  0  1  0  0  0  0  0  0  0  0  0
   -0.9670    1.8767    0.5163 H   0  0  0  0  0  0  0  0  0  0  0  0
    0.9119    1.8867   -0.5127 C   0  0  0  0  0  0  0  0  0  0  0  0
    1.4548    1.2998   -1.2557 H   0  0  0  0  0  0  0  0  0  0  0  0
    0.7450    2.8890   -0.9039 H   0  0  0  0  0  0  0  0  0  0  0  0
    1.5280    1.9772    0.3827 H   0  0  0  0  0  0  0  0  0  0  0  0
   -1.3075    1.0542   -1.4310 C   0  0  0  0  0  0  0  0  0  0  0  0
   -1.1842    1.9201   -2.0829 H   0  0  0  0  0  0  0  0  0  0  0  0
   -0.9795    0.1679   -1.9740 H   0  0  0  0  0  0  0  0  0  0  0  0
   -2.8016    0.8783   -1.1276 C   0  0  0  0  0  0  0  0  0  0  0  0
   -3.2095    1.7833   -0.6779 H   0  0  0  0  0  0  0  0  0  0  0  0
   -3.3364    0.6817   -2.0571 H   0  0  0  0  0  0  0  0  0  0  0  0
   -2.9480    0.0366   -0.4498 H   0  0  0  0  0  0  0  0  0  0  0  0
    0.3833   -0.0008    1.9525 C   0  0  0  0  0  0  0  0  0  0  0  0
    1.5803   -0.2304    2.1189 O   0  0  0  0  0  0  0  0  0  0  0  0
   -0.4170    0.3858    2.9541 N   0  0  0  0  0  0  0  0  0  0  0  0
   -1.3850    0.5669    2.7398 H   0  0  0  0  0  0  0  0  0  0  0  0
    0.0265    0.5600    4.3358 C   0  0  0  0  0  0  0  0  0  0  0  0
    0.8964    1.2200    4.3632 H   0  0  0  0  0  0  0  0  0  0  0  0
   -0.7726    0.9946    4.9382 H   0  0  0  0  0  0  0  0  0  0  0  0
    0.3119   -0.4069    4.7547 H   0  0  0  0  0  0  0  0  0  0  0  0
  5  6  2  0  0  0  0
  5  7  1  0  0  0  0
  2  3  1  0  0  0  0
  2  4  1  0  0  0  0
  2  5  1  0  0  0  0
  1  2  1  0  0  0  0
 24 25  2  0  0  0  0
 24 26  1  0  0  0  0
 20 21  1  0  0  0  0
 20 22  1  0  0  0  0
 20 23  1  0  0  0  0
 17 18  1  0  0  0  0
 17 19  1  0  0  0  0
 17 20  1  0  0  0  0
 13 14  1  0  0  0  0
 13 15  1  0  0  0  0
 13 16  1  0  0  0  0
 11 12  1  0  0  0  0
 11 13  1  0  0  0  0
 11 17  1  0  0  0  0
  9 10  1  0  0  0  0
  9 11  1  0  0  0  0
  9 24  1  0  0  0  0
  7  8  1  0  0  0  0
  7  9  1  0  0  0  0
 28 29  1  0  0  0  0
 28 30  1  0  0  0  0
 28 31  1  0  0  0  0
 26 27  1  0  0  0  0
 26 28  1  0  0  0  0
M  END
$$$$
default_name
  -OEChem-02102213163D

 31 30  0     1  0  0  0  0  0999 V2000
   -3.0760   -3.6390    1.5496 H   0  0  0  0  0  0  0  0  0  0  0  0
   -3.0940   -2.6290    1.1426 C   0  0  0  0  0  0  0  0  0  0  0  0
   -3.7160   -1.9930    1.7706 H   0  0  0  0  0  0  0  0  0  0  0  0
   -3.4880   -2.6500    0.1286 H   0  0  0  0  0  0  0  0  0  0  0  0
   -1.6860   -2.0850    1.1196 C   0  0  0  0  0  0  0  0  0  0  0  0
   -0.7540   -2.7700    1.5226 O   0  0  0  0  0  0  0  0  0  0  0  0
   -1.5320   -0.8490    0.6496 N   0  0  0  0  0  0  0  0  0  0  0  0
   -2.3500   -0.3360    0.3566 H   0  0  0  0  0  0  0  0  0  0  0  0
   -0.2470   -0.1410    0.5576 C   0  0  1  0  0  0  0  0  0  0  0  0
    0.4239   -0.7541   -0.0450 H   0  0  0  0  0  0  0  0  0  0  0  0
   -0.4317    1.2160   -0.1683 C   0  0  1  0  0  0  0  0  0  0  0  0
   -0.9670    1.8767    0.5163 H   0  0  0  0  0  0  0  0  0  0  0  0
    0.9119    1.8867   -0.5127 C   0  0  0  0  0  0  0  0  0  0  0  0
    1.4548    1.2998   -1.2557 H   0  0  0  0  0  0  0  0  0  0  0  0
    0.7450    2.8890   -0.9039 H   0  0  0  0  0  0  0  0  0  0  0  0
    1.5280    1.9772    0.3827 H   0  0  0  0  0  0  0  0  0  0  0  0
   -1.3075    1.0542   -1.4310 C   0  0  0  0  0  0  0  0  0  0  0  0
   -0.9948    1.7675   -2.1947 H   0  0  0  0  0  0  0  0  0  0  0  0
   -1.1702    0.0478   -1.8264 H   0  0  0  0  0  0  0  0  0  0  0  0
   -2.8080    1.2426   -1.1699 C   0  0  0  0  0  0  0  0  0  0  0  0
   -3.0183    2.2699   -0.8728 H   0  0  0  0  0  0  0  0  0  0  0  0
   -3.3619    1.0256   -2.0835 H   0  0  0  0  0  0  0  0  0  0  0  0
   -3.1385    0.5613   -0.3850 H   0  0  0  0  0  0  0  0  0  0  0  0
    0.3833   -0.0008    1.9525 C   0  0  0  0  0  0  0  0  0  0  0  0
    1.5803   -0.2304    2.1189 O   0  0  0  0  0  0  0  0  0  0  0  0
   -0.4170    0.3858    2.9541 N   0  0  0  0  0  0  0  0  0  0  0  0
   -1.3850    0.5669    2.7398 H   0  0  0  0  0  0  0  0  0  0  0  0
    0.0265    0.5600    4.3358 C   0  0  0  0  0  0  0  0  0  0  0  0
    0.8964    1.2200    4.3632 H   0  0  0  0  0  0  0  0  0  0  0  0
   -0.7726    0.9946    4.9382 H   0  0  0  0  0  0  0  0  0  0  0  0
    0.3119   -0.4069    4.7547 H   0  0  0  0  0  0  0  0  0  0  0  0
  5  6  2  0  0  0  0
  5  7  1  0  0  0  0
  2  3  1  0  0  0  0
  2  4  1  0  0  0  0
  2  5  1  0  0  0  0
  1  2  1  0  0  0  0
 24 25  2  0  0  0  0
 24 26  1  0  0  0  0
 20 21  1  0  0  0  0
 20 22  1  0  0  0  0
 20 23  1  0  0  0  0
 17 18  1  0  0  0  0
 17 19  1  0  0  0  0
 17 20  1  0  0  0  0
 13 14  1  0  0  0  0
 13 15  1  0  0  0  0
 13 16  1  0  0  0  0
 11 12  1  0  0  0  0
 11 13  1  0  0  0  0
 11 17  1  0  0  0  0
  9 10  1  0  0  0  0
  9 11  1  0  0  0  0
  9 24  1  0  0  0  0
  7  8  1  0  0  0  0
  7  9  1  0  0  0  0
 28 29  1  0  0  0  0
 28 30  1  0  0  0  0
 28 31  1  0  0  0  0
 26 27  1  0  0  0  0
 26 28  1  0  0  0  0
M  END
$$$$
default_name
  -OEChem-02102213163D

 31 30  0     1  0  0  0  0  0999 V2000
   -3.0760   -3.6390    1.5496 H   0  0  0  0  0  0  0  0  0  0  0  0
   -3.0940   -2.6290    1.1426 C   0  0  0  0  0  0  0  0  0  0  0  0
   -3.7160   -1.9930    1.7706 H   0  0  0  0  0  0  0  0  0  0  0  0
   -3.4880   -2.6500    0.1286 H   0  0  0  0  0  0  0  0  0  0  0  0
   -1.6860   -2.0850    1.1196 C   0  0  0  0  0  0  0  0  0  0  0  0
   -0.7540   -2.7700    1.5226 O   0  0  0  0  0  0  0  0  0  0  0  0
   -1.5320   -0.8490    0.6496 N   0  0  0  0  0  0  0  0  0  0  0  0
   -2.3500   -0.3360    0.3566 H   0  0  0  0  0  0  0  0  0  0  0  0
   -0.2470   -0.1410    0.5576 C   0  0  1  0  0  0  0  0  0  0  0  0
    0.4239   -0.7541   -0.0450 H   0  0  0  0  0  0  0  0  0  0  0  0
   -0.4317    1.2160   -0.1683 C   0  0  1  0  0  0  0  0  0  0  0  0
   -0.9670    1.8767    0.5163 H   0  0  0  0  0  0  0  0  0  0  0  0
    0.9119    1.8867   -0.5127 C   0  0  0  0  0  0  0  0  0  0  0  0
    1.4548    1.2998   -1.2557 H   0  0  0  0  0  0  0  0  0  0  0  0
    0.7450    2.8890   -0.9039 H   0  0  0  0  0  0  0  0  0  0  0  0
    1.5280    1.9772    0.3827 H   0  0  0  0  0  0  0  0  0  0  0  0
   -1.3075    1.0542   -1.4310 C   0  0  0  0  0  0  0  0  0  0  0  0
   -0.8411    1.5638   -2.2752 H   0  0  0  0  0  0  0  0  0  0  0  0
   -1.3838   -0.0062   -1.6713 H   0  0  0  0  0  0  0  0  0  0  0  0
   -2.7360    1.5896   -1.2642 C   0  0  0  0  0  0  0  0  0  0  0  0
   -2.7255    2.6708   -1.1273 H   0  0  0  0  0  0  0  0  0  0  0  0
   -3.3131    1.3593   -2.1601 H   0  0  0  0  0  0  0  0  0  0  0  0
   -3.2132    1.1180   -0.4045 H   0  0  0  0  0  0  0  0  0  0  0  0
    0.3833   -0.0008    1.9525 C   0  0  0  0  0  0  0  0  0  0  0  0
    1.5803   -0.2304    2.1189 O   0  0  0  0  0  0  0  0  0  0  0  0
   -0.4170    0.3858    2.9541 N   0  0  0  0  0  0  0  0  0  0  0  0
   -1.3850    0.5669    2.7398 H   0  0  0  0  0  0  0  0  0  0  0  0
    0.0265    0.5600    4.3358 C   0  0  0  0  0  0  0  0  0  0  0  0
    0.8964    1.2200    4.3632 H   0  0  0  0  0  0  0  0  0  0  0  0
   -0.7726    0.9946    4.9382 H   0  0  0  0  0  0  0  0  0  0  0  0
    0.3119   -0.4069    4.7547 H   0  0  0  0  0  0  0  0  0  0  0  0
  5  6  2  0  0  0  0
  5  7  1  0  0  0  0
  2  3  1  0  0  0  0
  2  4  1  0  0  0  0
  2  5  1  0  0  0  0
  1  2  1  0  0  0  0
 24 25  2  0  0  0  0
 24 26  1  0  0  0  0
 20 21  1  0  0  0  0
 20 22  1  0  0  0  0
 20 23  1  0  0  0  0
 17 18  1  0  0  0  0
 17 19  1  0  0  0  0
 17 20  1  0  0  0  0
 13 14  1  0  0  0  0
 13 15  1  0  0  0  0
 13 16  1  0  0  0  0
 11 12  1  0  0  0  0
 11 13  1  0  0  0  0
 11 17  1  0  0  0  0
  9 10  1  0  0  0  0
  9 11  1  0  0  0  0
  9 24  1  0  0  0  0
  7  8  1  0  0  0  0
  7  9  1  0  0  0  0
 28 29  1  0  0  0  0
 28 30  1  0  0  0  0
 28 31  1  0  0  0  0
 26 27  1  0  0  0  0
 26 28  1  0  0  0  0
M  END
$$$$
default_name
  -OEChem-02102213163D

 31 30  0     1  0  0  0  0  0999 V2000
   -3.0760   -3.6390    1.5496 H   0  0  0  0  0  0  0  0  0  0  0  0
   -3.0940   -2.6290    1.1426 C   0  0  0  0  0  0  0  0  0  0  0  0
   -3.7160   -1.9930    1.7706 H   0  0  0  0  0  0  0  0  0  0  0  0
   -3.4880   -2.6500    0.1286 H   0  0  0  0  0  0  0  0  0  0  0  0
   -1.6860   -2.0850    1.1196 C   0  0  0  0  0  0  0  0  0  0  0  0
   -0.7540   -2.7700    1.5226 O   0  0  0  0  0  0  0  0  0  0  0  0
   -1.5320   -0.8490    0.6496 N   0  0  0  0  0  0  0  0  0  0  0  0
   -2.3500   -0.3360    0.3566 H   0  0  0  0  0  0  0  0  0  0  0  0
   -0.2470   -0.1410    0.5576 C   0  0  1  0  0  0  0  0  0  0  0  0
    0.4239   -0.7541   -0.0450 H   0  0  0  0  0  0  0  0  0  0  0  0
   -0.4317    1.2160   -0.1683 C   0  0  1  0  0  0  0  0  0  0  0  0
   -0.9670    1.8767    0.5163 H   0  0  0  0  0  0  0  0  0  0  0  0
    0.9119    1.8867   -0.5127 C   0  0  0  0  0  0  0  0  0  0  0  0
    1.4548    1.2998   -1.2557 H   0  0  0  0  0  0  0  0  0  0  0  0
    0.7450    2.8890   -0.9039 H   0  0  0  0  0  0  0  0  0  0  0  0
    1.5280    1.9772    0.3827 H   0  0  0  0  0  0  0  0  0  0  0  0
   -1.3075    1.0542   -1.4310 C   0  0  0  0  0  0  0  0  0  0  0  0
   -0.7335    1.3226   -2.3189 H   0  0  0  0  0  0  0  0  0  0  0  0
   -1.6057    0.0095   -1.5194 H   0  0  0  0  0  0  0  0  0  0  0  0
   -2.5906    1.8958   -1.4044 C   0  0  0  0  0  0  0  0  0  0  0  0
   -2.3510    2.9588   -1.4240 H   0  0  0  0  0  0  0  0  0  0  0  0
   -3.1933    1.6601   -2.2817 H   0  0  0  0  0  0  0  0  0  0  0  0
   -3.1671    1.6686   -0.5070 H   0  0  0  0  0  0  0  0  0  0  0  0
    0.3833   -0.0008    1.9525 C   0  0  0  0  0  0  0  0  0  0  0  0
    1.5803   -0.2304    2.1189 O   0  0  0  0  0  0  0  0  0  0  0  0
   -0.4170    0.3858    2.9541 N   0  0  0  0  0  0  0  0  0  0  0  0
   -1.3850    0.5669    2.7398 H   0  0  0  0  0  0  0  0  0  0  0  0
    0.0265    0.5600    4.3358 C   0  0  0  0  0  0  0  0  0  0  0  0
    0.8964    1.2200    4.3632 H   0  0  0  0  0  0  0  0  0  0  0  0
   -0.7726    0.9946    4.9382 H   0  0  0  0  0  0  0  0  0  0  0  0
    0.3119   -0.4069    4.7547 H   0  0  0  0  0  0  0  0  0  0  0  0
  5  6  2  0  0  0  0
  5  7  1  0  0  0  0
  2  3  1  0  0  0  0
  2  4  1  0  0  0  0
  2  5  1  0  0  0  0
  1  2  1  0  0  0  0
 24 25  2  0  0  0  0
 24 26  1  0  0  0  0
 20 21  1  0  0  0  0
 20 22  1  0  0  0  0
 20 23  1  0  0  0  0
 17 18  1  0  0  0  0
 17 19  1  0  0  0  0
 17 20  1  0  0  0  0
 13 14  1  0  0  0  0
 13 15  1  0  0  0  0
 13 16  1  0  0  0  0
 11 12  1  0  0  0  0
 11 13  1  0  0  0  0
 11 17  1  0  0  0  0
  9 10  1  0  0  0  0
  9 11  1  0  0  0  0
  9 24  1  0  0  0  0
  7  8  1  0  0  0  0
  7  9  1  0  0  0  0
 28 29  1  0  0  0  0
 28 30  1  0  0  0  0
 28 31  1  0  0  0  0
 26 27  1  0  0  0  0
 26 28  1  0  0  0  0
M  END
$$$$
default_name
  -OEChem-02102213163D

 31 30  0     1  0  0  0  0  0999 V2000
   -3.0760   -3.6390    1.5496 H   0  0  0  0  0  0  0  0  0  0  0  0
   -3.0940   -2.6290    1.1426 C   0  0  0  0  0  0  0  0  0  0  0  0
   -3.7160   -1.9930    1.7706 H   0  0  0  0  0  0  0  0  0  0  0  0
   -3.4880   -2.6500    0.1286 H   0  0  0  0  0  0  0  0  0  0  0  0
   -1.6860   -2.0850    1.1196 C   0  0  0  0  0  0  0  0  0  0  0  0
   -0.7540   -2.7700    1.5226 O   0  0  0  0  0  0  0  0  0  0  0  0
   -1.5320   -0.8490    0.6496 N   0  0  0  0  0  0  0  0  0  0  0  0
   -2.3500   -0.3360    0.3566 H   0  0  0  0  0  0  0  0  0  0  0  0
   -0.2470   -0.1410    0.5576 C   0  0  1  0  0  0  0  0  0  0  0  0
    0.4239   -0.7541   -0.0450 H   0  0  0  0  0  0  0  0  0  0  0  0
   -0.4317    1.2160   -0.1683 C   0  0  1  0  0  0  0  0  0  0  0  0
   -0.9670    1.8767    0.5163 H   0  0  0  0  0  0  0  0  0  0  0  0
    0.9119    1.8867   -0.5127 C   0  0  0  0  0  0  0  0  0  0  0  0
    1.4548    1.2998   -1.2557 H   0  0  0  0  0  0  0  0  0  0  0  0
    0.7450    2.8890   -0.9039 H   0  0  0  0  0  0  0  0  0  0  0  0
    1.5280    1.9772    0.3827 H   0  0  0  0  0  0  0  0  0  0  0  0
   -1.3075    1.0542   -1.4310 C   0  0  0  0  0  0  0  0  0  0  0  0
   -0.6794    1.0604   -2.3228 H   0  0  0  0  0  0  0  0  0  0  0  0
   -1.8209    0.0940   -1.3810 H   0  0  0  0  0  0  0  0  0  0  0  0
   -2.3815    2.1402   -1.5807 C   0  0  0  0  0  0  0  0  0  0  0  0
   -1.9202    3.1142   -1.7427 H   0  0  0  0  0  0  0  0  0  0  0  0
   -3.0107    1.9074   -2.4400 H   0  0  0  0  0  0  0  0  0  0  0  0
   -3.0034    2.1757   -0.6855 H   0  0  0  0  0  0  0  0  0  0  0  0
    0.3833   -0.0008    1.9525 C   0  0  0  0  0  0  0  0  0  0  0  0
    1.5803   -0.2304    2.1189 O   0  0  0  0  0  0  0  0  0  0  0  0
   -0.4170    0.3858    2.9541 N   0  0  0  0  0  0  0  0  0  0  0  0
   -1.3850    0.5669    2.7398 H   0  0  0  0  0  0  0  0  0  0  0  0
    0.0265    0.5600    4.3358 C   0  0  0  0  0  0  0  0  0  0  0  0
    0.8964    1.2200    4.3632 H   0  0  0  0  0  0  0  0  0  0  0  0
   -0.7726    0.9946    4.9382 H   0  0  0  0  0  0  0  0  0  0  0  0
    0.3119   -0.4069    4.7547 H   0  0  0  0  0  0  0  0  0  0  0  0
  5  6  2  0  0  0  0
  5  7  1  0  0  0  0
  2  3  1  0  0  0  0
  2  4  1  0  0  0  0
  2  5  1  0  0  0  0
  1  2  1  0  0  0  0
 24 25  2  0  0  0  0
 24 26  1  0  0  0  0
 20 21  1  0  0  0  0
 20 22  1  0  0  0  0
 20 23  1  0  0  0  0
 17 18  1  0  0  0  0
 17 19  1  0  0  0  0
 17 20  1  0  0  0  0
 13 14  1  0  0  0  0
 13 15  1  0  0  0  0
 13 16  1  0  0  0  0
 11 12  1  0  0  0  0
 11 13  1  0  0  0  0
 11 17  1  0  0  0  0
  9 10  1  0  0  0  0
  9 11  1  0  0  0  0
  9 24  1  0  0  0  0
  7  8  1  0  0  0  0
  7  9  1  0  0  0  0
 28 29  1  0  0  0  0
 28 30  1  0  0  0  0
 28 31  1  0  0  0  0
 26 27  1  0  0  0  0
 26 28  1  0  0  0  0
M  END
$$$$
default_name
  -OEChem-02102213163D

 31 30  0     1  0  0  0  0  0999 V2000
   -3.0760   -3.6390    1.5496 H   0  0  0  0  0  0  0  0  0  0  0  0
   -3.0940   -2.6290    1.1426 C   0  0  0  0  0  0  0  0  0  0  0  0
   -3.7160   -1.9930    1.7706 H   0  0  0  0  0  0  0  0  0  0  0  0
   -3.4880   -2.6500    0.1286 H   0  0  0  0  0  0  0  0  0  0  0  0
   -1.6860   -2.0850    1.1196 C   0  0  0  0  0  0  0  0  0  0  0  0
   -0.7540   -2.7700    1.5226 O   0  0  0  0  0  0  0  0  0  0  0  0
   -1.5320   -0.8490    0.6496 N   0  0  0  0  0  0  0  0  0  0  0  0
   -2.3500   -0.3360    0.3566 H   0  0  0  0  0  0  0  0  0  0  0  0
   -0.2470   -0.1410    0.5576 C   0  0  1  0  0  0  0  0  0  0  0  0
    0.4239   -0.7541   -0.0450 H   0  0  0  0  0  0  0  0  0  0  0  0
   -0.4317    1.2160   -0.1683 C   0  0  1  0  0  0  0  0  0  0  0  0
   -0.9670    1.8767    0.5163 H   0  0  0  0  0  0  0  0  0  0  0  0
    0.9119    1.8867   -0.5127 C   0  0  0  0  0  0  0  0  0  0  0  0
    1.4548    1.2998   -1.2557 H   0  0  0  0  0  0  0  0  0  0  0  0
    0.7450    2.8890   -0.9039 H   0  0  0  0  0  0  0  0  0  0  0  0
    1.5280    1.9772    0.3827 H   0  0  0  0  0  0  0  0  0  0  0  0
   -1.3075    1.0542   -1.4310 C   0  0  0  0  0  0  0  0  0  0  0  0
   -0.6825    0.7952   -2.2867 H   0  0  0  0  0  0  0  0  0  0  0  0
   -2.0146    0.2414   -1.2655 H   0  0  0  0  0  0  0  0  0  0  0  0
   -2.1231    2.3062   -1.7812 C   0  0  0  0  0  0  0  0  0  0  0  0
   -1.4627    3.1265   -2.0616 H   0  0  0  0  0  0  0  0  0  0  0  0
   -2.7777    2.0845   -2.6243 H   0  0  0  0  0  0  0  0  0  0  0  0
   -2.7331    2.6047   -0.9280 H   0  0  0  0  0  0  0  0  0  0  0  0
    0.3833   -0.0008    1.9525 C   0  0  0  0  0  0  0  0  0  0  0  0
    1.5803   -0.2304    2.1189 O   0  0  0  0  0  0  0  0  0  0  0  0
   -0.4170    0.3858    2.9541 N   0  0  0  0  0  0  0  0  0  0  0  0
   -1.3850    0.5669    2.7398 H   0  0  0  0  0  0  0  0  0  0  0  0
    0.0265    0.5600    4.3358 C   0  0  0  0  0  0  0  0  0  0  0  0
    0.8964    1.2200    4.3632 H   0  0  0  0  0  0  0  0  0  0  0  0
   -0.7726    0.9946    4.9382 H   0  0  0  0  0  0  0  0  0  0  0  0
    0.3119   -0.4069    4.7547 H   0  0  0  0  0  0  0  0  0  0  0  0
  5  6  2  0  0  0  0
  5  7  1  0  0  0  0
  2  3  1  0  0  0  0
  2  4  1  0  0  0  0
  2  5  1  0  0  0  0
  1  2  1  0  0  0  0
 24 25  2  0  0  0  0
 24 26  1  0  0  0  0
 20 21  1  0  0  0  0
 20 22  1  0  0  0  0
 20 23  1  0  0  0  0
 17 18  1  0  0  0  0
 17 19  1  0  0  0  0
 17 20  1  0  0  0  0
 13 14  1  0  0  0  0
 13 15  1  0  0  0  0
 13 16  1  0  0  0  0
 11 12  1  0  0  0  0
 11 13  1  0  0  0  0
 11 17  1  0  0  0  0
  9 10  1  0  0  0  0
  9 11  1  0  0  0  0
  9 24  1  0  0  0  0
  7  8  1  0  0  0  0
  7  9  1  0  0  0  0
 28 29  1  0  0  0  0
 28 30  1  0  0  0  0
 28 31  1  0  0  0  0
 26 27  1  0  0  0  0
 26 28  1  0  0  0  0
M  END
$$$$
default_name
  -OEChem-02102213163D

 31 30  0     1  0  0  0  0  0999 V2000
   -3.0760   -3.6390    1.5496 H   0  0  0  0  0  0  0  0  0  0  0  0
   -3.0940   -2.6290    1.1426 C   0  0  0  0  0  0  0  0  0  0  0  0
   -3.7160   -1.9930    1.7706 H   0  0  0  0  0  0  0  0  0  0  0  0
   -3.4880   -2.6500    0.1286 H   0  0  0  0  0  0  0  0  0  0  0  0
   -1.6860   -2.0850    1.1196 C   0  0  0  0  0  0  0  0  0  0  0  0
   -0.7540   -2.7700    1.5226 O   0  0  0  0  0  0  0  0  0  0  0  0
   -1.5320   -0.8490    0.6496 N   0  0  0  0  0  0  0  0  0  0  0  0
   -2.3500   -0.3360    0.3566 H   0  0  0  0  0  0  0  0  0  0  0  0
   -0.2470   -0.1410    0.5576 C   0  0  1  0  0  0  0  0  0  0  0  0
    0.4239   -0.7541   -0.0450 H   0  0  0  0  0  0  0  0  0  0  0  0
   -0.4317    1.2160   -0.1683 C   0  0  1  0  0  0  0  0  0  0  0  0
   -0.9670    1.8767    0.5163 H   0  0  0  0  0  0  0  0  0  0  0  0
    0.9119    1.8867   -0.5127 C   0  0  0  0  0  0  0  0  0  0  0  0
    1.4548    1.2998   -1.2557 H   0  0  0  0  0  0  0  0  0  0  0  0
    0.7450    2.8890   -0.9039 H   0  0  0  0  0  0  0  0  0  0  0  0
    1.5280    1.9772    0.3827 H   0  0  0  0  0  0  0  0  0  0  0  0
   -1.3075    1.0542   -1.4310 C   0  0  0  0  0  0  0  0  0  0  0  0
   -0.7426    0.5450   -2.2130 H   0  0  0  0  0  0  0  0  0  0  0  0
   -2.1736    0.4416   -1.1808 H   0  0  0  0  0  0  0  0  0  0  0  0
   -1.8329    2.3824   -1.9922 C   0  0  0  0  0  0  0  0  0  0  0  0
   -1.0094    2.9949   -2.3591 H   0  0  0  0  0  0  0  0  0  0  0  0
   -2.5102    2.1792   -2.8220 H   0  0  0  0  0  0  0  0  0  0  0  0
   -2.3748    2.9264   -1.2177 H   0  0  0  0  0  0  0  0  0  0  0  0
    0.3833   -0.0008    1.9525 C   0  0  0  0  0  0  0  0  0  0  0  0
    1.5803   -0.2304    2.1189 O   0  0  0  0  0  0  0  0  0  0  0  0
   -0.4170    0.3858    2.9541 N   0  0  0  0  0  0  0  0  0  0  0  0
   -1.3850    0.5669    2.7398 H   0  0  0  0  0  0  0  0  0  0  0  0
    0.0265    0.5600    4.3358 C   0  0  0  0  0  0  0  0  0  0  0  0
    0.8964    1.2200    4.3632 H   0  0  0  0  0  0  0  0  0  0  0  0
   -0.7726    0.9946    4.9382 H   0  0  0  0  0  0  0  0  0  0  0  0
    0.3119   -0.4069    4.7547 H   0  0  0  0  0  0  0  0  0  0  0  0
  5  6  2  0  0  0  0
  5  7  1  0  0  0  0
  2  3  1  0  0  0  0
  2  4  1  0  0  0  0
  2  5  1  0  0  0  0
  1  2  1  0  0  0  0
 24 25  2  0  0  0  0
 24 26  1  0  0  0  0
 20 21  1  0  0  0  0
 20 22  1  0  0  0  0
 20 23  1  0  0  0  0
 17 18  1  0  0  0  0
 17 19  1  0  0  0  0
 17 20  1  0  0  0  0
 13 14  1  0  0  0  0
 13 15  1  0  0  0  0
 13 16  1  0  0  0  0
 11 12  1  0  0  0  0
 11 13  1  0  0  0  0
 11 17  1  0  0  0  0
  9 10  1  0  0  0  0
  9 11  1  0  0  0  0
  9 24  1  0  0  0  0
  7  8  1  0  0  0  0
  7  9  1  0  0  0  0
 28 29  1  0  0  0  0
 28 30  1  0  0  0  0
 28 31  1  0  0  0  0
 26 27  1  0  0  0  0
 26 28  1  0  0  0  0
M  END
$$$$
default_name
  -OEChem-02102213163D

 31 30  0     1  0  0  0  0  0999 V2000
   -3.0760   -3.6390    1.5496 H   0  0  0  0  0  0  0  0  0  0  0  0
   -3.0940   -2.6290    1.1426 C   0  0  0  0  0  0  0  0  0  0  0  0
   -3.7160   -1.9930    1.7706 H   0  0  0  0  0  0  0  0  0  0  0  0
   -3.4880   -2.6500    0.1286 H   0  0  0  0  0  0  0  0  0  0  0  0
   -1.6860   -2.0850    1.1196 C   0  0  0  0  0  0  0  0  0  0  0  0
   -0.7540   -2.7700    1.5226 O   0  0  0  0  0  0  0  0  0  0  0  0
   -1.5320   -0.8490    0.6496 N   0  0  0  0  0  0  0  0  0  0  0  0
   -2.3500   -0.3360    0.3566 H   0  0  0  0  0  0  0  0  0  0  0  0
   -0.2470   -0.1410    0.5576 C   0  0  1  0  0  0  0  0  0  0  0  0
    0.4239   -0.7541   -0.0450 H   0  0  0  0  0  0  0  0  0  0  0  0
   -0.4317    1.2160   -0.1683 C   0  0  1  0  0  0  0  0  0  0  0  0
   -0.7148    1.9498    0.5887 H   0  0  0  0  0  0  0  0  0  0  0  0
    0.8670    1.7079   -0.8354 C   0  0  0  0  0  0  0  0  0  0  0  0
    1.1528    1.0454   -1.6544 H   0  0  0  0  0  0  0  0  0  0  0  0
    0.7343    2.7165   -1.2237 H   0  0  0  0  0  0  0  0  0  0  0  0
    1.6776    1.7359   -0.1064 H   0  0  0  0  0  0  0  0  0  0  0  0
   -1.5856    1.1434   -1.1934 C   0  0  0  0  0  0  0  0  0  0  0  0
   -1.3888    0.3541   -1.9201 H   0  0  0  0  0  0  0  0  0  0  0  0
   -2.5082    0.9007   -0.6662 H   0  0  0  0  0  0  0  0  0  0  0  0
   -1.8229    2.4575   -1.9498 C   0  0  0  0  0  0  0  0  0  0  0  0
   -0.9671    2.6948   -2.5816 H   0  0  0  0  0  0  0  0  0  0  0  0
   -2.7036    2.3533   -2.5839 H   0  0  0  0  0  0  0  0  0  0  0  0
   -1.9900    3.2703   -1.2422 H   0  0  0  0  0  0  0  0  0  0  0  0
    0.3833   -0.0008    1.9525 C   0  0  0  0  0  0  0  0  0  0  0  0
    1.5803   -0.2304    2.1189 O   0  0  0  0  0  0  0  0  0  0  0  0
   -0.4170    0.3858    2.9541 N   0  0  0  0  0  0  0  0  0  0  0  0
   -1.3850    0.5669    2.7398 H   0  0  0  0  0  0  0  0  0  0  0  0
    0.0265    0.5600    4.3358 C   0  0  0  0  0  0  0  0  0  0  0  0
    0.8964    1.2200    4.3632 H   0  0  0  0  0  0  0  0  0  0  0  0
   -0.7726    0.9946    4.9382 H   0  0  0  0  0  0  0  0  0  0  0  0
    0.3119   -0.4069    4.7547 H   0  0  0  0  0  0  0  0  0  0  0  0
  5  6  2  0  0  0  0
  5  7  1  0  0  0  0
  2  3  1  0  0  0  0
  2  4  1  0  0  0  0
  2  5  1  0  0  0  0
  1  2  1  0  0  0  0
 24 25  2  0  0  0  0
 24 26  1  0  0  0  0
 20 21  1  0  0  0  0
 20 22  1  0  0  0  0
 20 23  1  0  0  0  0
 17 18  1  0  0  0  0
 17 19  1  0  0  0  0
 17 20  1  0  0  0  0
 13 14  1  0  0  0  0
 13 15  1  0  0  0  0
 13 16  1  0  0  0  0
 11 12  1  0  0  0  0
 11 13  1  0  0  0  0
 11 17  1  0  0  0  0
  9 10  1  0  0  0  0
  9 11  1  0  0  0  0
  9 24  1  0  0  0  0
  7  8  1  0  0  0  0
  7  9  1  0  0  0  0
 28 29  1  0  0  0  0
 28 30  1  0  0  0  0
 28 31  1  0  0  0  0
 26 27  1  0  0  0  0
 26 28  1  0  0  0  0
M  END
$$$$
default_name
  -OEChem-02102213163D

 31 30  0     1  0  0  0  0  0999 V2000
   -3.0760   -3.6390    1.5496 H   0  0  0  0  0  0  0  0  0  0  0  0
   -3.0940   -2.6290    1.1426 C   0  0  0  0  0  0  0  0  0  0  0  0
   -3.7160   -1.9930    1.7706 H   0  0  0  0  0  0  0  0  0  0  0  0
   -3.4880   -2.6500    0.1286 H   0  0  0  0  0  0  0  0  0  0  0  0
   -1.6860   -2.0850    1.1196 C   0  0  0  0  0  0  0  0  0  0  0  0
   -0.7540   -2.7700    1.5226 O   0  0  0  0  0  0  0  0  0  0  0  0
   -1.5320   -0.8490    0.6496 N   0  0  0  0  0  0  0  0  0  0  0  0
   -2.3500   -0.3360    0.3566 H   0  0  0  0  0  0  0  0  0  0  0  0
   -0.2470   -0.1410    0.5576 C   0  0  1  0  0  0  0  0  0  0  0  0
    0.4239   -0.7541   -0.0450 H   0  0  0  0  0  0  0  0  0  0  0  0
   -0.4317    1.2160   -0.1683 C   0  0  1  0  0  0  0  0  0  0  0  0
   -0.7148    1.9498    0.5887 H   0  0  0  0  0  0  0  0  0  0  0  0
    0.8670    1.7079   -0.8354 C   0  0  0  0  0  0  0  0  0  0  0  0
    1.1528    1.0454   -1.6544 H   0  0  0  0  0  0  0  0  0  0  0  0
    0.7343    2.7165   -1.2237 H   0  0  0  0  0  0  0  0  0  0  0  0
    1.6776    1.7359   -0.1064 H   0  0  0  0  0  0  0  0  0  0  0  0
   -1.5856    1.1434   -1.1934 C   0  0  0  0  0  0  0  0  0  0  0  0
   -1.5317    0.2062   -1.7488 H   0  0  0  0  0  0  0  0  0  0  0  0
   -2.5338    1.1687   -0.6564 H   0  0  0  0  0  0  0  0  0  0  0  0
   -1.5957    2.3063   -2.1949 C   0  0  0  0  0  0  0  0  0  0  0  0
   -0.7148    2.2668   -2.8354 H   0  0  0  0  0  0  0  0  0  0  0  0
   -2.4842    2.2326   -2.8224 H   0  0  0  0  0  0  0  0  0  0  0  0
   -1.6164    3.2575   -1.6619 H   0  0  0  0  0  0  0  0  0  0  0  0
    0.3833   -0.0008    1.9525 C   0  0  0  0  0  0  0  0  0  0  0  0
    1.5803   -0.2304    2.1189 O   0  0  0  0  0  0  0  0  0  0  0  0
   -0.4170    0.3858    2.9541 N   0  0  0  0  0  0  0  0  0  0  0  0
   -1.3850    0.5669    2.7398 H   0  0  0  0  0  0  0  0  0  0  0  0
    0.0265    0.5600    4.3358 C   0  0  0  0  0  0  0  0  0  0  0  0
    0.8964    1.2200    4.3632 H   0  0  0  0  0  0  0  0  0  0  0  0
   -0.7726    0.9946    4.9382 H   0  0  0  0  0  0  0  0  0  0  0  0
    0.3119   -0.4069    4.7547 H   0  0  0  0  0  0  0  0  0  0  0  0
  5  6  2  0  0  0  0
  5  7  1  0  0  0  0
  2  3  1  0  0  0  0
  2  4  1  0  0  0  0
  2  5  1  0  0  0  0
  1  2  1  0  0  0  0
 24 25  2  0  0  0  0
 24 26  1  0  0  0  0
 20 21  1  0  0  0  0
 20 22  1  0  0  0  0
 20 23  1  0  0  0  0
 17 18  1  0  0  0  0
 17 19  1  0  0  0  0
 17 20  1  0  0  0  0
 13 14  1  0  0  0  0
 13 15  1  0  0  0  0
 13 16  1  0  0  0  0
 11 12  1  0  0  0  0
 11 13  1  0  0  0  0
 11 17  1  0  0  0  0
  9 10  1  0  0  0  0
  9 11  1  0  0  0  0
  9 24  1  0  0  0  0
  7  8  1  0  0  0  0
  7  9  1  0  0  0  0
 28 29  1  0  0  0  0
 28 30  1  0  0  0  0
 28 31  1  0  0  0  0
 26 27  1  0  0  0  0
 26 28  1  0  0  0  0
M  END
$$$$
default_name
  -OEChem-02102213163D

 31 30  0     1  0  0  0  0  0999 V2000
   -3.0760   -3.6390    1.5496 H   0  0  0  0  0  0  0  0  0  0  0  0
   -3.0940   -2.6290    1.1426 C   0  0  0  0  0  0  0  0  0  0  0  0
   -3.7160   -1.9930    1.7706 H   0  0  0  0  0  0  0  0  0  0  0  0
   -3.4880   -2.6500    0.1286 H   0  0  0  0  0  0  0  0  0  0  0  0
   -1.6860   -2.0850    1.1196 C   0  0  0  0  0  0  0  0  0  0  0  0
   -0.7540   -2.7700    1.5226 O   0  0  0  0  0  0  0  0  0  0  0  0
   -1.5320   -0.8490    0.6496 N   0  0  0  0  0  0  0  0  0  0  0  0
   -2.3500   -0.3360    0.3566 H   0  0  0  0  0  0  0  0  0  0  0  0
   -0.2470   -0.1410    0.5576 C   0  0  1  0  0  0  0  0  0  0  0  0
    0.4239   -0.7541   -0.0450 H   0  0  0  0  0  0  0  0  0  0  0  0
   -0.4317    1.2160   -0.1683 C   0  0  1  0  0  0  0  0  0  0  0  0
   -0.7148    1.9498    0.5887 H   0  0  0  0  0  0  0  0  0  0  0  0
    0.8670    1.7079   -0.8354 C   0  0  0  0  0  0  0  0  0  0  0  0
    1.1528    1.0454   -1.6544 H   0  0  0  0  0  0  0  0  0  0  0  0
    0.7343    2.7165   -1.2237 H   0  0  0  0  0  0  0  0  0  0  0  0
    1.6776    1.7359   -0.1064 H   0  0  0  0  0  0  0  0  0  0  0  0
   -1.5856    1.1434   -1.1934 C   0  0  0  0  0  0  0  0  0  0  0  0
   -1.6972    0.1209   -1.5565 H   0  0  0  0  0  0  0  0  0  0  0  0
   -2.5126    1.4339   -0.6990 H   0  0  0  0  0  0  0  0  0  0  0  0
   -1.3992    2.0738   -2.3996 C   0  0  0  0  0  0  0  0  0  0  0  0
   -0.5415    1.7610   -2.9947 H   0  0  0  0  0  0  0  0  0  0  0  0
   -2.2900    2.0321   -3.0268 H   0  0  0  0  0  0  0  0  0  0  0  0
   -1.2527    3.0998   -2.0602 H   0  0  0  0  0  0  0  0  0  0  0  0
    0.3833   -0.0008    1.9525 C   0  0  0  0  0  0  0  0  0  0  0  0
    1.5803   -0.2304    2.1189 O   0  0  0  0  0  0  0  0  0  0  0  0
   -0.4170    0.3858    2.9541 N   0  0  0  0  0  0  0  0  0  0  0  0
   -1.3850    0.5669    2.7398 H   0  0  0  0  0  0  0  0  0  0  0  0
    0.0265    0.5600    4.3358 C   0  0  0  0  0  0  0  0  0  0  0  0
    0.8964    1.2200    4.3632 H   0  0  0  0  0  0  0  0  0  0  0  0
   -0.7726    0.9946    4.9382 H   0  0  0  0  0  0  0  0  0  0  0  0
    0.3119   -0.4069    4.7547 H   0  0  0  0  0  0  0  0  0  0  0  0
  5  6  2  0  0  0  0
  5  7  1  0  0  0  0
  2  3  1  0  0  0  0
  2  4  1  0  0  0  0
  2  5  1  0  0  0  0
  1  2  1  0  0  0  0
 24 25  2  0  0  0  0
 24 26  1  0  0  0  0
 20 21  1  0  0  0  0
 20 22  1  0  0  0  0
 20 23  1  0  0  0  0
 17 18  1  0  0  0  0
 17 19  1  0  0  0  0
 17 20  1  0  0  0  0
 13 14  1  0  0  0  0
 13 15  1  0  0  0  0
 13 16  1  0  0  0  0
 11 12  1  0  0  0  0
 11 13  1  0  0  0  0
 11 17  1  0  0  0  0
  9 10  1  0  0  0  0
  9 11  1  0  0  0  0
  9 24  1  0  0  0  0
  7  8  1  0  0  0  0
  7  9  1  0  0  0  0
 28 29  1  0  0  0  0
 28 30  1  0  0  0  0
 28 31  1  0  0  0  0
 26 27  1  0  0  0  0
 26 28  1  0  0  0  0
M  END
$$$$
default_name
  -OEChem-02102213163D

 31 30  0     1  0  0  0  0  0999 V2000
   -3.0760   -3.6390    1.5496 H   0  0  0  0  0  0  0  0  0  0  0  0
   -3.0940   -2.6290    1.1426 C   0  0  0  0  0  0  0  0  0  0  0  0
   -3.7160   -1.9930    1.7706 H   0  0  0  0  0  0  0  0  0  0  0  0
   -3.4880   -2.6500    0.1286 H   0  0  0  0  0  0  0  0  0  0  0  0
   -1.6860   -2.0850    1.1196 C   0  0  0  0  0  0  0  0  0  0  0  0
   -0.7540   -2.7700    1.5226 O   0  0  0  0  0  0  0  0  0  0  0  0
   -1.5320   -0.8490    0.6496 N   0  0  0  0  0  0  0  0  0  0  0  0
   -2.3500   -0.3360    0.3566 H   0  0  0  0  0  0  0  0  0  0  0  0
   -0.2470   -0.1410    0.5576 C   0  0  1  0  0  0  0  0  0  0  0  0
    0.4239   -0.7541   -0.0450 H   0  0  0  0  0  0  0  0  0  0  0  0
   -0.4317    1.2160   -0.1683 C   0  0  1  0  0  0  0  0  0  0  0  0
   -0.7148    1.9498    0.5887 H   0  0  0  0  0  0  0  0  0  0  0  0
    0.8670    1.7079   -0.8354 C   0  0  0  0  0  0  0  0  0  0  0  0
    1.1528    1.0454   -1.6544 H   0  0  0  0  0  0  0  0  0  0  0  0
    0.7343    2.7165   -1.2237 H   0  0  0  0  0  0  0  0  0  0  0  0
    1.6776    1.7359   -0.1064 H   0  0  0  0  0  0  0  0  0  0  0  0
   -1.5856    1.1434   -1.1934 C   0  0  0  0  0  0  0  0  0  0  0  0
   -1.8740    0.1041   -1.3562 H   0  0  0  0  0  0  0  0  0  0  0  0
   -2.4461    1.6781   -0.7912 H   0  0  0  0  0  0  0  0  0  0  0  0
   -1.2469    1.7760   -2.5500 C   0  0  0  0  0  0  0  0  0  0  0  0
   -0.4590    1.2119   -3.0488 H   0  0  0  0  0  0  0  0  0  0  0  0
   -2.1344    1.7657   -3.1831 H   0  0  0  0  0  0  0  0  0  0  0  0
   -0.9236    2.8081   -2.4101 H   0  0  0  0  0  0  0  0  0  0  0  0
    0.3833   -0.0008    1.9525 C   0  0  0  0  0  0  0  0  0  0  0  0
    1.5803   -0.2304    2.1189 O   0  0  0  0  0  0  0  0  0  0  0  0
   -0.4170    0.3858    2.9541 N   0  0  0  0  0  0  0  0  0  0  0  0
   -1.3850    0.5669    2.7398 H   0  0  0  0  0  0  0  0  0  0  0  0
    0.0265    0.5600    4.3358 C   0  0  0  0  0  0  0  0  0  0  0  0
    0.8964    1.2200    4.3632 H   0  0  0  0  0  0  0  0  0  0  0  0
   -0.7726    0.9946    4.9382 H   0  0  0  0  0  0  0  0  0  0  0  0
    0.3119   -0.4069    4.7547 H   0  0  0  0  0  0  0  0  0  0  0  0
  5  6  2  0  0  0  0
  5  7  1  0  0  0  0
  2  3  1  0  0  0  0
  2  4  1  0  0  0  0
  2  5  1  0  0  0  0
  1  2  1  0  0  0  0
 24 25  2  0  0  0  0
 24 26  1  0  0  0  0
 20 21  1  0  0  0  0
 20 22  1  0  0  0  0
 20 23  1  0  0  0  0
 17 18  1  0  0  0  0
 17 19  1  0  0  0  0
 17 20  1  0  0  0  0
 13 14  1  0  0  0  0
 13 15  1  0  0  0  0
 13 16  1  0  0  0  0
 11 12  1  0  0  0  0
 11 13  1  0  0  0  0
 11 17  1  0  0  0  0
  9 10  1  0  0  0  0
  9 11  1  0  0  0  0
  9 24  1  0  0  0  0
  7  8  1  0  0  0  0
  7  9  1  0  0  0  0
 28 29  1  0  0  0  0
 28 30  1  0  0  0  0
 28 31  1  0  0  0  0
 26 27  1  0  0  0  0
 26 28  1  0  0  0  0
M  END
$$$$
default_name
  -OEChem-02102213163D

 31 30  0     1  0  0  0  0  0999 V2000
   -3.0760   -3.6390    1.5496 H   0  0  0  0  0  0  0  0  0  0  0  0
   -3.0940   -2.6290    1.1426 C   0  0  0  0  0  0  0  0  0  0  0  0
   -3.7160   -1.9930    1.7706 H   0  0  0  0  0  0  0  0  0  0  0  0
   -3.4880   -2.6500    0.1286 H   0  0  0  0  0  0  0  0  0  0  0  0
   -1.6860   -2.0850    1.1196 C   0  0  0  0  0  0  0  0  0  0  0  0
   -0.7540   -2.7700    1.5226 O   0  0  0  0  0  0  0  0  0  0  0  0
   -1.5320   -0.8490    0.6496 N   0  0  0  0  0  0  0  0  0  0  0  0
   -2.3500   -0.3360    0.3566 H   0  0  0  0  0  0  0  0  0  0  0  0
   -0.2470   -0.1410    0.5576 C   0  0  1  0  0  0  0  0  0  0  0  0
    0.4239   -0.7541   -0.0450 H   0  0  0  0  0  0  0  0  0  0  0  0
   -0.4317    1.2160   -0.1683 C   0  0  1  0  0  0  0  0  0  0  0  0
   -0.7148    1.9498    0.5887 H   0  0  0  0  0  0  0  0  0  0  0  0
    0.8670    1.7079   -0.8354 C   0  0  0  0  0  0  0  0  0  0  0  0
    1.1528    1.0454   -1.6544 H   0  0  0  0  0  0  0  0  0  0  0  0
    0.7343    2.7165   -1.2237 H   0  0  0  0  0  0  0  0  0  0  0  0
    1.6776    1.7359   -0.1064 H   0  0  0  0  0  0  0  0  0  0  0  0
   -1.5856    1.1434   -1.1934 C   0  0  0  0  0  0  0  0  0  0  0  0
   -2.0501    0.1570   -1.1617 H   0  0  0  0  0  0  0  0  0  0  0  0
   -2.3387    1.8848   -0.9266 H   0  0  0  0  0  0  0  0  0  0  0  0
   -1.1491    1.4331   -2.6359 C   0  0  0  0  0  0  0  0  0  0  0  0
   -0.4729    0.6569   -2.9938 H   0  0  0  0  0  0  0  0  0  0  0  0
   -2.0280    1.4515   -3.2807 H   0  0  0  0  0  0  0  0  0  0  0  0
   -0.6515    2.4021   -2.6876 H   0  0  0  0  0  0  0  0  0  0  0  0
    0.3833   -0.0008    1.9525 C   0  0  0  0  0  0  0  0  0  0  0  0
    1.5803   -0.2304    2.1189 O   0  0  0  0  0  0  0  0  0  0  0  0
   -0.4170    0.3858    2.9541 N   0  0  0  0  0  0  0  0  0  0  0  0
   -1.3850    0.5669    2.7398 H   0  0  0  0  0  0  0  0  0  0  0  0
    0.0265    0.5600    4.3358 C   0  0  0  0  0  0  0  0  0  0  0  0
    0.8964    1.2200    4.3632 H   0  0  0  0  0  0  0  0  0  0  0  0
   -0.7726    0.9946    4.9382 H   0  0  0  0  0  0  0  0  0  0  0  0
    0.3119   -0.4069    4.7547 H   0  0  0  0  0  0  0  0  0  0  0  0
  5  6  2  0  0  0  0
  5  7  1  0  0  0  0
  2  3  1  0  0  0  0
  2  4  1  0  0  0  0
  2  5  1  0  0  0  0
  1  2  1  0  0  0  0
 24 25  2  0  0  0  0
 24 26  1  0  0  0  0
 20 21  1  0  0  0  0
 20 22  1  0  0  0  0
 20 23  1  0  0  0  0
 17 18  1  0  0  0  0
 17 19  1  0  0  0  0
 17 20  1  0  0  0  0
 13 14  1  0  0  0  0
 13 15  1  0  0  0  0
 13 16  1  0  0  0  0
 11 12  1  0  0  0  0
 11 13  1  0  0  0  0
 11 17  1  0  0  0  0
  9 10  1  0  0  0  0
  9 11  1  0  0  0  0
  9 24  1  0  0  0  0
  7  8  1  0  0  0  0
  7  9  1  0  0  0  0
 28 29  1  0  0  0  0
 28 30  1  0  0  0  0
 28 31  1  0  0  0  0
 26 27  1  0  0  0  0
 26 28  1  0  0  0  0
M  END
$$$$
default_name
  -OEChem-02102213163D

 31 30  0     1  0  0  0  0  0999 V2000
   -3.0760   -3.6390    1.5496 H   0  0  0  0  0  0  0  0  0  0  0  0
   -3.0940   -2.6290    1.1426 C   0  0  0  0  0  0  0  0  0  0  0  0
   -3.7160   -1.9930    1.7706 H   0  0  0  0  0  0  0  0  0  0  0  0
   -3.4880   -2.6500    0.1286 H   0  0  0  0  0  0  0  0  0  0  0  0
   -1.6860   -2.0850    1.1196 C   0  0  0  0  0  0  0  0  0  0  0  0
   -0.7540   -2.7700    1.5226 O   0  0  0  0  0  0  0  0  0  0  0  0
   -1.5320   -0.8490    0.6496 N   0  0  0  0  0  0  0  0  0  0  0  0
   -2.3500   -0.3360    0.3566 H   0  0  0  0  0  0  0  0  0  0  0  0
   -0.2470   -0.1410    0.5576 C   0  0  1  0  0  0  0  0  0  0  0  0
    0.4239   -0.7541   -0.0450 H   0  0  0  0  0  0  0  0  0  0  0  0
   -0.4317    1.2160   -0.1683 C   0  0  1  0  0  0  0  0  0  0  0  0
   -0.7148    1.9498    0.5887 H   0  0  0  0  0  0  0  0  0  0  0  0
    0.8670    1.7079   -0.8354 C   0  0  0  0  0  0  0  0  0  0  0  0
    1.1528    1.0454   -1.6544 H   0  0  0  0  0  0  0  0  0  0  0  0
    0.7343    2.7165   -1.2237 H   0  0  0  0  0  0  0  0  0  0  0  0
    1.6776    1.7359   -0.1064 H   0  0  0  0  0  0  0  0  0  0  0  0
   -1.5856    1.1434   -1.1934 C   0  0  0  0  0  0  0  0  0  0  0  0
   -2.2135    0.2759   -0.9862 H   0  0  0  0  0  0  0  0  0  0  0  0
   -2.1979    2.0399   -1.0961 H   0  0  0  0  0  0  0  0  0  0  0  0
   -1.1124    1.0685   -2.6514 C   0  0  0  0  0  0  0  0  0  0  0  0
   -0.5823    0.1338   -2.8337 H   0  0  0  0  0  0  0  0  0  0  0  0
   -1.9780    1.1108   -3.3129 H   0  0  0  0  0  0  0  0  0  0  0  0
   -0.4550    1.9097   -2.8739 H   0  0  0  0  0  0  0  0  0  0  0  0
    0.3833   -0.0008    1.9525 C   0  0  0  0  0  0  0  0  0  0  0  0
    1.5803   -0.2304    2.1189 O   0  0  0  0  0  0  0  0  0  0  0  0
   -0.4170    0.3858    2.9541 N   0  0  0  0  0  0  0  0  0  0  0  0
   -1.3850    0.5669    2.7398 H   0  0  0  0  0  0  0  0  0  0  0  0
    0.0265    0.5600    4.3358 C   0  0  0  0  0  0  0  0  0  0  0  0
    0.8964    1.2200    4.3632 H   0  0  0  0  0  0  0  0  0  0  0  0
   -0.7726    0.9946    4.9382 H   0  0  0  0  0  0  0  0  0  0  0  0
    0.3119   -0.4069    4.7547 H   0  0  0  0  0  0  0  0  0  0  0  0
  5  6  2  0  0  0  0
  5  7  1  0  0  0  0
  2  3  1  0  0  0  0
  2  4  1  0  0  0  0
  2  5  1  0  0  0  0
  1  2  1  0  0  0  0
 24 25  2  0  0  0  0
 24 26  1  0  0  0  0
 20 21  1  0  0  0  0
 20 22  1  0  0  0  0
 20 23  1  0  0  0  0
 17 18  1  0  0  0  0
 17 19  1  0  0  0  0
 17 20  1  0  0  0  0
 13 14  1  0  0  0  0
 13 15  1  0  0  0  0
 13 16  1  0  0  0  0
 11 12  1  0  0  0  0
 11 13  1  0  0  0  0
 11 17  1  0  0  0  0
  9 10  1  0  0  0  0
  9 11  1  0  0  0  0
  9 24  1  0  0  0  0
  7  8  1  0  0  0  0
  7  9  1  0  0  0  0
 28 29  1  0  0  0  0
 28 30  1  0  0  0  0
 28 31  1  0  0  0  0
 26 27  1  0  0  0  0
 26 28  1  0  0  0  0
M  END
$$$$
default_name
  -OEChem-02102213163D

 31 30  0     1  0  0  0  0  0999 V2000
   -3.0760   -3.6390    1.5496 H   0  0  0  0  0  0  0  0  0  0  0  0
   -3.0940   -2.6290    1.1426 C   0  0  0  0  0  0  0  0  0  0  0  0
   -3.7160   -1.9930    1.7706 H   0  0  0  0  0  0  0  0  0  0  0  0
   -3.4880   -2.6500    0.1286 H   0  0  0  0  0  0  0  0  0  0  0  0
   -1.6860   -2.0850    1.1196 C   0  0  0  0  0  0  0  0  0  0  0  0
   -0.7540   -2.7700    1.5226 O   0  0  0  0  0  0  0  0  0  0  0  0
   -1.5320   -0.8490    0.6496 N   0  0  0  0  0  0  0  0  0  0  0  0
   -2.3500   -0.3360    0.3566 H   0  0  0  0  0  0  0  0  0  0  0  0
   -0.2470   -0.1410    0.5576 C   0  0  1  0  0  0  0  0  0  0  0  0
    0.4239   -0.7541   -0.0450 H   0  0  0  0  0  0  0  0  0  0  0  0
   -0.4317    1.2160   -0.1683 C   0  0  1  0  0  0  0  0  0  0  0  0
   -0.7148    1.9498    0.5887 H   0  0  0  0  0  0  0  0  0  0  0  0
    0.8670    1.7079   -0.8354 C   0  0  0  0  0  0  0  0  0  0  0  0
    1.1528    1.0454   -1.6544 H   0  0  0  0  0  0  0  0  0  0  0  0
    0.7343    2.7165   -1.2237 H   0  0  0  0  0  0  0  0  0  0  0  0
    1.6776    1.7359   -0.1064 H   0  0  0  0  0  0  0  0  0  0  0  0
   -1.5856    1.1434   -1.1934 C   0  0  0  0  0  0  0  0  0  0  0  0
   -2.3531    0.4527   -0.8416 H   0  0  0  0  0  0  0  0  0  0  0  0
   -2.0333    2.1327   -1.2880 H   0  0  0  0  0  0  0  0  0  0  0  0
   -1.1394    0.7070   -2.5954 C   0  0  0  0  0  0  0  0  0  0  0  0
   -0.7798   -0.3217   -2.5792 H   0  0  0  0  0  0  0  0  0  0  0  0
   -1.9877    0.7669   -3.2776 H   0  0  0  0  0  0  0  0  0  0  0  0
   -0.3475    1.3643   -2.9564 H   0  0  0  0  0  0  0  0  0  0  0  0
    0.3833   -0.0008    1.9525 C   0  0  0  0  0  0  0  0  0  0  0  0
    1.5803   -0.2304    2.1189 O   0  0  0  0  0  0  0  0  0  0  0  0
   -0.4170    0.3858    2.9541 N   0  0  0  0  0  0  0  0  0  0  0  0
   -1.3850    0.5669    2.7398 H   0  0  0  0  0  0  0  0  0  0  0  0
    0.0265    0.5600    4.3358 C   0  0  0  0  0  0  0  0  0  0  0  0
    0.8964    1.2200    4.3632 H   0  0  0  0  0  0  0  0  0  0  0  0
   -0.7726    0.9946    4.9382 H   0  0  0  0  0  0  0  0  0  0  0  0
    0.3119   -0.4069    4.7547 H   0  0  0  0  0  0  0  0  0  0  0  0
  5  6  2  0  0  0  0
  5  7  1  0  0  0  0
  2  3  1  0  0  0  0
  2  4  1  0  0  0  0
  2  5  1  0  0  0  0
  1  2  1  0  0  0  0
 24 25  2  0  0  0  0
 24 26  1  0  0  0  0
 20 21  1  0  0  0  0
 20 22  1  0  0  0  0
 20 23  1  0  0  0  0
 17 18  1  0  0  0  0
 17 19  1  0  0  0  0
 17 20  1  0  0  0  0
 13 14  1  0  0  0  0
 13 15  1  0  0  0  0
 13 16  1  0  0  0  0
 11 12  1  0  0  0  0
 11 13  1  0  0  0  0
 11 17  1  0  0  0  0
  9 10  1  0  0  0  0
  9 11  1  0  0  0  0
  9 24  1  0  0  0  0
  7  8  1  0  0  0  0
  7  9  1  0  0  0  0
 28 29  1  0  0  0  0
 28 30  1  0  0  0  0
 28 31  1  0  0  0  0
 26 27  1  0  0  0  0
 26 28  1  0  0  0  0
M  END
$$$$
default_name
  -OEChem-02102213163D

 31 30  0     1  0  0  0  0  0999 V2000
   -3.0760   -3.6390    1.5496 H   0  0  0  0  0  0  0  0  0  0  0  0
   -3.0940   -2.6290    1.1426 C   0  0  0  0  0  0  0  0  0  0  0  0
   -3.7160   -1.9930    1.7706 H   0  0  0  0  0  0  0  0  0  0  0  0
   -3.4880   -2.6500    0.1286 H   0  0  0  0  0  0  0  0  0  0  0  0
   -1.6860   -2.0850    1.1196 C   0  0  0  0  0  0  0  0  0  0  0  0
   -0.7540   -2.7700    1.5226 O   0  0  0  0  0  0  0  0  0  0  0  0
   -1.5320   -0.8490    0.6496 N   0  0  0  0  0  0  0  0  0  0  0  0
   -2.3500   -0.3360    0.3566 H   0  0  0  0  0  0  0  0  0  0  0  0
   -0.2470   -0.1410    0.5576 C   0  0  1  0  0  0  0  0  0  0  0  0
    0.4239   -0.7541   -0.0450 H   0  0  0  0  0  0  0  0  0  0  0  0
   -0.4317    1.2160   -0.1683 C   0  0  1  0  0  0  0  0  0  0  0  0
   -0.7148    1.9498    0.5887 H   0  0  0  0  0  0  0  0  0  0  0  0
    0.8670    1.7079   -0.8354 C   0  0  0  0  0  0  0  0  0  0  0  0
    1.1528    1.0454   -1.6544 H   0  0  0  0  0  0  0  0  0  0  0  0
    0.7343    2.7165   -1.2237 H   0  0  0  0  0  0  0  0  0  0  0  0
    1.6776    1.7359   -0.1064 H   0  0  0  0  0  0  0  0  0  0  0  0
   -1.5856    1.1434   -1.1934 C   0  0  0  0  0  0  0  0  0  0  0  0
   -2.4593    0.6754   -0.7378 H   0  0  0  0  0  0  0  0  0  0  0  0
   -1.8559    2.1570   -1.4894 H   0  0  0  0  0  0  0  0  0  0  0  0
   -1.2282    0.3733   -2.4718 C   0  0  0  0  0  0  0  0  0  0  0  0
   -1.0518   -0.6786   -2.2477 H   0  0  0  0  0  0  0  0  0  0  0  0
   -2.0567    0.4432   -3.1771 H   0  0  0  0  0  0  0  0  0  0  0  0
   -0.3364    0.8030   -2.9292 H   0  0  0  0  0  0  0  0  0  0  0  0
    0.3833   -0.0008    1.9525 C   0  0  0  0  0  0  0  0  0  0  0  0
    1.5803   -0.2304    2.1189 O   0  0  0  0  0  0  0  0  0  0  0  0
   -0.4170    0.3858    2.9541 N   0  0  0  0  0  0  0  0  0  0  0  0
   -1.3850    0.5669    2.7398 H   0  0  0  0  0  0  0  0  0  0  0  0
    0.0265    0.5600    4.3358 C   0  0  0  0  0  0  0  0  0  0  0  0
    0.8964    1.2200    4.3632 H   0  0  0  0  0  0  0  0  0  0  0  0
   -0.7726    0.9946    4.9382 H   0  0  0  0  0  0  0  0  0  0  0  0
    0.3119   -0.4069    4.7547 H   0  0  0  0  0  0  0  0  0  0  0  0
  5  6  2  0  0  0  0
  5  7  1  0  0  0  0
  2  3  1  0  0  0  0
  2  4  1  0  0  0  0
  2  5  1  0  0  0  0
  1  2  1  0  0  0  0
 24 25  2  0  0  0  0
 24 26  1  0  0  0  0
 20 21  1  0  0  0  0
 20 22  1  0  0  0  0
 20 23  1  0  0  0  0
 17 18  1  0  0  0  0
 17 19  1  0  0  0  0
 17 20  1  0  0  0  0
 13 14  1  0  0  0  0
 13 15  1  0  0  0  0
 13 16  1  0  0  0  0
 11 12  1  0  0  0  0
 11 13  1  0  0  0  0
 11 17  1  0  0  0  0
  9 10  1  0  0  0  0
  9 11  1  0  0  0  0
  9 24  1  0  0  0  0
  7  8  1  0  0  0  0
  7  9  1  0  0  0  0
 28 29  1  0  0  0  0
 28 30  1  0  0  0  0
 28 31  1  0  0  0  0
 26 27  1  0  0  0  0
 26 28  1  0  0  0  0
M  END
$$$$
default_name
  -OEChem-02102213163D

 31 30  0     1  0  0  0  0  0999 V2000
   -3.0760   -3.6390    1.5496 H   0  0  0  0  0  0  0  0  0  0  0  0
   -3.0940   -2.6290    1.1426 C   0  0  0  0  0  0  0  0  0  0  0  0
   -3.7160   -1.9930    1.7706 H   0  0  0  0  0  0  0  0  0  0  0  0
   -3.4880   -2.6500    0.1286 H   0  0  0  0  0  0  0  0  0  0  0  0
   -1.6860   -2.0850    1.1196 C   0  0  0  0  0  0  0  0  0  0  0  0
   -0.7540   -2.7700    1.5226 O   0  0  0  0  0  0  0  0  0  0  0  0
   -1.5320   -0.8490    0.6496 N   0  0  0  0  0  0  0  0  0  0  0  0
   -2.3500   -0.3360    0.3566 H   0  0  0  0  0  0  0  0  0  0  0  0
   -0.2470   -0.1410    0.5576 C   0  0  1  0  0  0  0  0  0  0  0  0
    0.4239   -0.7541   -0.0450 H   0  0  0  0  0  0  0  0  0  0  0  0
   -0.4317    1.2160   -0.1683 C   0  0  1  0  0  0  0  0  0  0  0  0
   -0.7148    1.9498    0.5887 H   0  0  0  0  0  0  0  0  0  0  0  0
    0.8670    1.7079   -0.8354 C   0  0  0  0  0  0  0  0  0  0  0  0
    1.1528    1.0454   -1.6544 H   0  0  0  0  0  0  0  0  0  0  0  0
    0.7343    2.7165   -1.2237 H   0  0  0  0  0  0  0  0  0  0  0  0
    1.6776    1.7359   -0.1064 H   0  0  0  0  0  0  0  0  0  0  0  0
   -1.5856    1.1434   -1.1934 C   0  0  0  0  0  0  0  0  0  0  0  0
   -2.5249    0.9288   -0.6819 H   0  0  0  0  0  0  0  0  0  0  0  0
   -1.6780    2.1111   -1.6864 H   0  0  0  0  0  0  0  0  0  0  0  0
   -1.3728    0.0901   -2.2890 C   0  0  0  0  0  0  0  0  0  0  0  0
   -1.3798   -0.9126   -1.8619 H   0  0  0  0  0  0  0  0  0  0  0  0
   -2.1800    0.1618   -3.0183 H   0  0  0  0  0  0  0  0  0  0  0  0
   -0.4223    0.2642   -2.7944 H   0  0  0  0  0  0  0  0  0  0  0  0
    0.3833   -0.0008    1.9525 C   0  0  0  0  0  0  0  0  0  0  0  0
    1.5803   -0.2304    2.1189 O   0  0  0  0  0  0  0  0  0  0  0  0
   -0.4170    0.3858    2.9541 N   0  0  0  0  0  0  0  0  0  0  0  0
   -1.3850    0.5669    2.7398 H   0  0  0  0  0  0  0  0  0  0  0  0
    0.0265    0.5600    4.3358 C   0  0  0  0  0  0  0  0  0  0  0  0
    0.8964    1.2200    4.3632 H   0  0  0  0  0  0  0  0  0  0  0  0
   -0.7726    0.9946    4.9382 H   0  0  0  0  0  0  0  0  0  0  0  0
    0.3119   -0.4069    4.7547 H   0  0  0  0  0  0  0  0  0  0  0  0
  5  6  2  0  0  0  0
  5  7  1  0  0  0  0
  2  3  1  0  0  0  0
  2  4  1  0  0  0  0
  2  5  1  0  0  0  0
  1  2  1  0  0  0  0
 24 25  2  0  0  0  0
 24 26  1  0  0  0  0
 20 21  1  0  0  0  0
 20 22  1  0  0  0  0
 20 23  1  0  0  0  0
 17 18  1  0  0  0  0
 17 19  1  0  0  0  0
 17 20  1  0  0  0  0
 13 14  1  0  0  0  0
 13 15  1  0  0  0  0
 13 16  1  0  0  0  0
 11 12  1  0  0  0  0
 11 13  1  0  0  0  0
 11 17  1  0  0  0  0
  9 10  1  0  0  0  0
  9 11  1  0  0  0  0
  9 24  1  0  0  0  0
  7  8  1  0  0  0  0
  7  9  1  0  0  0  0
 28 29  1  0  0  0  0
 28 30  1  0  0  0  0
 28 31  1  0  0  0  0
 26 27  1  0  0  0  0
 26 28  1  0  0  0  0
M  END
$$$$
default_name
  -OEChem-02102213163D

 31 30  0     1  0  0  0  0  0999 V2000
   -3.0760   -3.6390    1.5496 H   0  0  0  0  0  0  0  0  0  0  0  0
   -3.0940   -2.6290    1.1426 C   0  0  0  0  0  0  0  0  0  0  0  0
   -3.7160   -1.9930    1.7706 H   0  0  0  0  0  0  0  0  0  0  0  0
   -3.4880   -2.6500    0.1286 H   0  0  0  0  0  0  0  0  0  0  0  0
   -1.6860   -2.0850    1.1196 C   0  0  0  0  0  0  0  0  0  0  0  0
   -0.7540   -2.7700    1.5226 O   0  0  0  0  0  0  0  0  0  0  0  0
   -1.5320   -0.8490    0.6496 N   0  0  0  0  0  0  0  0  0  0  0  0
   -2.3500   -0.3360    0.3566 H   0  0  0  0  0  0  0  0  0  0  0  0
   -0.2470   -0.1410    0.5576 C   0  0  1  0  0  0  0  0  0  0  0  0
    0.4239   -0.7541   -0.0450 H   0  0  0  0  0  0  0  0  0  0  0  0
   -0.4317    1.2160   -0.1683 C   0  0  1  0  0  0  0  0  0  0  0  0
   -0.7148    1.9498    0.5887 H   0  0  0  0  0  0  0  0  0  0  0  0
    0.8670    1.7079   -0.8354 C   0  0  0  0  0  0  0  0  0  0  0  0
    1.1528    1.0454   -1.6544 H   0  0  0  0  0  0  0  0  0  0  0  0
    0.7343    2.7165   -1.2237 H   0  0  0  0  0  0  0  0  0  0  0  0
    1.6776    1.7359   -0.1064 H   0  0  0  0  0  0  0  0  0  0  0  0
   -1.5856    1.1434   -1.1934 C   0  0  0  0  0  0  0  0  0  0  0  0
   -2.5454    1.1957   -0.6777 H   0  0  0  0  0  0  0  0  0  0  0  0
   -1.5116    1.9982   -1.8657 H   0  0  0  0  0  0  0  0  0  0  0  0
   -1.5633   -0.1233   -2.0594 C   0  0  0  0  0  0  0  0  0  0  0  0
   -1.7416   -1.0077   -1.4479 H   0  0  0  0  0  0  0  0  0  0  0  0
   -2.3494   -0.0581   -2.8120 H   0  0  0  0  0  0  0  0  0  0  0  0
   -0.5994   -0.2154   -2.5611 H   0  0  0  0  0  0  0  0  0  0  0  0
    0.3833   -0.0008    1.9525 C   0  0  0  0  0  0  0  0  0  0  0  0
    1.5803   -0.2304    2.1189 O   0  0  0  0  0  0  0  0  0  0  0  0
   -0.4170    0.3858    2.9541 N   0  0  0  0  0  0  0  0  0  0  0  0
   -1.3850    0.5669    2.7398 H   0  0  0  0  0  0  0  0  0  0  0  0
    0.0265    0.5600    4.3358 C   0  0  0  0  0  0  0  0  0  0  0  0
    0.8964    1.2200    4.3632 H   0  0  0  0  0  0  0  0  0  0  0  0
   -0.7726    0.9946    4.9382 H   0  0  0  0  0  0  0  0  0  0  0  0
    0.3119   -0.4069    4.7547 H   0  0  0  0  0  0  0  0  0  0  0  0
  5  6  2  0  0  0  0
  5  7  1  0  0  0  0
  2  3  1  0  0  0  0
  2  4  1  0  0  0  0
  2  5  1  0  0  0  0
  1  2  1  0  0  0  0
 24 25  2  0  0  0  0
 24 26  1  0  0  0  0
 20 21  1  0  0  0  0
 20 22  1  0  0  0  0
 20 23  1  0  0  0  0
 17 18  1  0  0  0  0
 17 19  1  0  0  0  0
 17 20  1  0  0  0  0
 13 14  1  0  0  0  0
 13 15  1  0  0  0  0
 13 16  1  0  0  0  0
 11 12  1  0  0  0  0
 11 13  1  0  0  0  0
 11 17  1  0  0  0  0
  9 10  1  0  0  0  0
  9 11  1  0  0  0  0
  9 24  1  0  0  0  0
  7  8  1  0  0  0  0
  7  9  1  0  0  0  0
 28 29  1  0  0  0  0
 28 30  1  0  0  0  0
 28 31  1  0  0  0  0
 26 27  1  0  0  0  0
 26 28  1  0  0  0  0
M  END
$$$$
default_name
  -OEChem-02102213163D

 31 30  0     1  0  0  0  0  0999 V2000
   -3.0760   -3.6390    1.5496 H   0  0  0  0  0  0  0  0  0  0  0  0
   -3.0940   -2.6290    1.1426 C   0  0  0  0  0  0  0  0  0  0  0  0
   -3.7160   -1.9930    1.7706 H   0  0  0  0  0  0  0  0  0  0  0  0
   -3.4880   -2.6500    0.1286 H   0  0  0  0  0  0  0  0  0  0  0  0
   -1.6860   -2.0850    1.1196 C   0  0  0  0  0  0  0  0  0  0  0  0
   -0.7540   -2.7700    1.5226 O   0  0  0  0  0  0  0  0  0  0  0  0
   -1.5320   -0.8490    0.6496 N   0  0  0  0  0  0  0  0  0  0  0  0
   -2.3500   -0.3360    0.3566 H   0  0  0  0  0  0  0  0  0  0  0  0
   -0.2470   -0.1410    0.5576 C   0  0  1  0  0  0  0  0  0  0  0  0
    0.4239   -0.7541   -0.0450 H   0  0  0  0  0  0  0  0  0  0  0  0
   -0.4317    1.2160   -0.1683 C   0  0  1  0  0  0  0  0  0  0  0  0
   -0.7148    1.9498    0.5887 H   0  0  0  0  0  0  0  0  0  0  0  0
    0.8670    1.7079   -0.8354 C   0  0  0  0  0  0  0  0  0  0  0  0
    1.1528    1.0454   -1.6544 H   0  0  0  0  0  0  0  0  0  0  0  0
    0.7343    2.7165   -1.2237 H   0  0  0  0  0  0  0  0  0  0  0  0
    1.6776    1.7359   -0.1064 H   0  0  0  0  0  0  0  0  0  0  0  0
   -1.5856    1.1434   -1.1934 C   0  0  0  0  0  0  0  0  0  0  0  0
   -2.5194    1.4578   -0.7254 H   0  0  0  0  0  0  0  0  0  0  0  0
   -1.3682    1.8259   -2.0150 H   0  0  0  0  0  0  0  0  0  0  0  0
   -1.7868   -0.2524   -1.7988 C   0  0  0  0  0  0  0  0  0  0  0  0
   -2.1124   -0.9574   -1.0341 H   0  0  0  0  0  0  0  0  0  0  0  0
   -2.5533   -0.2016   -2.5724 H   0  0  0  0  0  0  0  0  0  0  0  0
   -0.8557   -0.6031   -2.2452 H   0  0  0  0  0  0  0  0  0  0  0  0
    0.3833   -0.0008    1.9525 C   0  0  0  0  0  0  0  0  0  0  0  0
    1.5803   -0.2304    2.1189 O   0  0  0  0  0  0  0  0  0  0  0  0
   -0.4170    0.3858    2.9541 N   0  0  0  0  0  0  0  0  0  0  0  0
   -1.3850    0.5669    2.7398 H   0  0  0  0  0  0  0  0  0  0  0  0
    0.0265    0.5600    4.3358 C   0  0  0  0  0  0  0  0  0  0  0  0
    0.8964    1.2200    4.3632 H   0  0  0  0  0  0  0  0  0  0  0  0
   -0.7726    0.9946    4.9382 H   0  0  0  0  0  0  0  0  0  0  0  0
    0.3119   -0.4069    4.7547 H   0  0  0  0  0  0  0  0  0  0  0  0
  5  6  2  0  0  0  0
  5  7  1  0  0  0  0
  2  3  1  0  0  0  0
  2  4  1  0  0  0  0
  2  5  1  0  0  0  0
  1  2  1  0  0  0  0
 24 25  2  0  0  0  0
 24 26  1  0  0  0  0
 20 21  1  0  0  0  0
 20 22  1  0  0  0  0
 20 23  1  0  0  0  0
 17 18  1  0  0  0  0
 17 19  1  0  0  0  0
 17 20  1  0  0  0  0
 13 14  1  0  0  0  0
 13 15  1  0  0  0  0
 13 16  1  0  0  0  0
 11 12  1  0  0  0  0
 11 13  1  0  0  0  0
 11 17  1  0  0  0  0
  9 10  1  0  0  0  0
  9 11  1  0  0  0  0
  9 24  1  0  0  0  0
  7  8  1  0  0  0  0
  7  9  1  0  0  0  0
 28 29  1  0  0  0  0
 28 30  1  0  0  0  0
 28 31  1  0  0  0  0
 26 27  1  0  0  0  0
 26 28  1  0  0  0  0
M  END
$$$$
default_name
  -OEChem-02102213163D

 31 30  0     1  0  0  0  0  0999 V2000
   -3.0760   -3.6390    1.5496 H   0  0  0  0  0  0  0  0  0  0  0  0
   -3.0940   -2.6290    1.1426 C   0  0  0  0  0  0  0  0  0  0  0  0
   -3.7160   -1.9930    1.7706 H   0  0  0  0  0  0  0  0  0  0  0  0
   -3.4880   -2.6500    0.1286 H   0  0  0  0  0  0  0  0  0  0  0  0
   -1.6860   -2.0850    1.1196 C   0  0  0  0  0  0  0  0  0  0  0  0
   -0.7540   -2.7700    1.5226 O   0  0  0  0  0  0  0  0  0  0  0  0
   -1.5320   -0.8490    0.6496 N   0  0  0  0  0  0  0  0  0  0  0  0
   -2.3500   -0.3360    0.3566 H   0  0  0  0  0  0  0  0  0  0  0  0
   -0.2470   -0.1410    0.5576 C   0  0  1  0  0  0  0  0  0  0  0  0
    0.4239   -0.7541   -0.0450 H   0  0  0  0  0  0  0  0  0  0  0  0
   -0.4317    1.2160   -0.1683 C   0  0  1  0  0  0  0  0  0  0  0  0
   -0.7148    1.9498    0.5887 H   0  0  0  0  0  0  0  0  0  0  0  0
    0.8670    1.7079   -0.8354 C   0  0  0  0  0  0  0  0  0  0  0  0
    1.1528    1.0454   -1.6544 H   0  0  0  0  0  0  0  0  0  0  0  0
    0.7343    2.7165   -1.2237 H   0  0  0  0  0  0  0  0  0  0  0  0
    1.6776    1.7359   -0.1064 H   0  0  0  0  0  0  0  0  0  0  0  0
   -1.5856    1.1434   -1.1934 C   0  0  0  0  0  0  0  0  0  0  0  0
   -2.4488    1.6973   -0.8219 H   0  0  0  0  0  0  0  0  0  0  0  0
   -1.2573    1.6059   -2.1242 H   0  0  0  0  0  0  0  0  0  0  0  0
   -2.0280   -0.2883   -1.5247 C   0  0  0  0  0  0  0  0  0  0  0  0
   -2.4669   -0.7652   -0.6486 H   0  0  0  0  0  0  0  0  0  0  0  0
   -2.7778   -0.2589   -2.3156 H   0  0  0  0  0  0  0  0  0  0  0  0
   -1.1736   -0.8726   -1.8682 H   0  0  0  0  0  0  0  0  0  0  0  0
    0.3833   -0.0008    1.9525 C   0  0  0  0  0  0  0  0  0  0  0  0
    1.5803   -0.2304    2.1189 O   0  0  0  0  0  0  0  0  0  0  0  0
   -0.4170    0.3858    2.9541 N   0  0  0  0  0  0  0  0  0  0  0  0
   -1.3850    0.5669    2.7398 H   0  0  0  0  0  0  0  0  0  0  0  0
    0.0265    0.5600    4.3358 C   0  0  0  0  0  0  0  0  0  0  0  0
    0.8964    1.2200    4.3632 H   0  0  0  0  0  0  0  0  0  0  0  0
   -0.7726    0.9946    4.9382 H   0  0  0  0  0  0  0  0  0  0  0  0
    0.3119   -0.4069    4.7547 H   0  0  0  0  0  0  0  0  0  0  0  0
  5  6  2  0  0  0  0
  5  7  1  0  0  0  0
  2  3  1  0  0  0  0
  2  4  1  0  0  0  0
  2  5  1  0  0  0  0
  1  2  1  0  0  0  0
 24 25  2  0  0  0  0
 24 26  1  0  0  0  0
 20 21  1  0  0  0  0
 20 22  1  0  0  0  0
 20 23  1  0  0  0  0
 17 18  1  0  0  0  0
 17 19  1  0  0  0  0
 17 20  1  0  0  0  0
 13 14  1  0  0  0  0
 13 15  1  0  0  0  0
 13 16  1  0  0  0  0
 11 12  1  0  0  0  0
 11 13  1  0  0  0  0
 11 17  1  0  0  0  0
  9 10  1  0  0  0  0
  9 11  1  0  0  0  0
  9 24  1  0  0  0  0
  7  8  1  0  0  0  0
  7  9  1  0  0  0  0
 28 29  1  0  0  0  0
 28 30  1  0  0  0  0
 28 31  1  0  0  0  0
 26 27  1  0  0  0  0
 26 28  1  0  0  0  0
M  END
$$$$
default_name
  -OEChem-02102213163D

 31 30  0     1  0  0  0  0  0999 V2000
   -3.0760   -3.6390    1.5496 H   0  0  0  0  0  0  0  0  0  0  0  0
   -3.0940   -2.6290    1.1426 C   0  0  0  0  0  0  0  0  0  0  0  0
   -3.7160   -1.9930    1.7706 H   0  0  0  0  0  0  0  0  0  0  0  0
   -3.4880   -2.6500    0.1286 H   0  0  0  0  0  0  0  0  0  0  0  0
   -1.6860   -2.0850    1.1196 C   0  0  0  0  0  0  0  0  0  0  0  0
   -0.7540   -2.7700    1.5226 O   0  0  0  0  0  0  0  0  0  0  0  0
   -1.5320   -0.8490    0.6496 N   0  0  0  0  0  0  0  0  0  0  0  0
   -2.3500   -0.3360    0.3566 H   0  0  0  0  0  0  0  0  0  0  0  0
   -0.2470   -0.1410    0.5576 C   0  0  1  0  0  0  0  0  0  0  0  0
    0.4239   -0.7541   -0.0450 H   0  0  0  0  0  0  0  0  0  0  0  0
   -0.4317    1.2160   -0.1683 C   0  0  1  0  0  0  0  0  0  0  0  0
   -0.7148    1.9498    0.5887 H   0  0  0  0  0  0  0  0  0  0  0  0
    0.8670    1.7079   -0.8354 C   0  0  0  0  0  0  0  0  0  0  0  0
    1.1528    1.0454   -1.6544 H   0  0  0  0  0  0  0  0  0  0  0  0
    0.7343    2.7165   -1.2237 H   0  0  0  0  0  0  0  0  0  0  0  0
    1.6776    1.7359   -0.1064 H   0  0  0  0  0  0  0  0  0  0  0  0
   -1.5856    1.1434   -1.1934 C   0  0  0  0  0  0  0  0  0  0  0  0
   -2.3383    1.8978   -0.9605 H   0  0  0  0  0  0  0  0  0  0  0  0
   -1.1867    1.3533   -2.1858 H   0  0  0  0  0  0  0  0  0  0  0  0
   -2.2704   -0.2286   -1.2561 C   0  0  0  0  0  0  0  0  0  0  0  0
   -2.7810   -0.4442   -0.3177 H   0  0  0  0  0  0  0  0  0  0  0  0
   -3.0076   -0.2260   -2.0592 H   0  0  0  0  0  0  0  0  0  0  0  0
   -1.5316   -1.0055   -1.4558 H   0  0  0  0  0  0  0  0  0  0  0  0
    0.3833   -0.0008    1.9525 C   0  0  0  0  0  0  0  0  0  0  0  0
    1.5803   -0.2304    2.1189 O   0  0  0  0  0  0  0  0  0  0  0  0
   -0.4170    0.3858    2.9541 N   0  0  0  0  0  0  0  0  0  0  0  0
   -1.3850    0.5669    2.7398 H   0  0  0  0  0  0  0  0  0  0  0  0
    0.0265    0.5600    4.3358 C   0  0  0  0  0  0  0  0  0  0  0  0
    0.8964    1.2200    4.3632 H   0  0  0  0  0  0  0  0  0  0  0  0
   -0.7726    0.9946    4.9382 H   0  0  0  0  0  0  0  0  0  0  0  0
    0.3119   -0.4069    4.7547 H   0  0  0  0  0  0  0  0  0  0  0  0
  5  6  2  0  0  0  0
  5  7  1  0  0  0  0
  2  3  1  0  0  0  0
  2  4  1  0  0  0  0
  2  5  1  0  0  0  0
  1  2  1  0  0  0  0
 24 25  2  0  0  0  0
 24 26  1  0  0  0  0
 20 21  1  0  0  0  0
 20 22  1  0  0  0  0
 20 23  1  0  0  0  0
 17 18  1  0  0  0  0
 17 19  1  0  0  0  0
 17 20  1  0  0  0  0
 13 14  1  0  0  0  0
 13 15  1  0  0  0  0
 13 16  1  0  0  0  0
 11 12  1  0  0  0  0
 11 13  1  0  0  0  0
 11 17  1  0  0  0  0
  9 10  1  0  0  0  0
  9 11  1  0  0  0  0
  9 24  1  0  0  0  0
  7  8  1  0  0  0  0
  7  9  1  0  0  0  0
 28 29  1  0  0  0  0
 28 30  1  0  0  0  0
 28 31  1  0  0  0  0
 26 27  1  0  0  0  0
 26 28  1  0  0  0  0
M  END
$$$$
default_name
  -OEChem-02102213163D

 31 30  0     1  0  0  0  0  0999 V2000
   -3.0760   -3.6390    1.5496 H   0  0  0  0  0  0  0  0  0  0  0  0
   -3.0940   -2.6290    1.1426 C   0  0  0  0  0  0  0  0  0  0  0  0
   -3.7160   -1.9930    1.7706 H   0  0  0  0  0  0  0  0  0  0  0  0
   -3.4880   -2.6500    0.1286 H   0  0  0  0  0  0  0  0  0  0  0  0
   -1.6860   -2.0850    1.1196 C   0  0  0  0  0  0  0  0  0  0  0  0
   -0.7540   -2.7700    1.5226 O   0  0  0  0  0  0  0  0  0  0  0  0
   -1.5320   -0.8490    0.6496 N   0  0  0  0  0  0  0  0  0  0  0  0
   -2.3500   -0.3360    0.3566 H   0  0  0  0  0  0  0  0  0  0  0  0
   -0.2470   -0.1410    0.5576 C   0  0  1  0  0  0  0  0  0  0  0  0
    0.4239   -0.7541   -0.0450 H   0  0  0  0  0  0  0  0  0  0  0  0
   -0.4317    1.2160   -0.1683 C   0  0  1  0  0  0  0  0  0  0  0  0
   -0.7148    1.9498    0.5887 H   0  0  0  0  0  0  0  0  0  0  0  0
    0.8670    1.7079   -0.8354 C   0  0  0  0  0  0  0  0  0  0  0  0
    1.1528    1.0454   -1.6544 H   0  0  0  0  0  0  0  0  0  0  0  0
    0.7343    2.7165   -1.2237 H   0  0  0  0  0  0  0  0  0  0  0  0
    1.6776    1.7359   -0.1064 H   0  0  0  0  0  0  0  0  0  0  0  0
   -1.5856    1.1434   -1.1934 C   0  0  0  0  0  0  0  0  0  0  0  0
   -2.1954    2.0458   -1.1318 H   0  0  0  0  0  0  0  0  0  0  0  0
   -1.1612    1.0853   -2.1956 H   0  0  0  0  0  0  0  0  0  0  0  0
   -2.4976   -0.0773   -1.0110 C   0  0  0  0  0  0  0  0  0  0  0  0
   -3.0334   -0.0162   -0.0639 H   0  0  0  0  0  0  0  0  0  0  0  0
   -3.2271   -0.1053   -1.8207 H   0  0  0  0  0  0  0  0  0  0  0  0
   -1.9052   -0.9926   -1.0362 H   0  0  0  0  0  0  0  0  0  0  0  0
    0.3833   -0.0008    1.9525 C   0  0  0  0  0  0  0  0  0  0  0  0
    1.5803   -0.2304    2.1189 O   0  0  0  0  0  0  0  0  0  0  0  0
   -0.4170    0.3858    2.9541 N   0  0  0  0  0  0  0  0  0  0  0  0
   -1.3850    0.5669    2.7398 H   0  0  0  0  0  0  0  0  0  0  0  0
    0.0265    0.5600    4.3358 C   0  0  0  0  0  0  0  0  0  0  0  0
    0.8964    1.2200    4.3632 H   0  0  0  0  0  0  0  0  0  0  0  0
   -0.7726    0.9946    4.9382 H   0  0  0  0  0  0  0  0  0  0  0  0
    0.3119   -0.4069    4.7547 H   0  0  0  0  0  0  0  0  0  0  0  0
  5  6  2  0  0  0  0
  5  7  1  0  0  0  0
  2  3  1  0  0  0  0
  2  4  1  0  0  0  0
  2  5  1  0  0  0  0
  1  2  1  0  0  0  0
 24 25  2  0  0  0  0
 24 26  1  0  0  0  0
 20 21  1  0  0  0  0
 20 22  1  0  0  0  0
 20 23  1  0  0  0  0
 17 18  1  0  0  0  0
 17 19  1  0  0  0  0
 17 20  1  0  0  0  0
 13 14  1  0  0  0  0
 13 15  1  0  0  0  0
 13 16  1  0  0  0  0
 11 12  1  0  0  0  0
 11 13  1  0  0  0  0
 11 17  1  0  0  0  0
  9 10  1  0  0  0  0
  9 11  1  0  0  0  0
  9 24  1  0  0  0  0
  7  8  1  0  0  0  0
  7  9  1  0  0  0  0
 28 29  1  0  0  0  0
 28 30  1  0  0  0  0
 28 31  1  0  0  0  0
 26 27  1  0  0  0  0
 26 28  1  0  0  0  0
M  END
$$$$
default_name
  -OEChem-02102213163D

 31 30  0     1  0  0  0  0  0999 V2000
   -3.0760   -3.6390    1.5496 H   0  0  0  0  0  0  0  0  0  0  0  0
   -3.0940   -2.6290    1.1426 C   0  0  0  0  0  0  0  0  0  0  0  0
   -3.7160   -1.9930    1.7706 H   0  0  0  0  0  0  0  0  0  0  0  0
   -3.4880   -2.6500    0.1286 H   0  0  0  0  0  0  0  0  0  0  0  0
   -1.6860   -2.0850    1.1196 C   0  0  0  0  0  0  0  0  0  0  0  0
   -0.7540   -2.7700    1.5226 O   0  0  0  0  0  0  0  0  0  0  0  0
   -1.5320   -0.8490    0.6496 N   0  0  0  0  0  0  0  0  0  0  0  0
   -2.3500   -0.3360    0.3566 H   0  0  0  0  0  0  0  0  0  0  0  0
   -0.2470   -0.1410    0.5576 C   0  0  1  0  0  0  0  0  0  0  0  0
    0.4239   -0.7541   -0.0450 H   0  0  0  0  0  0  0  0  0  0  0  0
   -0.4317    1.2160   -0.1683 C   0  0  1  0  0  0  0  0  0  0  0  0
   -0.7148    1.9498    0.5887 H   0  0  0  0  0  0  0  0  0  0  0  0
    0.8670    1.7079   -0.8354 C   0  0  0  0  0  0  0  0  0  0  0  0
    1.1528    1.0454   -1.6544 H   0  0  0  0  0  0  0  0  0  0  0  0
    0.7343    2.7165   -1.2237 H   0  0  0  0  0  0  0  0  0  0  0  0
    1.6776    1.7359   -0.1064 H   0  0  0  0  0  0  0  0  0  0  0  0
   -1.5856    1.1434   -1.1934 C   0  0  0  0  0  0  0  0  0  0  0  0
   -2.0299    2.1311   -1.3241 H   0  0  0  0  0  0  0  0  0  0  0  0
   -1.1824    0.8201   -2.1530 H   0  0  0  0  0  0  0  0  0  0  0  0
   -2.6940    0.1551   -0.8063 C   0  0  0  0  0  0  0  0  0  0  0  0
   -3.2067    0.4896    0.0954 H   0  0  0  0  0  0  0  0  0  0  0  0
   -3.4212    0.0951   -1.6164 H   0  0  0  0  0  0  0  0  0  0  0  0
   -2.2689   -0.8350   -0.6379 H   0  0  0  0  0  0  0  0  0  0  0  0
    0.3833   -0.0008    1.9525 C   0  0  0  0  0  0  0  0  0  0  0  0
    1.5803   -0.2304    2.1189 O   0  0  0  0  0  0  0  0  0  0  0  0
   -0.4170    0.3858    2.9541 N   0  0  0  0  0  0  0  0  0  0  0  0
   -1.3850    0.5669    2.7398 H   0  0  0  0  0  0  0  0  0  0  0  0
    0.0265    0.5600    4.3358 C   0  0  0  0  0  0  0  0  0  0  0  0
    0.8964    1.2200    4.3632 H   0  0  0  0  0  0  0  0  0  0  0  0
   -0.7726    0.9946    4.9382 H   0  0  0  0  0  0  0  0  0  0  0  0
    0.3119   -0.4069    4.7547 H   0  0  0  0  0  0  0  0  0  0  0  0
  5  6  2  0  0  0  0
  5  7  1  0  0  0  0
  2  3  1  0  0  0  0
  2  4  1  0  0  0  0
  2  5  1  0  0  0  0
  1  2  1  0  0  0  0
 24 25  2  0  0  0  0
 24 26  1  0  0  0  0
 20 21  1  0  0  0  0
 20 22  1  0  0  0  0
 20 23  1  0  0  0  0
 17 18  1  0  0  0  0
 17 19  1  0  0  0  0
 17 20  1  0  0  0  0
 13 14  1  0  0  0  0
 13 15  1  0  0  0  0
 13 16  1  0  0  0  0
 11 12  1  0  0  0  0
 11 13  1  0  0  0  0
 11 17  1  0  0  0  0
  9 10  1  0  0  0  0
  9 11  1  0  0  0  0
  9 24  1  0  0  0  0
  7  8  1  0  0  0  0
  7  9  1  0  0  0  0
 28 29  1  0  0  0  0
 28 30  1  0  0  0  0
 28 31  1  0  0  0  0
 26 27  1  0  0  0  0
 26 28  1  0  0  0  0
M  END
$$$$
default_name
  -OEChem-02102213163D

 31 30  0     1  0  0  0  0  0999 V2000
   -3.0760   -3.6390    1.5496 H   0  0  0  0  0  0  0  0  0  0  0  0
   -3.0940   -2.6290    1.1426 C   0  0  0  0  0  0  0  0  0  0  0  0
   -3.7160   -1.9930    1.7706 H   0  0  0  0  0  0  0  0  0  0  0  0
   -3.4880   -2.6500    0.1286 H   0  0  0  0  0  0  0  0  0  0  0  0
   -1.6860   -2.0850    1.1196 C   0  0  0  0  0  0  0  0  0  0  0  0
   -0.7540   -2.7700    1.5226 O   0  0  0  0  0  0  0  0  0  0  0  0
   -1.5320   -0.8490    0.6496 N   0  0  0  0  0  0  0  0  0  0  0  0
   -2.3500   -0.3360    0.3566 H   0  0  0  0  0  0  0  0  0  0  0  0
   -0.2470   -0.1410    0.5576 C   0  0  1  0  0  0  0  0  0  0  0  0
    0.4239   -0.7541   -0.0450 H   0  0  0  0  0  0  0  0  0  0  0  0
   -0.4317    1.2160   -0.1683 C   0  0  1  0  0  0  0  0  0  0  0  0
   -0.7148    1.9498    0.5887 H   0  0  0  0  0  0  0  0  0  0  0  0
    0.8670    1.7079   -0.8354 C   0  0  0  0  0  0  0  0  0  0  0  0
    1.1528    1.0454   -1.6544 H   0  0  0  0  0  0  0  0  0  0  0  0
    0.7343    2.7165   -1.2237 H   0  0  0  0  0  0  0  0  0  0  0  0
    1.6776    1.7359   -0.1064 H   0  0  0  0  0  0  0  0  0  0  0  0
   -1.5856    1.1434   -1.1934 C   0  0  0  0  0  0  0  0  0  0  0  0
   -1.8531    2.1478   -1.5243 H   0  0  0  0  0  0  0  0  0  0  0  0
   -1.2489    0.5759   -2.0608 H   0  0  0  0  0  0  0  0  0  0  0  0
   -2.8464    0.4529   -0.6559 C   0  0  0  0  0  0  0  0  0  0  0  0
   -3.2892    1.0387    0.1495 H   0  0  0  0  0  0  0  0  0  0  0  0
   -3.5768    0.3616   -1.4601 H   0  0  0  0  0  0  0  0  0  0  0  0
   -2.5981   -0.5432   -0.2880 H   0  0  0  0  0  0  0  0  0  0  0  0
    0.3833   -0.0008    1.9525 C   0  0  0  0  0  0  0  0  0  0  0  0
    1.5803   -0.2304    2.1189 O   0  0  0  0  0  0  0  0  0  0  0  0
   -0.4170    0.3858    2.9541 N   0  0  0  0  0  0  0  0  0  0  0  0
   -1.3850    0.5669    2.7398 H   0  0  0  0  0  0  0  0  0  0  0  0
    0.0265    0.5600    4.3358 C   0  0  0  0  0  0  0  0  0  0  0  0
    0.8964    1.2200    4.3632 H   0  0  0  0  0  0  0  0  0  0  0  0
   -0.7726    0.9946    4.9382 H   0  0  0  0  0  0  0  0  0  0  0  0
    0.3119   -0.4069    4.7547 H   0  0  0  0  0  0  0  0  0  0  0  0
  5  6  2  0  0  0  0
  5  7  1  0  0  0  0
  2  3  1  0  0  0  0
  2  4  1  0  0  0  0
  2  5  1  0  0  0  0
  1  2  1  0  0  0  0
 24 25  2  0  0  0  0
 24 26  1  0  0  0  0
 20 21  1  0  0  0  0
 20 22  1  0  0  0  0
 20 23  1  0  0  0  0
 17 18  1  0  0  0  0
 17 19  1  0  0  0  0
 17 20  1  0  0  0  0
 13 14  1  0  0  0  0
 13 15  1  0  0  0  0
 13 16  1  0  0  0  0
 11 12  1  0  0  0  0
 11 13  1  0  0  0  0
 11 17  1  0  0  0  0
  9 10  1  0  0  0  0
  9 11  1  0  0  0  0
  9 24  1  0  0  0  0
  7  8  1  0  0  0  0
  7  9  1  0  0  0  0
 28 29  1  0  0  0  0
 28 30  1  0  0  0  0
 28 31  1  0  0  0  0
 26 27  1  0  0  0  0
 26 28  1  0  0  0  0
M  END
$$$$
default_name
  -OEChem-02102213163D

 31 30  0     1  0  0  0  0  0999 V2000
   -3.0760   -3.6390    1.5496 H   0  0  0  0  0  0  0  0  0  0  0  0
   -3.0940   -2.6290    1.1426 C   0  0  0  0  0  0  0  0  0  0  0  0
   -3.7160   -1.9930    1.7706 H   0  0  0  0  0  0  0  0  0  0  0  0
   -3.4880   -2.6500    0.1286 H   0  0  0  0  0  0  0  0  0  0  0  0
   -1.6860   -2.0850    1.1196 C   0  0  0  0  0  0  0  0  0  0  0  0
   -0.7540   -2.7700    1.5226 O   0  0  0  0  0  0  0  0  0  0  0  0
   -1.5320   -0.8490    0.6496 N   0  0  0  0  0  0  0  0  0  0  0  0
   -2.3500   -0.3360    0.3566 H   0  0  0  0  0  0  0  0  0  0  0  0
   -0.2470   -0.1410    0.5576 C   0  0  1  0  0  0  0  0  0  0  0  0
    0.4239   -0.7541   -0.0450 H   0  0  0  0  0  0  0  0  0  0  0  0
   -0.4317    1.2160   -0.1683 C   0  0  1  0  0  0  0  0  0  0  0  0
   -0.7148    1.9498    0.5887 H   0  0  0  0  0  0  0  0  0  0  0  0
    0.8670    1.7079   -0.8354 C   0  0  0  0  0  0  0  0  0  0  0  0
    1.1528    1.0454   -1.6544 H   0  0  0  0  0  0  0  0  0  0  0  0
    0.7343    2.7165   -1.2237 H   0  0  0  0  0  0  0  0  0  0  0  0
    1.6776    1.7359   -0.1064 H   0  0  0  0  0  0  0  0  0  0  0  0
   -1.5856    1.1434   -1.1934 C   0  0  0  0  0  0  0  0  0  0  0  0
   -1.6770    2.0950   -1.7189 H   0  0  0  0  0  0  0  0  0  0  0  0
   -1.3562    0.3692   -1.9254 H   0  0  0  0  0  0  0  0  0  0  0  0
   -2.9442    0.7959   -0.5700 C   0  0  0  0  0  0  0  0  0  0  0  0
   -3.2753    1.5937    0.0945 H   0  0  0  0  0  0  0  0  0  0  0  0
   -3.6832    0.6758   -1.3625 H   0  0  0  0  0  0  0  0  0  0  0  0
   -2.8701   -0.1373   -0.0104 H   0  0  0  0  0  0  0  0  0  0  0  0
    0.3833   -0.0008    1.9525 C   0  0  0  0  0  0  0  0  0  0  0  0
    1.5803   -0.2304    2.1189 O   0  0  0  0  0  0  0  0  0  0  0  0
   -0.4170    0.3858    2.9541 N   0  0  0  0  0  0  0  0  0  0  0  0
   -1.3850    0.5669    2.7398 H   0  0  0  0  0  0  0  0  0  0  0  0
    0.0265    0.5600    4.3358 C   0  0  0  0  0  0  0  0  0  0  0  0
    0.8964    1.2200    4.3632 H   0  0  0  0  0  0  0  0  0  0  0  0
   -0.7726    0.9946    4.9382 H   0  0  0  0  0  0  0  0  0  0  0  0
    0.3119   -0.4069    4.7547 H   0  0  0  0  0  0  0  0  0  0  0  0
  5  6  2  0  0  0  0
  5  7  1  0  0  0  0
  2  3  1  0  0  0  0
  2  4  1  0  0  0  0
  2  5  1  0  0  0  0
  1  2  1  0  0  0  0
 24 25  2  0  0  0  0
 24 26  1  0  0  0  0
 20 21  1  0  0  0  0
 20 22  1  0  0  0  0
 20 23  1  0  0  0  0
 17 18  1  0  0  0  0
 17 19  1  0  0  0  0
 17 20  1  0  0  0  0
 13 14  1  0  0  0  0
 13 15  1  0  0  0  0
 13 16  1  0  0  0  0
 11 12  1  0  0  0  0
 11 13  1  0  0  0  0
 11 17  1  0  0  0  0
  9 10  1  0  0  0  0
  9 11  1  0  0  0  0
  9 24  1  0  0  0  0
  7  8  1  0  0  0  0
  7  9  1  0  0  0  0
 28 29  1  0  0  0  0
 28 30  1  0  0  0  0
 28 31  1  0  0  0  0
 26 27  1  0  0  0  0
 26 28  1  0  0  0  0
M  END
$$$$
default_name
  -OEChem-02102213163D

 31 30  0     1  0  0  0  0  0999 V2000
   -3.0760   -3.6390    1.5496 H   0  0  0  0  0  0  0  0  0  0  0  0
   -3.0940   -2.6290    1.1426 C   0  0  0  0  0  0  0  0  0  0  0  0
   -3.7160   -1.9930    1.7706 H   0  0  0  0  0  0  0  0  0  0  0  0
   -3.4880   -2.6500    0.1286 H   0  0  0  0  0  0  0  0  0  0  0  0
   -1.6860   -2.0850    1.1196 C   0  0  0  0  0  0  0  0  0  0  0  0
   -0.7540   -2.7700    1.5226 O   0  0  0  0  0  0  0  0  0  0  0  0
   -1.5320   -0.8490    0.6496 N   0  0  0  0  0  0  0  0  0  0  0  0
   -2.3500   -0.3360    0.3566 H   0  0  0  0  0  0  0  0  0  0  0  0
   -0.2470   -0.1410    0.5576 C   0  0  1  0  0  0  0  0  0  0  0  0
    0.4239   -0.7541   -0.0450 H   0  0  0  0  0  0  0  0  0  0  0  0
   -0.4317    1.2160   -0.1683 C   0  0  1  0  0  0  0  0  0  0  0  0
   -0.7148    1.9498    0.5887 H   0  0  0  0  0  0  0  0  0  0  0  0
    0.8670    1.7079   -0.8354 C   0  0  0  0  0  0  0  0  0  0  0  0
    1.1528    1.0454   -1.6544 H   0  0  0  0  0  0  0  0  0  0  0  0
    0.7343    2.7165   -1.2237 H   0  0  0  0  0  0  0  0  0  0  0  0
    1.6776    1.7359   -0.1064 H   0  0  0  0  0  0  0  0  0  0  0  0
   -1.5856    1.1434   -1.1934 C   0  0  0  0  0  0  0  0  0  0  0  0
   -1.5135    1.9761   -1.8944 H   0  0  0  0  0  0  0  0  0  0  0  0
   -1.4970    0.2141   -1.7560 H   0  0  0  0  0  0  0  0  0  0  0  0
   -2.9809    1.1605   -0.5545 C   0  0  0  0  0  0  0  0  0  0  0  0
   -3.1659    2.1168   -0.0656 H   0  0  0  0  0  0  0  0  0  0  0  0
   -3.7333    1.0165   -1.3303 H   0  0  0  0  0  0  0  0  0  0  0  0
   -3.0666    0.3552    0.1759 H   0  0  0  0  0  0  0  0  0  0  0  0
    0.3833   -0.0008    1.9525 C   0  0  0  0  0  0  0  0  0  0  0  0
    1.5803   -0.2304    2.1189 O   0  0  0  0  0  0  0  0  0  0  0  0
   -0.4170    0.3858    2.9541 N   0  0  0  0  0  0  0  0  0  0  0  0
   -1.3850    0.5669    2.7398 H   0  0  0  0  0  0  0  0  0  0  0  0
    0.0265    0.5600    4.3358 C   0  0  0  0  0  0  0  0  0  0  0  0
    0.8964    1.2200    4.3632 H   0  0  0  0  0  0  0  0  0  0  0  0
   -0.7726    0.9946    4.9382 H   0  0  0  0  0  0  0  0  0  0  0  0
    0.3119   -0.4069    4.7547 H   0  0  0  0  0  0  0  0  0  0  0  0
  5  6  2  0  0  0  0
  5  7  1  0  0  0  0
  2  3  1  0  0  0  0
  2  4  1  0  0  0  0
  2  5  1  0  0  0  0
  1  2  1  0  0  0  0
 24 25  2  0  0  0  0
 24 26  1  0  0  0  0
 20 21  1  0  0  0  0
 20 22  1  0  0  0  0
 20 23  1  0  0  0  0
 17 18  1  0  0  0  0
 17 19  1  0  0  0  0
 17 20  1  0  0  0  0
 13 14  1  0  0  0  0
 13 15  1  0  0  0  0
 13 16  1  0  0  0  0
 11 12  1  0  0  0  0
 11 13  1  0  0  0  0
 11 17  1  0  0  0  0
  9 10  1  0  0  0  0
  9 11  1  0  0  0  0
  9 24  1  0  0  0  0
  7  8  1  0  0  0  0
  7  9  1  0  0  0  0
 28 29  1  0  0  0  0
 28 30  1  0  0  0  0
 28 31  1  0  0  0  0
 26 27  1  0  0  0  0
 26 28  1  0  0  0  0
M  END
$$$$
default_name
  -OEChem-02102213163D

 31 30  0     1  0  0  0  0  0999 V2000
   -3.0760   -3.6390    1.5496 H   0  0  0  0  0  0  0  0  0  0  0  0
   -3.0940   -2.6290    1.1426 C   0  0  0  0  0  0  0  0  0  0  0  0
   -3.7160   -1.9930    1.7706 H   0  0  0  0  0  0  0  0  0  0  0  0
   -3.4880   -2.6500    0.1286 H   0  0  0  0  0  0  0  0  0  0  0  0
   -1.6860   -2.0850    1.1196 C   0  0  0  0  0  0  0  0  0  0  0  0
   -0.7540   -2.7700    1.5226 O   0  0  0  0  0  0  0  0  0  0  0  0
   -1.5320   -0.8490    0.6496 N   0  0  0  0  0  0  0  0  0  0  0  0
   -2.3500   -0.3360    0.3566 H   0  0  0  0  0  0  0  0  0  0  0  0
   -0.2470   -0.1410    0.5576 C   0  0  1  0  0  0  0  0  0  0  0  0
    0.4239   -0.7541   -0.0450 H   0  0  0  0  0  0  0  0  0  0  0  0
   -0.4317    1.2160   -0.1683 C   0  0  1  0  0  0  0  0  0  0  0  0
   -0.7148    1.9498    0.5887 H   0  0  0  0  0  0  0  0  0  0  0  0
    0.8670    1.7079   -0.8354 C   0  0  0  0  0  0  0  0  0  0  0  0
    1.1528    1.0454   -1.6544 H   0  0  0  0  0  0  0  0  0  0  0  0
    0.7343    2.7165   -1.2237 H   0  0  0  0  0  0  0  0  0  0  0  0
    1.6776    1.7359   -0.1064 H   0  0  0  0  0  0  0  0  0  0  0  0
   -1.5856    1.1434   -1.1934 C   0  0  0  0  0  0  0  0  0  0  0  0
   -1.3740    1.7993   -2.0390 H   0  0  0  0  0  0  0  0  0  0  0  0
   -1.6617    0.1213   -1.5640 H   0  0  0  0  0  0  0  0  0  0  0  0
   -2.9539    1.5220   -0.6105 C   0  0  0  0  0  0  0  0  0  0  0  0
   -2.9684    2.5723   -0.3201 H   0  0  0  0  0  0  0  0  0  0  0  0
   -3.7235    1.3604   -1.3656 H   0  0  0  0  0  0  0  0  0  0  0  0
   -3.1741    0.9006    0.2583 H   0  0  0  0  0  0  0  0  0  0  0  0
    0.3833   -0.0008    1.9525 C   0  0  0  0  0  0  0  0  0  0  0  0
    1.5803   -0.2304    2.1189 O   0  0  0  0  0  0  0  0  0  0  0  0
   -0.4170    0.3858    2.9541 N   0  0  0  0  0  0  0  0  0  0  0  0
   -1.3850    0.5669    2.7398 H   0  0  0  0  0  0  0  0  0  0  0  0
    0.0265    0.5600    4.3358 C   0  0  0  0  0  0  0  0  0  0  0  0
    0.8964    1.2200    4.3632 H   0  0  0  0  0  0  0  0  0  0  0  0
   -0.7726    0.9946    4.9382 H   0  0  0  0  0  0  0  0  0  0  0  0
    0.3119   -0.4069    4.7547 H   0  0  0  0  0  0  0  0  0  0  0  0
  5  6  2  0  0  0  0
  5  7  1  0  0  0  0
  2  3  1  0  0  0  0
  2  4  1  0  0  0  0
  2  5  1  0  0  0  0
  1  2  1  0  0  0  0
 24 25  2  0  0  0  0
 24 26  1  0  0  0  0
 20 21  1  0  0  0  0
 20 22  1  0  0  0  0
 20 23  1  0  0  0  0
 17 18  1  0  0  0  0
 17 19  1  0  0  0  0
 17 20  1  0  0  0  0
 13 14  1  0  0  0  0
 13 15  1  0  0  0  0
 13 16  1  0  0  0  0
 11 12  1  0  0  0  0
 11 13  1  0  0  0  0
 11 17  1  0  0  0  0
  9 10  1  0  0  0  0
  9 11  1  0  0  0  0
  9 24  1  0  0  0  0
  7  8  1  0  0  0  0
  7  9  1  0  0  0  0
 28 29  1  0  0  0  0
 28 30  1  0  0  0  0
 28 31  1  0  0  0  0
 26 27  1  0  0  0  0
 26 28  1  0  0  0  0
M  END
$$$$
default_name
  -OEChem-02102213163D

 31 30  0     1  0  0  0  0  0999 V2000
   -3.0760   -3.6390    1.5496 H   0  0  0  0  0  0  0  0  0  0  0  0
   -3.0940   -2.6290    1.1426 C   0  0  0  0  0  0  0  0  0  0  0  0
   -3.7160   -1.9930    1.7706 H   0  0  0  0  0  0  0  0  0  0  0  0
   -3.4880   -2.6500    0.1286 H   0  0  0  0  0  0  0  0  0  0  0  0
   -1.6860   -2.0850    1.1196 C   0  0  0  0  0  0  0  0  0  0  0  0
   -0.7540   -2.7700    1.5226 O   0  0  0  0  0  0  0  0  0  0  0  0
   -1.5320   -0.8490    0.6496 N   0  0  0  0  0  0  0  0  0  0  0  0
   -2.3500   -0.3360    0.3566 H   0  0  0  0  0  0  0  0  0  0  0  0
   -0.2470   -0.1410    0.5576 C   0  0  1  0  0  0  0  0  0  0  0  0
    0.4239   -0.7541   -0.0450 H   0  0  0  0  0  0  0  0  0  0  0  0
   -0.4317    1.2160   -0.1683 C   0  0  1  0  0  0  0  0  0  0  0  0
   -0.7148    1.9498    0.5887 H   0  0  0  0  0  0  0  0  0  0  0  0
    0.8670    1.7079   -0.8354 C   0  0  0  0  0  0  0  0  0  0  0  0
    1.1528    1.0454   -1.6544 H   0  0  0  0  0  0  0  0  0  0  0  0
    0.7343    2.7165   -1.2237 H   0  0  0  0  0  0  0  0  0  0  0  0
    1.6776    1.7359   -0.1064 H   0  0  0  0  0  0  0  0  0  0  0  0
   -1.5856    1.1434   -1.1934 C   0  0  0  0  0  0  0  0  0  0  0  0
   -1.2678    1.5765   -2.1428 H   0  0  0  0  0  0  0  0  0  0  0  0
   -1.8390    0.0969   -1.3627 H   0  0  0  0  0  0  0  0  0  0  0  0
   -2.8651    1.8557   -0.7341 C   0  0  0  0  0  0  0  0  0  0  0  0
   -2.6964    2.9292   -0.6516 H   0  0  0  0  0  0  0  0  0  0  0  0
   -3.6546    1.6841   -1.4661 H   0  0  0  0  0  0  0  0  0  0  0  0
   -3.1853    1.4619    0.2312 H   0  0  0  0  0  0  0  0  0  0  0  0
    0.3833   -0.0008    1.9525 C   0  0  0  0  0  0  0  0  0  0  0  0
    1.5803   -0.2304    2.1189 O   0  0  0  0  0  0  0  0  0  0  0  0
   -0.4170    0.3858    2.9541 N   0  0  0  0  0  0  0  0  0  0  0  0
   -1.3850    0.5669    2.7398 H   0  0  0  0  0  0  0  0  0  0  0  0
    0.0265    0.5600    4.3358 C   0  0  0  0  0  0  0  0  0  0  0  0
    0.8964    1.2200    4.3632 H   0  0  0  0  0  0  0  0  0  0  0  0
   -0.7726    0.9946    4.9382 H   0  0  0  0  0  0  0  0  0  0  0  0
    0.3119   -0.4069    4.7547 H   0  0  0  0  0  0  0  0  0  0  0  0
  5  6  2  0  0  0  0
  5  7  1  0  0  0  0
  2  3  1  0  0  0  0
  2  4  1  0  0  0  0
  2  5  1  0  0  0  0
  1  2  1  0  0  0  0
 24 25  2  0  0  0  0
 24 26  1  0  0  0  0
 20 21  1  0  0  0  0
 20 22  1  0  0  0  0
 20 23  1  0  0  0  0
 17 18  1  0  0  0  0
 17 19  1  0  0  0  0
 17 20  1  0  0  0  0
 13 14  1  0  0  0  0
 13 15  1  0  0  0  0
 13 16  1  0  0  0  0
 11 12  1  0  0  0  0
 11 13  1  0  0  0  0
 11 17  1  0  0  0  0
  9 10  1  0  0  0  0
  9 11  1  0  0  0  0
  9 24  1  0  0  0  0
  7  8  1  0  0  0  0
  7  9  1  0  0  0  0
 28 29  1  0  0  0  0
 28 30  1  0  0  0  0
 28 31  1  0  0  0  0
 26 27  1  0  0  0  0
 26 28  1  0  0  0  0
M  END
$$$$
default_name
  -OEChem-02102213163D

 31 30  0     1  0  0  0  0  0999 V2000
   -3.0760   -3.6390    1.5496 H   0  0  0  0  0  0  0  0  0  0  0  0
   -3.0940   -2.6290    1.1426 C   0  0  0  0  0  0  0  0  0  0  0  0
   -3.7160   -1.9930    1.7706 H   0  0  0  0  0  0  0  0  0  0  0  0
   -3.4880   -2.6500    0.1286 H   0  0  0  0  0  0  0  0  0  0  0  0
   -1.6860   -2.0850    1.1196 C   0  0  0  0  0  0  0  0  0  0  0  0
   -0.7540   -2.7700    1.5226 O   0  0  0  0  0  0  0  0  0  0  0  0
   -1.5320   -0.8490    0.6496 N   0  0  0  0  0  0  0  0  0  0  0  0
   -2.3500   -0.3360    0.3566 H   0  0  0  0  0  0  0  0  0  0  0  0
   -0.2470   -0.1410    0.5576 C   0  0  1  0  0  0  0  0  0  0  0  0
    0.4239   -0.7541   -0.0450 H   0  0  0  0  0  0  0  0  0  0  0  0
   -0.4317    1.2160   -0.1683 C   0  0  1  0  0  0  0  0  0  0  0  0
   -0.7148    1.9498    0.5887 H   0  0  0  0  0  0  0  0  0  0  0  0
    0.8670    1.7079   -0.8354 C   0  0  0  0  0  0  0  0  0  0  0  0
    1.1528    1.0454   -1.6544 H   0  0  0  0  0  0  0  0  0  0  0  0
    0.7343    2.7165   -1.2237 H   0  0  0  0  0  0  0  0  0  0  0  0
    1.6776    1.7359   -0.1064 H   0  0  0  0  0  0  0  0  0  0  0  0
   -1.5856    1.1434   -1.1934 C   0  0  0  0  0  0  0  0  0  0  0  0
   -1.2022    1.3231   -2.1987 H   0  0  0  0  0  0  0  0  0  0  0  0
   -2.0169    0.1428   -1.1656 H   0  0  0  0  0  0  0  0  0  0  0  0
   -2.7205    2.1389   -0.9169 C   0  0  0  0  0  0  0  0  0  0  0  0
   -2.3683    3.1632   -1.0374 H   0  0  0  0  0  0  0  0  0  0  0  0
   -3.5312    1.9655   -1.6249 H   0  0  0  0  0  0  0  0  0  0  0  0
   -3.0994    2.0006    0.0963 H   0  0  0  0  0  0  0  0  0  0  0  0
    0.3833   -0.0008    1.9525 C   0  0  0  0  0  0  0  0  0  0  0  0
    1.5803   -0.2304    2.1189 O   0  0  0  0  0  0  0  0  0  0  0  0
   -0.4170    0.3858    2.9541 N   0  0  0  0  0  0  0  0  0  0  0  0
   -1.3850    0.5669    2.7398 H   0  0  0  0  0  0  0  0  0  0  0  0
    0.0265    0.5600    4.3358 C   0  0  0  0  0  0  0  0  0  0  0  0
    0.8964    1.2200    4.3632 H   0  0  0  0  0  0  0  0  0  0  0  0
   -0.7726    0.9946    4.9382 H   0  0  0  0  0  0  0  0  0  0  0  0
    0.3119   -0.4069    4.7547 H   0  0  0  0  0  0  0  0  0  0  0  0
  5  6  2  0  0  0  0
  5  7  1  0  0  0  0
  2  3  1  0  0  0  0
  2  4  1  0  0  0  0
  2  5  1  0  0  0  0
  1  2  1  0  0  0  0
 24 25  2  0  0  0  0
 24 26  1  0  0  0  0
 20 21  1  0  0  0  0
 20 22  1  0  0  0  0
 20 23  1  0  0  0  0
 17 18  1  0  0  0  0
 17 19  1  0  0  0  0
 17 20  1  0  0  0  0
 13 14  1  0  0  0  0
 13 15  1  0  0  0  0
 13 16  1  0  0  0  0
 11 12  1  0  0  0  0
 11 13  1  0  0  0  0
 11 17  1  0  0  0  0
  9 10  1  0  0  0  0
  9 11  1  0  0  0  0
  9 24  1  0  0  0  0
  7  8  1  0  0  0  0
  7  9  1  0  0  0  0
 28 29  1  0  0  0  0
 28 30  1  0  0  0  0
 28 31  1  0  0  0  0
 26 27  1  0  0  0  0
 26 28  1  0  0  0  0
M  END
$$$$
default_name
  -OEChem-02102213163D

 31 30  0     1  0  0  0  0  0999 V2000
   -3.0760   -3.6390    1.5496 H   0  0  0  0  0  0  0  0  0  0  0  0
   -3.0940   -2.6290    1.1426 C   0  0  0  0  0  0  0  0  0  0  0  0
   -3.7160   -1.9930    1.7706 H   0  0  0  0  0  0  0  0  0  0  0  0
   -3.4880   -2.6500    0.1286 H   0  0  0  0  0  0  0  0  0  0  0  0
   -1.6860   -2.0850    1.1196 C   0  0  0  0  0  0  0  0  0  0  0  0
   -0.7540   -2.7700    1.5226 O   0  0  0  0  0  0  0  0  0  0  0  0
   -1.5320   -0.8490    0.6496 N   0  0  0  0  0  0  0  0  0  0  0  0
   -2.3500   -0.3360    0.3566 H   0  0  0  0  0  0  0  0  0  0  0  0
   -0.2470   -0.1410    0.5576 C   0  0  1  0  0  0  0  0  0  0  0  0
    0.4239   -0.7541   -0.0450 H   0  0  0  0  0  0  0  0  0  0  0  0
   -0.4317    1.2160   -0.1683 C   0  0  1  0  0  0  0  0  0  0  0  0
   -0.7148    1.9498    0.5887 H   0  0  0  0  0  0  0  0  0  0  0  0
    0.8670    1.7079   -0.8354 C   0  0  0  0  0  0  0  0  0  0  0  0
    1.1528    1.0454   -1.6544 H   0  0  0  0  0  0  0  0  0  0  0  0
    0.7343    2.7165   -1.2237 H   0  0  0  0  0  0  0  0  0  0  0  0
    1.6776    1.7359   -0.1064 H   0  0  0  0  0  0  0  0  0  0  0  0
   -1.5856    1.1434   -1.1934 C   0  0  0  0  0  0  0  0  0  0  0  0
   -1.1817    1.0563   -2.2029 H   0  0  0  0  0  0  0  0  0  0  0  0
   -2.1833    0.2558   -0.9863 H   0  0  0  0  0  0  0  0  0  0  0  0
   -2.5299    2.3523   -1.1465 C   0  0  0  0  0  0  0  0  0  0  0  0
   -2.0066    3.2583   -1.4514 H   0  0  0  0  0  0  0  0  0  0  0  0
   -3.3618    2.1854   -1.8311 H   0  0  0  0  0  0  0  0  0  0  0  0
   -2.9222    2.4802   -0.1370 H   0  0  0  0  0  0  0  0  0  0  0  0
    0.3833   -0.0008    1.9525 C   0  0  0  0  0  0  0  0  0  0  0  0
    1.5803   -0.2304    2.1189 O   0  0  0  0  0  0  0  0  0  0  0  0
   -0.4170    0.3858    2.9541 N   0  0  0  0  0  0  0  0  0  0  0  0
   -1.3850    0.5669    2.7398 H   0  0  0  0  0  0  0  0  0  0  0  0
    0.0265    0.5600    4.3358 C   0  0  0  0  0  0  0  0  0  0  0  0
    0.8964    1.2200    4.3632 H   0  0  0  0  0  0  0  0  0  0  0  0
   -0.7726    0.9946    4.9382 H   0  0  0  0  0  0  0  0  0  0  0  0
    0.3119   -0.4069    4.7547 H   0  0  0  0  0  0  0  0  0  0  0  0
  5  6  2  0  0  0  0
  5  7  1  0  0  0  0
  2  3  1  0  0  0  0
  2  4  1  0  0  0  0
  2  5  1  0  0  0  0
  1  2  1  0  0  0  0
 24 25  2  0  0  0  0
 24 26  1  0  0  0  0
 20 21  1  0  0  0  0
 20 22  1  0  0  0  0
 20 23  1  0  0  0  0
 17 18  1  0  0  0  0
 17 19  1  0  0  0  0
 17 20  1  0  0  0  0
 13 14  1  0  0  0  0
 13 15  1  0  0  0  0
 13 16  1  0  0  0  0
 11 12  1  0  0  0  0
 11 13  1  0  0  0  0
 11 17  1  0  0  0  0
  9 10  1  0  0  0  0
  9 11  1  0  0  0  0
  9 24  1  0  0  0  0
  7  8  1  0  0  0  0
  7  9  1  0  0  0  0
 28 29  1  0  0  0  0
 28 30  1  0  0  0  0
 28 31  1  0  0  0  0
 26 27  1  0  0  0  0
 26 28  1  0  0  0  0
M  END
$$$$
default_name
  -OEChem-02102213163D

 31 30  0     1  0  0  0  0  0999 V2000
   -3.0760   -3.6390    1.5496 H   0  0  0  0  0  0  0  0  0  0  0  0
   -3.0940   -2.6290    1.1426 C   0  0  0  0  0  0  0  0  0  0  0  0
   -3.7160   -1.9930    1.7706 H   0  0  0  0  0  0  0  0  0  0  0  0
   -3.4880   -2.6500    0.1286 H   0  0  0  0  0  0  0  0  0  0  0  0
   -1.6860   -2.0850    1.1196 C   0  0  0  0  0  0  0  0  0  0  0  0
   -0.7540   -2.7700    1.5226 O   0  0  0  0  0  0  0  0  0  0  0  0
   -1.5320   -0.8490    0.6496 N   0  0  0  0  0  0  0  0  0  0  0  0
   -2.3500   -0.3360    0.3566 H   0  0  0  0  0  0  0  0  0  0  0  0
   -0.2470   -0.1410    0.5576 C   0  0  1  0  0  0  0  0  0  0  0  0
    0.4239   -0.7541   -0.0450 H   0  0  0  0  0  0  0  0  0  0  0  0
   -0.4317    1.2160   -0.1683 C   0  0  1  0  0  0  0  0  0  0  0  0
   -0.7148    1.9498    0.5887 H   0  0  0  0  0  0  0  0  0  0  0  0
    0.8670    1.7079   -0.8354 C   0  0  0  0  0  0  0  0  0  0  0  0
    1.1528    1.0454   -1.6544 H   0  0  0  0  0  0  0  0  0  0  0  0
    0.7343    2.7165   -1.2237 H   0  0  0  0  0  0  0  0  0  0  0  0
    1.6776    1.7359   -0.1064 H   0  0  0  0  0  0  0  0  0  0  0  0
   -1.5856    1.1434   -1.1934 C   0  0  0  0  0  0  0  0  0  0  0  0
   -1.2076    0.7942   -2.1552 H   0  0  0  0  0  0  0  0  0  0  0  0
   -2.3268    0.4281   -0.8370 H   0  0  0  0  0  0  0  0  0  0  0  0
   -2.3065    2.4813   -1.4071 C   0  0  0  0  0  0  0  0  0  0  0  0
   -1.6358    3.2080   -1.8652 H   0  0  0  0  0  0  0  0  0  0  0  0
   -3.1579    2.3289   -2.0708 H   0  0  0  0  0  0  0  0  0  0  0  0
   -2.6660    2.8680   -0.4529 H   0  0  0  0  0  0  0  0  0  0  0  0
    0.3833   -0.0008    1.9525 C   0  0  0  0  0  0  0  0  0  0  0  0
    1.5803   -0.2304    2.1189 O   0  0  0  0  0  0  0  0  0  0  0  0
   -0.4170    0.3858    2.9541 N   0  0  0  0  0  0  0  0  0  0  0  0
   -1.3850    0.5669    2.7398 H   0  0  0  0  0  0  0  0  0  0  0  0
    0.0265    0.5600    4.3358 C   0  0  0  0  0  0  0  0  0  0  0  0
    0.8964    1.2200    4.3632 H   0  0  0  0  0  0  0  0  0  0  0  0
   -0.7726    0.9946    4.9382 H   0  0  0  0  0  0  0  0  0  0  0  0
    0.3119   -0.4069    4.7547 H   0  0  0  0  0  0  0  0  0  0  0  0
  5  6  2  0  0  0  0
  5  7  1  0  0  0  0
  2  3  1  0  0  0  0
  2  4  1  0  0  0  0
  2  5  1  0  0  0  0
  1  2  1  0  0  0  0
 24 25  2  0  0  0  0
 24 26  1  0  0  0  0
 20 21  1  0  0  0  0
 20 22  1  0  0  0  0
 20 23  1  0  0  0  0
 17 18  1  0  0  0  0
 17 19  1  0  0  0  0
 17 20  1  0  0  0  0
 13 14  1  0  0  0  0
 13 15  1  0  0  0  0
 13 16  1  0  0  0  0
 11 12  1  0  0  0  0
 11 13  1  0  0  0  0
 11 17  1  0  0  0  0
  9 10  1  0  0  0  0
  9 11  1  0  0  0  0
  9 24  1  0  0  0  0
  7  8  1  0  0  0  0
  7  9  1  0  0  0  0
 28 29  1  0  0  0  0
 28 30  1  0  0  0  0
 28 31  1  0  0  0  0
 26 27  1  0  0  0  0
 26 28  1  0  0  0  0
M  END
$$$$
default_name
  -OEChem-02102213163D

 31 30  0     1  0  0  0  0  0999 V2000
   -3.0760   -3.6390    1.5496 H   0  0  0  0  0  0  0  0  0  0  0  0
   -3.0940   -2.6290    1.1426 C   0  0  0  0  0  0  0  0  0  0  0  0
   -3.7160   -1.9930    1.7706 H   0  0  0  0  0  0  0  0  0  0  0  0
   -3.4880   -2.6500    0.1286 H   0  0  0  0  0  0  0  0  0  0  0  0
   -1.6860   -2.0850    1.1196 C   0  0  0  0  0  0  0  0  0  0  0  0
   -0.7540   -2.7700    1.5226 O   0  0  0  0  0  0  0  0  0  0  0  0
   -1.5320   -0.8490    0.6496 N   0  0  0  0  0  0  0  0  0  0  0  0
   -2.3500   -0.3360    0.3566 H   0  0  0  0  0  0  0  0  0  0  0  0
   -0.2470   -0.1410    0.5576 C   0  0  1  0  0  0  0  0  0  0  0  0
    0.4239   -0.7541   -0.0450 H   0  0  0  0  0  0  0  0  0  0  0  0
   -0.4317    1.2160   -0.1683 C   0  0  1  0  0  0  0  0  0  0  0  0
   -0.7148    1.9498    0.5887 H   0  0  0  0  0  0  0  0  0  0  0  0
    0.8670    1.7079   -0.8354 C   0  0  0  0  0  0  0  0  0  0  0  0
    1.1528    1.0454   -1.6544 H   0  0  0  0  0  0  0  0  0  0  0  0
    0.7343    2.7165   -1.2237 H   0  0  0  0  0  0  0  0  0  0  0  0
    1.6776    1.7359   -0.1064 H   0  0  0  0  0  0  0  0  0  0  0  0
   -1.5856    1.1434   -1.1934 C   0  0  0  0  0  0  0  0  0  0  0  0
   -1.2783    0.5547   -2.0587 H   0  0  0  0  0  0  0  0  0  0  0  0
   -2.4376    0.6481   -0.7278 H   0  0  0  0  0  0  0  0  0  0  0  0
   -2.0653    2.5172   -1.6811 C   0  0  0  0  0  0  0  0  0  0  0  0
   -1.2813    3.0158   -2.2507 H   0  0  0  0  0  0  0  0  0  0  0  0
   -2.9334    2.3862   -2.3276 H   0  0  0  0  0  0  0  0  0  0  0  0
   -2.3480    3.1375   -0.8299 H   0  0  0  0  0  0  0  0  0  0  0  0
    0.3833   -0.0008    1.9525 C   0  0  0  0  0  0  0  0  0  0  0  0
    1.5803   -0.2304    2.1189 O   0  0  0  0  0  0  0  0  0  0  0  0
   -0.4170    0.3858    2.9541 N   0  0  0  0  0  0  0  0  0  0  0  0
   -1.3850    0.5669    2.7398 H   0  0  0  0  0  0  0  0  0  0  0  0
    0.0265    0.5600    4.3358 C   0  0  0  0  0  0  0  0  0  0  0  0
    0.8964    1.2200    4.3632 H   0  0  0  0  0  0  0  0  0  0  0  0
   -0.7726    0.9946    4.9382 H   0  0  0  0  0  0  0  0  0  0  0  0
    0.3119   -0.4069    4.7547 H   0  0  0  0  0  0  0  0  0  0  0  0
  5  6  2  0  0  0  0
  5  7  1  0  0  0  0
  2  3  1  0  0  0  0
  2  4  1  0  0  0  0
  2  5  1  0  0  0  0
  1  2  1  0  0  0  0
 24 25  2  0  0  0  0
 24 26  1  0  0  0  0
 20 21  1  0  0  0  0
 20 22  1  0  0  0  0
 20 23  1  0  0  0  0
 17 18  1  0  0  0  0
 17 19  1  0  0  0  0
 17 20  1  0  0  0  0
 13 14  1  0  0  0  0
 13 15  1  0  0  0  0
 13 16  1  0  0  0  0
 11 12  1  0  0  0  0
 11 13  1  0  0  0  0
 11 17  1  0  0  0  0
  9 10  1  0  0  0  0
  9 11  1  0  0  0  0
  9 24  1  0  0  0  0
  7  8  1  0  0  0  0
  7  9  1  0  0  0  0
 28 29  1  0  0  0  0
 28 30  1  0  0  0  0
 28 31  1  0  0  0  0
 26 27  1  0  0  0  0
 26 28  1  0  0  0  0
M  END
$$$$
default_name
  -OEChem-02102213163D

 31 30  0     1  0  0  0  0  0999 V2000
   -3.0760   -3.6390    1.5496 H   0  0  0  0  0  0  0  0  0  0  0  0
   -3.0940   -2.6290    1.1426 C   0  0  0  0  0  0  0  0  0  0  0  0
   -3.7160   -1.9930    1.7706 H   0  0  0  0  0  0  0  0  0  0  0  0
   -3.4880   -2.6500    0.1286 H   0  0  0  0  0  0  0  0  0  0  0  0
   -1.6860   -2.0850    1.1196 C   0  0  0  0  0  0  0  0  0  0  0  0
   -0.7540   -2.7700    1.5226 O   0  0  0  0  0  0  0  0  0  0  0  0
   -1.5320   -0.8490    0.6496 N   0  0  0  0  0  0  0  0  0  0  0  0
   -2.3500   -0.3360    0.3566 H   0  0  0  0  0  0  0  0  0  0  0  0
   -0.2470   -0.1410    0.5576 C   0  0  1  0  0  0  0  0  0  0  0  0
    0.4239   -0.7541   -0.0450 H   0  0  0  0  0  0  0  0  0  0  0  0
   -0.4317    1.2160   -0.1683 C   0  0  1  0  0  0  0  0  0  0  0  0
   -0.4460    1.9921    0.5993 H   0  0  0  0  0  0  0  0  0  0  0  0
    0.7288    1.5307   -1.1315 C   0  0  0  0  0  0  0  0  0  0  0  0
    0.7400    0.8240   -1.9632 H   0  0  0  0  0  0  0  0  0  0  0  0
    0.6305    2.5413   -1.5248 H   0  0  0  0  0  0  0  0  0  0  0  0
    1.6821    1.4696   -0.6053 H   0  0  0  0  0  0  0  0  0  0  0  0
   -1.7896    1.2707   -0.9036 C   0  0  0  0  0  0  0  0  0  0  0  0
   -1.8583    0.4509   -1.6198 H   0  0  0  0  0  0  0  0  0  0  0  0
   -2.5893    1.1539   -0.1723 H   0  0  0  0  0  0  0  0  0  0  0  0
   -2.0371    2.5912   -1.6455 C   0  0  0  0  0  0  0  0  0  0  0  0
   -1.3266    2.7092   -2.4634 H   0  0  0  0  0  0  0  0  0  0  0  0
   -3.0454    2.5870   -2.0602 H   0  0  0  0  0  0  0  0  0  0  0  0
   -1.9413    3.4303   -0.9556 H   0  0  0  0  0  0  0  0  0  0  0  0
    0.3833   -0.0008    1.9525 C   0  0  0  0  0  0  0  0  0  0  0  0
    1.5803   -0.2304    2.1189 O   0  0  0  0  0  0  0  0  0  0  0  0
   -0.4170    0.3858    2.9541 N   0  0  0  0  0  0  0  0  0  0  0  0
   -1.3850    0.5669    2.7398 H   0  0  0  0  0  0  0  0  0  0  0  0
    0.0265    0.5600    4.3358 C   0  0  0  0  0  0  0  0  0  0  0  0
    0.8964    1.2200    4.3632 H   0  0  0  0  0  0  0  0  0  0  0  0
   -0.7726    0.9946    4.9382 H   0  0  0  0  0  0  0  0  0  0  0  0
    0.3119   -0.4069    4.7547 H   0  0  0  0  0  0  0  0  0  0  0  0
  5  6  2  0  0  0  0
  5  7  1  0  0  0  0
  2  3  1  0  0  0  0
  2  4  1  0  0  0  0
  2  5  1  0  0  0  0
  1  2  1  0  0  0  0
 24 25  2  0  0  0  0
 24 26  1  0  0  0  0
 20 21  1  0  0  0  0
 20 22  1  0  0  0  0
 20 23  1  0  0  0  0
 17 18  1  0  0  0  0
 17 19  1  0  0  0  0
 17 20  1  0  0  0  0
 13 14  1  0  0  0  0
 13 15  1  0  0  0  0
 13 16  1  0  0  0  0
 11 12  1  0  0  0  0
 11 13  1  0  0  0  0
 11 17  1  0  0  0  0
  9 10  1  0  0  0  0
  9 11  1  0  0  0  0
  9 24  1  0  0  0  0
  7  8  1  0  0  0  0
  7  9  1  0  0  0  0
 28 29  1  0  0  0  0
 28 30  1  0  0  0  0
 28 31  1  0  0  0  0
 26 27  1  0  0  0  0
 26 28  1  0  0  0  0
M  END
$$$$
default_name
  -OEChem-02102213163D

 31 30  0     1  0  0  0  0  0999 V2000
   -3.0760   -3.6390    1.5496 H   0  0  0  0  0  0  0  0  0  0  0  0
   -3.0940   -2.6290    1.1426 C   0  0  0  0  0  0  0  0  0  0  0  0
   -3.7160   -1.9930    1.7706 H   0  0  0  0  0  0  0  0  0  0  0  0
   -3.4880   -2.6500    0.1286 H   0  0  0  0  0  0  0  0  0  0  0  0
   -1.6860   -2.0850    1.1196 C   0  0  0  0  0  0  0  0  0  0  0  0
   -0.7540   -2.7700    1.5226 O   0  0  0  0  0  0  0  0  0  0  0  0
   -1.5320   -0.8490    0.6496 N   0  0  0  0  0  0  0  0  0  0  0  0
   -2.3500   -0.3360    0.3566 H   0  0  0  0  0  0  0  0  0  0  0  0
   -0.2470   -0.1410    0.5576 C   0  0  1  0  0  0  0  0  0  0  0  0
    0.4239   -0.7541   -0.0450 H   0  0  0  0  0  0  0  0  0  0  0  0
   -0.4317    1.2160   -0.1683 C   0  0  1  0  0  0  0  0  0  0  0  0
   -0.4460    1.9921    0.5993 H   0  0  0  0  0  0  0  0  0  0  0  0
    0.7288    1.5307   -1.1315 C   0  0  0  0  0  0  0  0  0  0  0  0
    0.7400    0.8240   -1.9632 H   0  0  0  0  0  0  0  0  0  0  0  0
    0.6305    2.5413   -1.5248 H   0  0  0  0  0  0  0  0  0  0  0  0
    1.6821    1.4696   -0.6053 H   0  0  0  0  0  0  0  0  0  0  0  0
   -1.7896    1.2707   -0.9036 C   0  0  0  0  0  0  0  0  0  0  0  0
   -1.9747    0.3248   -1.4144 H   0  0  0  0  0  0  0  0  0  0  0  0
   -2.5802    1.4231   -0.1690 H   0  0  0  0  0  0  0  0  0  0  0  0
   -1.8913    2.4087   -1.9283 C   0  0  0  0  0  0  0  0  0  0  0  0
   -1.1910    2.2488   -2.7479 H   0  0  0  0  0  0  0  0  0  0  0  0
   -2.9020    2.4358   -2.3362 H   0  0  0  0  0  0  0  0  0  0  0  0
   -1.6777    3.3639   -1.4474 H   0  0  0  0  0  0  0  0  0  0  0  0
    0.3833   -0.0008    1.9525 C   0  0  0  0  0  0  0  0  0  0  0  0
    1.5803   -0.2304    2.1189 O   0  0  0  0  0  0  0  0  0  0  0  0
   -0.4170    0.3858    2.9541 N   0  0  0  0  0  0  0  0  0  0  0  0
   -1.3850    0.5669    2.7398 H   0  0  0  0  0  0  0  0  0  0  0  0
    0.0265    0.5600    4.3358 C   0  0  0  0  0  0  0  0  0  0  0  0
    0.8964    1.2200    4.3632 H   0  0  0  0  0  0  0  0  0  0  0  0
   -0.7726    0.9946    4.9382 H   0  0  0  0  0  0  0  0  0  0  0  0
    0.3119   -0.4069    4.7547 H   0  0  0  0  0  0  0  0  0  0  0  0
  5  6  2  0  0  0  0
  5  7  1  0  0  0  0
  2  3  1  0  0  0  0
  2  4  1  0  0  0  0
  2  5  1  0  0  0  0
  1  2  1  0  0  0  0
 24 25  2  0  0  0  0
 24 26  1  0  0  0  0
 20 21  1  0  0  0  0
 20 22  1  0  0  0  0
 20 23  1  0  0  0  0
 17 18  1  0  0  0  0
 17 19  1  0  0  0  0
 17 20  1  0  0  0  0
 13 14  1  0  0  0  0
 13 15  1  0  0  0  0
 13 16  1  0  0  0  0
 11 12  1  0  0  0  0
 11 13  1  0  0  0  0
 11 17  1  0  0  0  0
  9 10  1  0  0  0  0
  9 11  1  0  0  0  0
  9 24  1  0  0  0  0
  7  8  1  0  0  0  0
  7  9  1  0  0  0  0
 28 29  1  0  0  0  0
 28 30  1  0  0  0  0
 28 31  1  0  0  0  0
 26 27  1  0  0  0  0
 26 28  1  0  0  0  0
M  END
$$$$
default_name
  -OEChem-02102213163D

 31 30  0     1  0  0  0  0  0999 V2000
   -3.0760   -3.6390    1.5496 H   0  0  0  0  0  0  0  0  0  0  0  0
   -3.0940   -2.6290    1.1426 C   0  0  0  0  0  0  0  0  0  0  0  0
   -3.7160   -1.9930    1.7706 H   0  0  0  0  0  0  0  0  0  0  0  0
   -3.4880   -2.6500    0.1286 H   0  0  0  0  0  0  0  0  0  0  0  0
   -1.6860   -2.0850    1.1196 C   0  0  0  0  0  0  0  0  0  0  0  0
   -0.7540   -2.7700    1.5226 O   0  0  0  0  0  0  0  0  0  0  0  0
   -1.5320   -0.8490    0.6496 N   0  0  0  0  0  0  0  0  0  0  0  0
   -2.3500   -0.3360    0.3566 H   0  0  0  0  0  0  0  0  0  0  0  0
   -0.2470   -0.1410    0.5576 C   0  0  1  0  0  0  0  0  0  0  0  0
    0.4239   -0.7541   -0.0450 H   0  0  0  0  0  0  0  0  0  0  0  0
   -0.4317    1.2160   -0.1683 C   0  0  1  0  0  0  0  0  0  0  0  0
   -0.4460    1.9921    0.5993 H   0  0  0  0  0  0  0  0  0  0  0  0
    0.7288    1.5307   -1.1315 C   0  0  0  0  0  0  0  0  0  0  0  0
    0.7400    0.8240   -1.9632 H   0  0  0  0  0  0  0  0  0  0  0  0
    0.6305    2.5413   -1.5248 H   0  0  0  0  0  0  0  0  0  0  0  0
    1.6821    1.4696   -0.6053 H   0  0  0  0  0  0  0  0  0  0  0  0
   -1.7896    1.2707   -0.9036 C   0  0  0  0  0  0  0  0  0  0  0  0
   -2.1007    0.2641   -1.1861 H   0  0  0  0  0  0  0  0  0  0  0  0
   -2.5383    1.6828   -0.2271 H   0  0  0  0  0  0  0  0  0  0  0  0
   -1.7756    2.1501   -2.1613 C   0  0  0  0  0  0  0  0  0  0  0  0
   -1.1195    1.7227   -2.9193 H   0  0  0  0  0  0  0  0  0  0  0  0
   -2.7847    2.2093   -2.5698 H   0  0  0  0  0  0  0  0  0  0  0  0
   -1.4357    3.1554   -1.9098 H   0  0  0  0  0  0  0  0  0  0  0  0
    0.3833   -0.0008    1.9525 C   0  0  0  0  0  0  0  0  0  0  0  0
    1.5803   -0.2304    2.1189 O   0  0  0  0  0  0  0  0  0  0  0  0
   -0.4170    0.3858    2.9541 N   0  0  0  0  0  0  0  0  0  0  0  0
   -1.3850    0.5669    2.7398 H   0  0  0  0  0  0  0  0  0  0  0  0
    0.0265    0.5600    4.3358 C   0  0  0  0  0  0  0  0  0  0  0  0
    0.8964    1.2200    4.3632 H   0  0  0  0  0  0  0  0  0  0  0  0
   -0.7726    0.9946    4.9382 H   0  0  0  0  0  0  0  0  0  0  0  0
    0.3119   -0.4069    4.7547 H   0  0  0  0  0  0  0  0  0  0  0  0
  5  6  2  0  0  0  0
  5  7  1  0  0  0  0
  2  3  1  0  0  0  0
  2  4  1  0  0  0  0
  2  5  1  0  0  0  0
  1  2  1  0  0  0  0
 24 25  2  0  0  0  0
 24 26  1  0  0  0  0
 20 21  1  0  0  0  0
 20 22  1  0  0  0  0
 20 23  1  0  0  0  0
 17 18  1  0  0  0  0
 17 19  1  0  0  0  0
 17 20  1  0  0  0  0
 13 14  1  0  0  0  0
 13 15  1  0  0  0  0
 13 16  1  0  0  0  0
 11 12  1  0  0  0  0
 11 13  1  0  0  0  0
 11 17  1  0  0  0  0
  9 10  1  0  0  0  0
  9 11  1  0  0  0  0
  9 24  1  0  0  0  0
  7  8  1  0  0  0  0
  7  9  1  0  0  0  0
 28 29  1  0  0  0  0
 28 30  1  0  0  0  0
 28 31  1  0  0  0  0
 26 27  1  0  0  0  0
 26 28  1  0  0  0  0
M  END
$$$$
default_name
  -OEChem-02102213163D

 31 30  0     1  0  0  0  0  0999 V2000
   -3.0760   -3.6390    1.5496 H   0  0  0  0  0  0  0  0  0  0  0  0
   -3.0940   -2.6290    1.1426 C   0  0  0  0  0  0  0  0  0  0  0  0
   -3.7160   -1.9930    1.7706 H   0  0  0  0  0  0  0  0  0  0  0  0
   -3.4880   -2.6500    0.1286 H   0  0  0  0  0  0  0  0  0  0  0  0
   -1.6860   -2.0850    1.1196 C   0  0  0  0  0  0  0  0  0  0  0  0
   -0.7540   -2.7700    1.5226 O   0  0  0  0  0  0  0  0  0  0  0  0
   -1.5320   -0.8490    0.6496 N   0  0  0  0  0  0  0  0  0  0  0  0
   -2.3500   -0.3360    0.3566 H   0  0  0  0  0  0  0  0  0  0  0  0
   -0.2470   -0.1410    0.5576 C   0  0  1  0  0  0  0  0  0  0  0  0
    0.4239   -0.7541   -0.0450 H   0  0  0  0  0  0  0  0  0  0  0  0
   -0.4317    1.2160   -0.1683 C   0  0  1  0  0  0  0  0  0  0  0  0
   -0.4460    1.9921    0.5993 H   0  0  0  0  0  0  0  0  0  0  0  0
    0.7288    1.5307   -1.1315 C   0  0  0  0  0  0  0  0  0  0  0  0
    0.7400    0.8240   -1.9632 H   0  0  0  0  0  0  0  0  0  0  0  0
    0.6305    2.5413   -1.5248 H   0  0  0  0  0  0  0  0  0  0  0  0
    1.6821    1.4696   -0.6053 H   0  0  0  0  0  0  0  0  0  0  0  0
   -1.7896    1.2707   -0.9036 C   0  0  0  0  0  0  0  0  0  0  0  0
   -2.2278    0.2729   -0.9507 H   0  0  0  0  0  0  0  0  0  0  0  0
   -2.4663    1.9153   -0.3427 H   0  0  0  0  0  0  0  0  0  0  0  0
   -1.6978    1.8331   -2.3286 C   0  0  0  0  0  0  0  0  0  0  0  0
   -1.1167    1.1668   -2.9658 H   0  0  0  0  0  0  0  0  0  0  0  0
   -2.7014    1.9230   -2.7449 H   0  0  0  0  0  0  0  0  0  0  0  0
   -1.2319    2.8190   -2.3113 H   0  0  0  0  0  0  0  0  0  0  0  0
    0.3833   -0.0008    1.9525 C   0  0  0  0  0  0  0  0  0  0  0  0
    1.5803   -0.2304    2.1189 O   0  0  0  0  0  0  0  0  0  0  0  0
   -0.4170    0.3858    2.9541 N   0  0  0  0  0  0  0  0  0  0  0  0
   -1.3850    0.5669    2.7398 H   0  0  0  0  0  0  0  0  0  0  0  0
    0.0265    0.5600    4.3358 C   0  0  0  0  0  0  0  0  0  0  0  0
    0.8964    1.2200    4.3632 H   0  0  0  0  0  0  0  0  0  0  0  0
   -0.7726    0.9946    4.9382 H   0  0  0  0  0  0  0  0  0  0  0  0
    0.3119   -0.4069    4.7547 H   0  0  0  0  0  0  0  0  0  0  0  0
  5  6  2  0  0  0  0
  5  7  1  0  0  0  0
  2  3  1  0  0  0  0
  2  4  1  0  0  0  0
  2  5  1  0  0  0  0
  1  2  1  0  0  0  0
 24 25  2  0  0  0  0
 24 26  1  0  0  0  0
 20 21  1  0  0  0  0
 20 22  1  0  0  0  0
 20 23  1  0  0  0  0
 17 18  1  0  0  0  0
 17 19  1  0  0  0  0
 17 20  1  0  0  0  0
 13 14  1  0  0  0  0
 13 15  1  0  0  0  0
 13 16  1  0  0  0  0
 11 12  1  0  0  0  0
 11 13  1  0  0  0  0
 11 17  1  0  0  0  0
  9 10  1  0  0  0  0
  9 11  1  0  0  0  0
  9 24  1  0  0  0  0
  7  8  1  0  0  0  0
  7  9  1  0  0  0  0
 28 29  1  0  0  0  0
 28 30  1  0  0  0  0
 28 31  1  0  0  0  0
 26 27  1  0  0  0  0
 26 28  1  0  0  0  0
M  END
$$$$
default_name
  -OEChem-02102213163D

 31 30  0     1  0  0  0  0  0999 V2000
   -3.0760   -3.6390    1.5496 H   0  0  0  0  0  0  0  0  0  0  0  0
   -3.0940   -2.6290    1.1426 C   0  0  0  0  0  0  0  0  0  0  0  0
   -3.7160   -1.9930    1.7706 H   0  0  0  0  0  0  0  0  0  0  0  0
   -3.4880   -2.6500    0.1286 H   0  0  0  0  0  0  0  0  0  0  0  0
   -1.6860   -2.0850    1.1196 C   0  0  0  0  0  0  0  0  0  0  0  0
   -0.7540   -2.7700    1.5226 O   0  0  0  0  0  0  0  0  0  0  0  0
   -1.5320   -0.8490    0.6496 N   0  0  0  0  0  0  0  0  0  0  0  0
   -2.3500   -0.3360    0.3566 H   0  0  0  0  0  0  0  0  0  0  0  0
   -0.2470   -0.1410    0.5576 C   0  0  1  0  0  0  0  0  0  0  0  0
    0.4239   -0.7541   -0.0450 H   0  0  0  0  0  0  0  0  0  0  0  0
   -0.4317    1.2160   -0.1683 C   0  0  1  0  0  0  0  0  0  0  0  0
   -0.4460    1.9921    0.5993 H   0  0  0  0  0  0  0  0  0  0  0  0
    0.7288    1.5307   -1.1315 C   0  0  0  0  0  0  0  0  0  0  0  0
    0.7400    0.8240   -1.9632 H   0  0  0  0  0  0  0  0  0  0  0  0
    0.6305    2.5413   -1.5248 H   0  0  0  0  0  0  0  0  0  0  0  0
    1.6821    1.4696   -0.6053 H   0  0  0  0  0  0  0  0  0  0  0  0
   -1.7896    1.2707   -0.9036 C   0  0  0  0  0  0  0  0  0  0  0  0
   -2.3473    0.3506   -0.7242 H   0  0  0  0  0  0  0  0  0  0  0  0
   -2.3692    2.1047   -0.5079 H   0  0  0  0  0  0  0  0  0  0  0  0
   -1.6632    1.4793   -2.4188 C   0  0  0  0  0  0  0  0  0  0  0  0
   -1.1829    0.6189   -2.8844 H   0  0  0  0  0  0  0  0  0  0  0  0
   -2.6578    1.5963   -2.8498 H   0  0  0  0  0  0  0  0  0  0  0  0
   -1.0802    2.3777   -2.6244 H   0  0  0  0  0  0  0  0  0  0  0  0
    0.3833   -0.0008    1.9525 C   0  0  0  0  0  0  0  0  0  0  0  0
    1.5803   -0.2304    2.1189 O   0  0  0  0  0  0  0  0  0  0  0  0
   -0.4170    0.3858    2.9541 N   0  0  0  0  0  0  0  0  0  0  0  0
   -1.3850    0.5669    2.7398 H   0  0  0  0  0  0  0  0  0  0  0  0
    0.0265    0.5600    4.3358 C   0  0  0  0  0  0  0  0  0  0  0  0
    0.8964    1.2200    4.3632 H   0  0  0  0  0  0  0  0  0  0  0  0
   -0.7726    0.9946    4.9382 H   0  0  0  0  0  0  0  0  0  0  0  0
    0.3119   -0.4069    4.7547 H   0  0  0  0  0  0  0  0  0  0  0  0
  5  6  2  0  0  0  0
  5  7  1  0  0  0  0
  2  3  1  0  0  0  0
  2  4  1  0  0  0  0
  2  5  1  0  0  0  0
  1  2  1  0  0  0  0
 24 25  2  0  0  0  0
 24 26  1  0  0  0  0
 20 21  1  0  0  0  0
 20 22  1  0  0  0  0
 20 23  1  0  0  0  0
 17 18  1  0  0  0  0
 17 19  1  0  0  0  0
 17 20  1  0  0  0  0
 13 14  1  0  0  0  0
 13 15  1  0  0  0  0
 13 16  1  0  0  0  0
 11 12  1  0  0  0  0
 11 13  1  0  0  0  0
 11 17  1  0  0  0  0
  9 10  1  0  0  0  0
  9 11  1  0  0  0  0
  9 24  1  0  0  0  0
  7  8  1  0  0  0  0
  7  9  1  0  0  0  0
 28 29  1  0  0  0  0
 28 30  1  0  0  0  0
 28 31  1  0  0  0  0
 26 27  1  0  0  0  0
 26 28  1  0  0  0  0
M  END
$$$$
default_name
  -OEChem-02102213163D

 31 30  0     1  0  0  0  0  0999 V2000
   -3.0760   -3.6390    1.5496 H   0  0  0  0  0  0  0  0  0  0  0  0
   -3.0940   -2.6290    1.1426 C   0  0  0  0  0  0  0  0  0  0  0  0
   -3.7160   -1.9930    1.7706 H   0  0  0  0  0  0  0  0  0  0  0  0
   -3.4880   -2.6500    0.1286 H   0  0  0  0  0  0  0  0  0  0  0  0
   -1.6860   -2.0850    1.1196 C   0  0  0  0  0  0  0  0  0  0  0  0
   -0.7540   -2.7700    1.5226 O   0  0  0  0  0  0  0  0  0  0  0  0
   -1.5320   -0.8490    0.6496 N   0  0  0  0  0  0  0  0  0  0  0  0
   -2.3500   -0.3360    0.3566 H   0  0  0  0  0  0  0  0  0  0  0  0
   -0.2470   -0.1410    0.5576 C   0  0  1  0  0  0  0  0  0  0  0  0
    0.4239   -0.7541   -0.0450 H   0  0  0  0  0  0  0  0  0  0  0  0
   -0.4317    1.2160   -0.1683 C   0  0  1  0  0  0  0  0  0  0  0  0
   -0.4460    1.9921    0.5993 H   0  0  0  0  0  0  0  0  0  0  0  0
    0.7288    1.5307   -1.1315 C   0  0  0  0  0  0  0  0  0  0  0  0
    0.7400    0.8240   -1.9632 H   0  0  0  0  0  0  0  0  0  0  0  0
    0.6305    2.5413   -1.5248 H   0  0  0  0  0  0  0  0  0  0  0  0
    1.6821    1.4696   -0.6053 H   0  0  0  0  0  0  0  0  0  0  0  0
   -1.7896    1.2707   -0.9036 C   0  0  0  0  0  0  0  0  0  0  0  0
   -2.4512    0.4919   -0.5219 H   0  0  0  0  0  0  0  0  0  0  0  0
   -2.2536    2.2381   -0.7115 H   0  0  0  0  0  0  0  0  0  0  0  0
   -1.6742    1.1127   -2.4258 C   0  0  0  0  0  0  0  0  0  0  0  0
   -1.3136    0.1163   -2.6804 H   0  0  0  0  0  0  0  0  0  0  0  0
   -2.6569    1.2515   -2.8771 H   0  0  0  0  0  0  0  0  0  0  0  0
   -0.9908    1.8614   -2.8278 H   0  0  0  0  0  0  0  0  0  0  0  0
    0.3833   -0.0008    1.9525 C   0  0  0  0  0  0  0  0  0  0  0  0
    1.5803   -0.2304    2.1189 O   0  0  0  0  0  0  0  0  0  0  0  0
   -0.4170    0.3858    2.9541 N   0  0  0  0  0  0  0  0  0  0  0  0
   -1.3850    0.5669    2.7398 H   0  0  0  0  0  0  0  0  0  0  0  0
    0.0265    0.5600    4.3358 C   0  0  0  0  0  0  0  0  0  0  0  0
    0.8964    1.2200    4.3632 H   0  0  0  0  0  0  0  0  0  0  0  0
   -0.7726    0.9946    4.9382 H   0  0  0  0  0  0  0  0  0  0  0  0
    0.3119   -0.4069    4.7547 H   0  0  0  0  0  0  0  0  0  0  0  0
  5  6  2  0  0  0  0
  5  7  1  0  0  0  0
  2  3  1  0  0  0  0
  2  4  1  0  0  0  0
  2  5  1  0  0  0  0
  1  2  1  0  0  0  0
 24 25  2  0  0  0  0
 24 26  1  0  0  0  0
 20 21  1  0  0  0  0
 20 22  1  0  0  0  0
 20 23  1  0  0  0  0
 17 18  1  0  0  0  0
 17 19  1  0  0  0  0
 17 20  1  0  0  0  0
 13 14  1  0  0  0  0
 13 15  1  0  0  0  0
 13 16  1  0  0  0  0
 11 12  1  0  0  0  0
 11 13  1  0  0  0  0
 11 17  1  0  0  0  0
  9 10  1  0  0  0  0
  9 11  1  0  0  0  0
  9 24  1  0  0  0  0
  7  8  1  0  0  0  0
  7  9  1  0  0  0  0
 28 29  1  0  0  0  0
 28 30  1  0  0  0  0
 28 31  1  0  0  0  0
 26 27  1  0  0  0  0
 26 28  1  0  0  0  0
M  END
$$$$
default_name
  -OEChem-02102213163D

 31 30  0     1  0  0  0  0  0999 V2000
   -3.0760   -3.6390    1.5496 H   0  0  0  0  0  0  0  0  0  0  0  0
   -3.0940   -2.6290    1.1426 C   0  0  0  0  0  0  0  0  0  0  0  0
   -3.7160   -1.9930    1.7706 H   0  0  0  0  0  0  0  0  0  0  0  0
   -3.4880   -2.6500    0.1286 H   0  0  0  0  0  0  0  0  0  0  0  0
   -1.6860   -2.0850    1.1196 C   0  0  0  0  0  0  0  0  0  0  0  0
   -0.7540   -2.7700    1.5226 O   0  0  0  0  0  0  0  0  0  0  0  0
   -1.5320   -0.8490    0.6496 N   0  0  0  0  0  0  0  0  0  0  0  0
   -2.3500   -0.3360    0.3566 H   0  0  0  0  0  0  0  0  0  0  0  0
   -0.2470   -0.1410    0.5576 C   0  0  1  0  0  0  0  0  0  0  0  0
    0.4239   -0.7541   -0.0450 H   0  0  0  0  0  0  0  0  0  0  0  0
   -0.4317    1.2160   -0.1683 C   0  0  1  0  0  0  0  0  0  0  0  0
   -0.4460    1.9921    0.5993 H   0  0  0  0  0  0  0  0  0  0  0  0
    0.7288    1.5307   -1.1315 C   0  0  0  0  0  0  0  0  0  0  0  0
    0.7400    0.8240   -1.9632 H   0  0  0  0  0  0  0  0  0  0  0  0
    0.6305    2.5413   -1.5248 H   0  0  0  0  0  0  0  0  0  0  0  0
    1.6821    1.4696   -0.6053 H   0  0  0  0  0  0  0  0  0  0  0  0
   -1.7896    1.2707   -0.9036 C   0  0  0  0  0  0  0  0  0  0  0  0
   -2.5322    0.6872   -0.3578 H   0  0  0  0  0  0  0  0  0  0  0  0
   -2.1274    2.3064   -0.9395 H   0  0  0  0  0  0  0  0  0  0  0  0
   -1.7301    0.7584   -2.3490 C   0  0  0  0  0  0  0  0  0  0  0  0
   -1.4998   -0.3067   -2.3679 H   0  0  0  0  0  0  0  0  0  0  0  0
   -2.6987    0.9122   -2.8251 H   0  0  0  0  0  0  0  0  0  0  0  0
   -0.9699    1.3056   -2.9078 H   0  0  0  0  0  0  0  0  0  0  0  0
    0.3833   -0.0008    1.9525 C   0  0  0  0  0  0  0  0  0  0  0  0
    1.5803   -0.2304    2.1189 O   0  0  0  0  0  0  0  0  0  0  0  0
   -0.4170    0.3858    2.9541 N   0  0  0  0  0  0  0  0  0  0  0  0
   -1.3850    0.5669    2.7398 H   0  0  0  0  0  0  0  0  0  0  0  0
    0.0265    0.5600    4.3358 C   0  0  0  0  0  0  0  0  0  0  0  0
    0.8964    1.2200    4.3632 H   0  0  0  0  0  0  0  0  0  0  0  0
   -0.7726    0.9946    4.9382 H   0  0  0  0  0  0  0  0  0  0  0  0
    0.3119   -0.4069    4.7547 H   0  0  0  0  0  0  0  0  0  0  0  0
  5  6  2  0  0  0  0
  5  7  1  0  0  0  0
  2  3  1  0  0  0  0
  2  4  1  0  0  0  0
  2  5  1  0  0  0  0
  1  2  1  0  0  0  0
 24 25  2  0  0  0  0
 24 26  1  0  0  0  0
 20 21  1  0  0  0  0
 20 22  1  0  0  0  0
 20 23  1  0  0  0  0
 17 18  1  0  0  0  0
 17 19  1  0  0  0  0
 17 20  1  0  0  0  0
 13 14  1  0  0  0  0
 13 15  1  0  0  0  0
 13 16  1  0  0  0  0
 11 12  1  0  0  0  0
 11 13  1  0  0  0  0
 11 17  1  0  0  0  0
  9 10  1  0  0  0  0
  9 11  1  0  0  0  0
  9 24  1  0  0  0  0
  7  8  1  0  0  0  0
  7  9  1  0  0  0  0
 28 29  1  0  0  0  0
 28 30  1  0  0  0  0
 28 31  1  0  0  0  0
 26 27  1  0  0  0  0
 26 28  1  0  0  0  0
M  END
$$$$
default_name
  -OEChem-02102213163D

 31 30  0     1  0  0  0  0  0999 V2000
   -3.0760   -3.6390    1.5496 H   0  0  0  0  0  0  0  0  0  0  0  0
   -3.0940   -2.6290    1.1426 C   0  0  0  0  0  0  0  0  0  0  0  0
   -3.7160   -1.9930    1.7706 H   0  0  0  0  0  0  0  0  0  0  0  0
   -3.4880   -2.6500    0.1286 H   0  0  0  0  0  0  0  0  0  0  0  0
   -1.6860   -2.0850    1.1196 C   0  0  0  0  0  0  0  0  0  0  0  0
   -0.7540   -2.7700    1.5226 O   0  0  0  0  0  0  0  0  0  0  0  0
   -1.5320   -0.8490    0.6496 N   0  0  0  0  0  0  0  0  0  0  0  0
   -2.3500   -0.3360    0.3566 H   0  0  0  0  0  0  0  0  0  0  0  0
   -0.2470   -0.1410    0.5576 C   0  0  1  0  0  0  0  0  0  0  0  0
    0.4239   -0.7541   -0.0450 H   0  0  0  0  0  0  0  0  0  0  0  0
   -0.4317    1.2160   -0.1683 C   0  0  1  0  0  0  0  0  0  0  0  0
   -0.4460    1.9921    0.5993 H   0  0  0  0  0  0  0  0  0  0  0  0
    0.7288    1.5307   -1.1315 C   0  0  0  0  0  0  0  0  0  0  0  0
    0.7400    0.8240   -1.9632 H   0  0  0  0  0  0  0  0  0  0  0  0
    0.6305    2.5413   -1.5248 H   0  0  0  0  0  0  0  0  0  0  0  0
    1.6821    1.4696   -0.6053 H   0  0  0  0  0  0  0  0  0  0  0  0
   -1.7896    1.2707   -0.9036 C   0  0  0  0  0  0  0  0  0  0  0  0
   -2.5849    0.9231   -0.2429 H   0  0  0  0  0  0  0  0  0  0  0  0
   -1.9992    2.3050   -1.1764 H   0  0  0  0  0  0  0  0  0  0  0  0
   -1.8269    0.4405   -2.1938 C   0  0  0  0  0  0  0  0  0  0  0  0
   -1.7290   -0.6212   -1.9682 H   0  0  0  0  0  0  0  0  0  0  0  0
   -2.7805    0.6014   -2.6973 H   0  0  0  0  0  0  0  0  0  0  0  0
   -1.0190    0.7479   -2.8587 H   0  0  0  0  0  0  0  0  0  0  0  0
    0.3833   -0.0008    1.9525 C   0  0  0  0  0  0  0  0  0  0  0  0
    1.5803   -0.2304    2.1189 O   0  0  0  0  0  0  0  0  0  0  0  0
   -0.4170    0.3858    2.9541 N   0  0  0  0  0  0  0  0  0  0  0  0
   -1.3850    0.5669    2.7398 H   0  0  0  0  0  0  0  0  0  0  0  0
    0.0265    0.5600    4.3358 C   0  0  0  0  0  0  0  0  0  0  0  0
    0.8964    1.2200    4.3632 H   0  0  0  0  0  0  0  0  0  0  0  0
   -0.7726    0.9946    4.9382 H   0  0  0  0  0  0  0  0  0  0  0  0
    0.3119   -0.4069    4.7547 H   0  0  0  0  0  0  0  0  0  0  0  0
  5  6  2  0  0  0  0
  5  7  1  0  0  0  0
  2  3  1  0  0  0  0
  2  4  1  0  0  0  0
  2  5  1  0  0  0  0
  1  2  1  0  0  0  0
 24 25  2  0  0  0  0
 24 26  1  0  0  0  0
 20 21  1  0  0  0  0
 20 22  1  0  0  0  0
 20 23  1  0  0  0  0
 17 18  1  0  0  0  0
 17 19  1  0  0  0  0
 17 20  1  0  0  0  0
 13 14  1  0  0  0  0
 13 15  1  0  0  0  0
 13 16  1  0  0  0  0
 11 12  1  0  0  0  0
 11 13  1  0  0  0  0
 11 17  1  0  0  0  0
  9 10  1  0  0  0  0
  9 11  1  0  0  0  0
  9 24  1  0  0  0  0
  7  8  1  0  0  0  0
  7  9  1  0  0  0  0
 28 29  1  0  0  0  0
 28 30  1  0  0  0  0
 28 31  1  0  0  0  0
 26 27  1  0  0  0  0
 26 28  1  0  0  0  0
M  END
$$$$
default_name
  -OEChem-02102213163D

 31 30  0     1  0  0  0  0  0999 V2000
   -3.0760   -3.6390    1.5496 H   0  0  0  0  0  0  0  0  0  0  0  0
   -3.0940   -2.6290    1.1426 C   0  0  0  0  0  0  0  0  0  0  0  0
   -3.7160   -1.9930    1.7706 H   0  0  0  0  0  0  0  0  0  0  0  0
   -3.4880   -2.6500    0.1286 H   0  0  0  0  0  0  0  0  0  0  0  0
   -1.6860   -2.0850    1.1196 C   0  0  0  0  0  0  0  0  0  0  0  0
   -0.7540   -2.7700    1.5226 O   0  0  0  0  0  0  0  0  0  0  0  0
   -1.5320   -0.8490    0.6496 N   0  0  0  0  0  0  0  0  0  0  0  0
   -2.3500   -0.3360    0.3566 H   0  0  0  0  0  0  0  0  0  0  0  0
   -0.2470   -0.1410    0.5576 C   0  0  1  0  0  0  0  0  0  0  0  0
    0.4239   -0.7541   -0.0450 H   0  0  0  0  0  0  0  0  0  0  0  0
   -0.4317    1.2160   -0.1683 C   0  0  1  0  0  0  0  0  0  0  0  0
   -0.4460    1.9921    0.5993 H   0  0  0  0  0  0  0  0  0  0  0  0
    0.7288    1.5307   -1.1315 C   0  0  0  0  0  0  0  0  0  0  0  0
    0.7400    0.8240   -1.9632 H   0  0  0  0  0  0  0  0  0  0  0  0
    0.6305    2.5413   -1.5248 H   0  0  0  0  0  0  0  0  0  0  0  0
    1.6821    1.4696   -0.6053 H   0  0  0  0  0  0  0  0  0  0  0  0
   -1.7896    1.2707   -0.9036 C   0  0  0  0  0  0  0  0  0  0  0  0
   -2.6057    1.1836   -0.1851 H   0  0  0  0  0  0  0  0  0  0  0  0
   -1.8777    2.2339   -1.4061 H   0  0  0  0  0  0  0  0  0  0  0  0
   -1.9582    0.1807   -1.9707 C   0  0  0  0  0  0  0  0  0  0  0  0
   -1.9854   -0.8059   -1.5084 H   0  0  0  0  0  0  0  0  0  0  0  0
   -2.8965    0.3403   -2.5024 H   0  0  0  0  0  0  0  0  0  0  0  0
   -1.1346    0.2264   -2.6840 H   0  0  0  0  0  0  0  0  0  0  0  0
    0.3833   -0.0008    1.9525 C   0  0  0  0  0  0  0  0  0  0  0  0
    1.5803   -0.2304    2.1189 O   0  0  0  0  0  0  0  0  0  0  0  0
   -0.4170    0.3858    2.9541 N   0  0  0  0  0  0  0  0  0  0  0  0
   -1.3850    0.5669    2.7398 H   0  0  0  0  0  0  0  0  0  0  0  0
    0.0265    0.5600    4.3358 C   0  0  0  0  0  0  0  0  0  0  0  0
    0.8964    1.2200    4.3632 H   0  0  0  0  0  0  0  0  0  0  0  0
   -0.7726    0.9946    4.9382 H   0  0  0  0  0  0  0  0  0  0  0  0
    0.3119   -0.4069    4.7547 H   0  0  0  0  0  0  0  0  0  0  0  0
  5  6  2  0  0  0  0
  5  7  1  0  0  0  0
  2  3  1  0  0  0  0
  2  4  1  0  0  0  0
  2  5  1  0  0  0  0
  1  2  1  0  0  0  0
 24 25  2  0  0  0  0
 24 26  1  0  0  0  0
 20 21  1  0  0  0  0
 20 22  1  0  0  0  0
 20 23  1  0  0  0  0
 17 18  1  0  0  0  0
 17 19  1  0  0  0  0
 17 20  1  0  0  0  0
 13 14  1  0  0  0  0
 13 15  1  0  0  0  0
 13 16  1  0  0  0  0
 11 12  1  0  0  0  0
 11 13  1  0  0  0  0
 11 17  1  0  0  0  0
  9 10  1  0  0  0  0
  9 11  1  0  0  0  0
  9 24  1  0  0  0  0
  7  8  1  0  0  0  0
  7  9  1  0  0  0  0
 28 29  1  0  0  0  0
 28 30  1  0  0  0  0
 28 31  1  0  0  0  0
 26 27  1  0  0  0  0
 26 28  1  0  0  0  0
M  END
$$$$
default_name
  -OEChem-02102213163D

 31 30  0     1  0  0  0  0  0999 V2000
   -3.0760   -3.6390    1.5496 H   0  0  0  0  0  0  0  0  0  0  0  0
   -3.0940   -2.6290    1.1426 C   0  0  0  0  0  0  0  0  0  0  0  0
   -3.7160   -1.9930    1.7706 H   0  0  0  0  0  0  0  0  0  0  0  0
   -3.4880   -2.6500    0.1286 H   0  0  0  0  0  0  0  0  0  0  0  0
   -1.6860   -2.0850    1.1196 C   0  0  0  0  0  0  0  0  0  0  0  0
   -0.7540   -2.7700    1.5226 O   0  0  0  0  0  0  0  0  0  0  0  0
   -1.5320   -0.8490    0.6496 N   0  0  0  0  0  0  0  0  0  0  0  0
   -2.3500   -0.3360    0.3566 H   0  0  0  0  0  0  0  0  0  0  0  0
   -0.2470   -0.1410    0.5576 C   0  0  1  0  0  0  0  0  0  0  0  0
    0.4239   -0.7541   -0.0450 H   0  0  0  0  0  0  0  0  0  0  0  0
   -0.4317    1.2160   -0.1683 C   0  0  1  0  0  0  0  0  0  0  0  0
   -0.4460    1.9921    0.5993 H   0  0  0  0  0  0  0  0  0  0  0  0
    0.7288    1.5307   -1.1315 C   0  0  0  0  0  0  0  0  0  0  0  0
    0.7400    0.8240   -1.9632 H   0  0  0  0  0  0  0  0  0  0  0  0
    0.6305    2.5413   -1.5248 H   0  0  0  0  0  0  0  0  0  0  0  0
    1.6821    1.4696   -0.6053 H   0  0  0  0  0  0  0  0  0  0  0  0
   -1.7896    1.2707   -0.9036 C   0  0  0  0  0  0  0  0  0  0  0  0
   -2.5931    1.4510   -0.1883 H   0  0  0  0  0  0  0  0  0  0  0  0
   -1.7711    2.0981   -1.6129 H   0  0  0  0  0  0  0  0  0  0  0  0
   -2.1150   -0.0034   -1.6949 C   0  0  0  0  0  0  0  0  0  0  0  0
   -2.2516   -0.8481   -1.0199 H   0  0  0  0  0  0  0  0  0  0  0  0
   -3.0390    0.1467   -2.2538 H   0  0  0  0  0  0  0  0  0  0  0  0
   -1.3089   -0.2234   -2.3956 H   0  0  0  0  0  0  0  0  0  0  0  0
    0.3833   -0.0008    1.9525 C   0  0  0  0  0  0  0  0  0  0  0  0
    1.5803   -0.2304    2.1189 O   0  0  0  0  0  0  0  0  0  0  0  0
   -0.4170    0.3858    2.9541 N   0  0  0  0  0  0  0  0  0  0  0  0
   -1.3850    0.5669    2.7398 H   0  0  0  0  0  0  0  0  0  0  0  0
    0.0265    0.5600    4.3358 C   0  0  0  0  0  0  0  0  0  0  0  0
    0.8964    1.2200    4.3632 H   0  0  0  0  0  0  0  0  0  0  0  0
   -0.7726    0.9946    4.9382 H   0  0  0  0  0  0  0  0  0  0  0  0
    0.3119   -0.4069    4.7547 H   0  0  0  0  0  0  0  0  0  0  0  0
  5  6  2  0  0  0  0
  5  7  1  0  0  0  0
  2  3  1  0  0  0  0
  2  4  1  0  0  0  0
  2  5  1  0  0  0  0
  1  2  1  0  0  0  0
 24 25  2  0  0  0  0
 24 26  1  0  0  0  0
 20 21  1  0  0  0  0
 20 22  1  0  0  0  0
 20 23  1  0  0  0  0
 17 18  1  0  0  0  0
 17 19  1  0  0  0  0
 17 20  1  0  0  0  0
 13 14  1  0  0  0  0
 13 15  1  0  0  0  0
 13 16  1  0  0  0  0
 11 12  1  0  0  0  0
 11 13  1  0  0  0  0
 11 17  1  0  0  0  0
  9 10  1  0  0  0  0
  9 11  1  0  0  0  0
  9 24  1  0  0  0  0
  7  8  1  0  0  0  0
  7  9  1  0  0  0  0
 28 29  1  0  0  0  0
 28 30  1  0  0  0  0
 28 31  1  0  0  0  0
 26 27  1  0  0  0  0
 26 28  1  0  0  0  0
M  END
$$$$
default_name
  -OEChem-02102213163D

 31 30  0     1  0  0  0  0  0999 V2000
   -3.0760   -3.6390    1.5496 H   0  0  0  0  0  0  0  0  0  0  0  0
   -3.0940   -2.6290    1.1426 C   0  0  0  0  0  0  0  0  0  0  0  0
   -3.7160   -1.9930    1.7706 H   0  0  0  0  0  0  0  0  0  0  0  0
   -3.4880   -2.6500    0.1286 H   0  0  0  0  0  0  0  0  0  0  0  0
   -1.6860   -2.0850    1.1196 C   0  0  0  0  0  0  0  0  0  0  0  0
   -0.7540   -2.7700    1.5226 O   0  0  0  0  0  0  0  0  0  0  0  0
   -1.5320   -0.8490    0.6496 N   0  0  0  0  0  0  0  0  0  0  0  0
   -2.3500   -0.3360    0.3566 H   0  0  0  0  0  0  0  0  0  0  0  0
   -0.2470   -0.1410    0.5576 C   0  0  1  0  0  0  0  0  0  0  0  0
    0.4239   -0.7541   -0.0450 H   0  0  0  0  0  0  0  0  0  0  0  0
   -0.4317    1.2160   -0.1683 C   0  0  1  0  0  0  0  0  0  0  0  0
   -0.4460    1.9921    0.5993 H   0  0  0  0  0  0  0  0  0  0  0  0
    0.7288    1.5307   -1.1315 C   0  0  0  0  0  0  0  0  0  0  0  0
    0.7400    0.8240   -1.9632 H   0  0  0  0  0  0  0  0  0  0  0  0
    0.6305    2.5413   -1.5248 H   0  0  0  0  0  0  0  0  0  0  0  0
    1.6821    1.4696   -0.6053 H   0  0  0  0  0  0  0  0  0  0  0  0
   -1.7896    1.2707   -0.9036 C   0  0  0  0  0  0  0  0  0  0  0  0
   -2.5481    1.7070   -0.2523 H   0  0  0  0  0  0  0  0  0  0  0  0
   -1.6869    1.9067   -1.7828 H   0  0  0  0  0  0  0  0  0  0  0  0
   -2.2866   -0.0991   -1.3851 C   0  0  0  0  0  0  0  0  0  0  0  0
   -2.5095   -0.7450   -0.5361 H   0  0  0  0  0  0  0  0  0  0  0  0
   -3.1982    0.0338   -1.9682 H   0  0  0  0  0  0  0  0  0  0  0  0
   -1.5300   -0.5708   -2.0132 H   0  0  0  0  0  0  0  0  0  0  0  0
    0.3833   -0.0008    1.9525 C   0  0  0  0  0  0  0  0  0  0  0  0
    1.5803   -0.2304    2.1189 O   0  0  0  0  0  0  0  0  0  0  0  0
   -0.4170    0.3858    2.9541 N   0  0  0  0  0  0  0  0  0  0  0  0
   -1.3850    0.5669    2.7398 H   0  0  0  0  0  0  0  0  0  0  0  0
    0.0265    0.5600    4.3358 C   0  0  0  0  0  0  0  0  0  0  0  0
    0.8964    1.2200    4.3632 H   0  0  0  0  0  0  0  0  0  0  0  0
   -0.7726    0.9946    4.9382 H   0  0  0  0  0  0  0  0  0  0  0  0
    0.3119   -0.4069    4.7547 H   0  0  0  0  0  0  0  0  0  0  0  0
  5  6  2  0  0  0  0
  5  7  1  0  0  0  0
  2  3  1  0  0  0  0
  2  4  1  0  0  0  0
  2  5  1  0  0  0  0
  1  2  1  0  0  0  0
 24 25  2  0  0  0  0
 24 26  1  0  0  0  0
 20 21  1  0  0  0  0
 20 22  1  0  0  0  0
 20 23  1  0  0  0  0
 17 18  1  0  0  0  0
 17 19  1  0  0  0  0
 17 20  1  0  0  0  0
 13 14  1  0  0  0  0
 13 15  1  0  0  0  0
 13 16  1  0  0  0  0
 11 12  1  0  0  0  0
 11 13  1  0  0  0  0
 11 17  1  0  0  0  0
  9 10  1  0  0  0  0
  9 11  1  0  0  0  0
  9 24  1  0  0  0  0
  7  8  1  0  0  0  0
  7  9  1  0  0  0  0
 28 29  1  0  0  0  0
 28 30  1  0  0  0  0
 28 31  1  0  0  0  0
 26 27  1  0  0  0  0
 26 28  1  0  0  0  0
M  END
$$$$
default_name
  -OEChem-02102213163D

 31 30  0     1  0  0  0  0  0999 V2000
   -3.0760   -3.6390    1.5496 H   0  0  0  0  0  0  0  0  0  0  0  0
   -3.0940   -2.6290    1.1426 C   0  0  0  0  0  0  0  0  0  0  0  0
   -3.7160   -1.9930    1.7706 H   0  0  0  0  0  0  0  0  0  0  0  0
   -3.4880   -2.6500    0.1286 H   0  0  0  0  0  0  0  0  0  0  0  0
   -1.6860   -2.0850    1.1196 C   0  0  0  0  0  0  0  0  0  0  0  0
   -0.7540   -2.7700    1.5226 O   0  0  0  0  0  0  0  0  0  0  0  0
   -1.5320   -0.8490    0.6496 N   0  0  0  0  0  0  0  0  0  0  0  0
   -2.3500   -0.3360    0.3566 H   0  0  0  0  0  0  0  0  0  0  0  0
   -0.2470   -0.1410    0.5576 C   0  0  1  0  0  0  0  0  0  0  0  0
    0.4239   -0.7541   -0.0450 H   0  0  0  0  0  0  0  0  0  0  0  0
   -0.4317    1.2160   -0.1683 C   0  0  1  0  0  0  0  0  0  0  0  0
   -0.4460    1.9921    0.5993 H   0  0  0  0  0  0  0  0  0  0  0  0
    0.7288    1.5307   -1.1315 C   0  0  0  0  0  0  0  0  0  0  0  0
    0.7400    0.8240   -1.9632 H   0  0  0  0  0  0  0  0  0  0  0  0
    0.6305    2.5413   -1.5248 H   0  0  0  0  0  0  0  0  0  0  0  0
    1.6821    1.4696   -0.6053 H   0  0  0  0  0  0  0  0  0  0  0  0
   -1.7896    1.2707   -0.9036 C   0  0  0  0  0  0  0  0  0  0  0  0
   -2.4737    1.9341   -0.3728 H   0  0  0  0  0  0  0  0  0  0  0  0
   -1.6306    1.6728   -1.9041 H   0  0  0  0  0  0  0  0  0  0  0  0
   -2.4613   -0.1000   -1.0626 C   0  0  0  0  0  0  0  0  0  0  0  0
   -2.7414   -0.5036   -0.0898 H   0  0  0  0  0  0  0  0  0  0  0  0
   -3.3632    0.0094   -1.6653 H   0  0  0  0  0  0  0  0  0  0  0  0
   -1.7829   -0.7921   -1.5627 H   0  0  0  0  0  0  0  0  0  0  0  0
    0.3833   -0.0008    1.9525 C   0  0  0  0  0  0  0  0  0  0  0  0
    1.5803   -0.2304    2.1189 O   0  0  0  0  0  0  0  0  0  0  0  0
   -0.4170    0.3858    2.9541 N   0  0  0  0  0  0  0  0  0  0  0  0
   -1.3850    0.5669    2.7398 H   0  0  0  0  0  0  0  0  0  0  0  0
    0.0265    0.5600    4.3358 C   0  0  0  0  0  0  0  0  0  0  0  0
    0.8964    1.2200    4.3632 H   0  0  0  0  0  0  0  0  0  0  0  0
   -0.7726    0.9946    4.9382 H   0  0  0  0  0  0  0  0  0  0  0  0
    0.3119   -0.4069    4.7547 H   0  0  0  0  0  0  0  0  0  0  0  0
  5  6  2  0  0  0  0
  5  7  1  0  0  0  0
  2  3  1  0  0  0  0
  2  4  1  0  0  0  0
  2  5  1  0  0  0  0
  1  2  1  0  0  0  0
 24 25  2  0  0  0  0
 24 26  1  0  0  0  0
 20 21  1  0  0  0  0
 20 22  1  0  0  0  0
 20 23  1  0  0  0  0
 17 18  1  0  0  0  0
 17 19  1  0  0  0  0
 17 20  1  0  0  0  0
 13 14  1  0  0  0  0
 13 15  1  0  0  0  0
 13 16  1  0  0  0  0
 11 12  1  0  0  0  0
 11 13  1  0  0  0  0
 11 17  1  0  0  0  0
  9 10  1  0  0  0  0
  9 11  1  0  0  0  0
  9 24  1  0  0  0  0
  7  8  1  0  0  0  0
  7  9  1  0  0  0  0
 28 29  1  0  0  0  0
 28 30  1  0  0  0  0
 28 31  1  0  0  0  0
 26 27  1  0  0  0  0
 26 28  1  0  0  0  0
M  END
$$$$
default_name
  -OEChem-02102213163D

 31 30  0     1  0  0  0  0  0999 V2000
   -3.0760   -3.6390    1.5496 H   0  0  0  0  0  0  0  0  0  0  0  0
   -3.0940   -2.6290    1.1426 C   0  0  0  0  0  0  0  0  0  0  0  0
   -3.7160   -1.9930    1.7706 H   0  0  0  0  0  0  0  0  0  0  0  0
   -3.4880   -2.6500    0.1286 H   0  0  0  0  0  0  0  0  0  0  0  0
   -1.6860   -2.0850    1.1196 C   0  0  0  0  0  0  0  0  0  0  0  0
   -0.7540   -2.7700    1.5226 O   0  0  0  0  0  0  0  0  0  0  0  0
   -1.5320   -0.8490    0.6496 N   0  0  0  0  0  0  0  0  0  0  0  0
   -2.3500   -0.3360    0.3566 H   0  0  0  0  0  0  0  0  0  0  0  0
   -0.2470   -0.1410    0.5576 C   0  0  1  0  0  0  0  0  0  0  0  0
    0.4239   -0.7541   -0.0450 H   0  0  0  0  0  0  0  0  0  0  0  0
   -0.4317    1.2160   -0.1683 C   0  0  1  0  0  0  0  0  0  0  0  0
   -0.4460    1.9921    0.5993 H   0  0  0  0  0  0  0  0  0  0  0  0
    0.7288    1.5307   -1.1315 C   0  0  0  0  0  0  0  0  0  0  0  0
    0.7400    0.8240   -1.9632 H   0  0  0  0  0  0  0  0  0  0  0  0
    0.6305    2.5413   -1.5248 H   0  0  0  0  0  0  0  0  0  0  0  0
    1.6821    1.4696   -0.6053 H   0  0  0  0  0  0  0  0  0  0  0  0
   -1.7896    1.2707   -0.9036 C   0  0  0  0  0  0  0  0  0  0  0  0
   -2.3750    2.1170   -0.5416 H   0  0  0  0  0  0  0  0  0  0  0  0
   -1.6062    1.4124   -1.9686 H   0  0  0  0  0  0  0  0  0  0  0  0
   -2.6271   -0.0060   -0.7493 C   0  0  0  0  0  0  0  0  0  0  0  0
   -2.9316   -0.1403    0.2885 H   0  0  0  0  0  0  0  0  0  0  0  0
   -3.5228    0.0750   -1.3655 H   0  0  0  0  0  0  0  0  0  0  0  0
   -2.0502   -0.8723   -1.0749 H   0  0  0  0  0  0  0  0  0  0  0  0
    0.3833   -0.0008    1.9525 C   0  0  0  0  0  0  0  0  0  0  0  0
    1.5803   -0.2304    2.1189 O   0  0  0  0  0  0  0  0  0  0  0  0
   -0.4170    0.3858    2.9541 N   0  0  0  0  0  0  0  0  0  0  0  0
   -1.3850    0.5669    2.7398 H   0  0  0  0  0  0  0  0  0  0  0  0
    0.0265    0.5600    4.3358 C   0  0  0  0  0  0  0  0  0  0  0  0
    0.8964    1.2200    4.3632 H   0  0  0  0  0  0  0  0  0  0  0  0
   -0.7726    0.9946    4.9382 H   0  0  0  0  0  0  0  0  0  0  0  0
    0.3119   -0.4069    4.7547 H   0  0  0  0  0  0  0  0  0  0  0  0
  5  6  2  0  0  0  0
  5  7  1  0  0  0  0
  2  3  1  0  0  0  0
  2  4  1  0  0  0  0
  2  5  1  0  0  0  0
  1  2  1  0  0  0  0
 24 25  2  0  0  0  0
 24 26  1  0  0  0  0
 20 21  1  0  0  0  0
 20 22  1  0  0  0  0
 20 23  1  0  0  0  0
 17 18  1  0  0  0  0
 17 19  1  0  0  0  0
 17 20  1  0  0  0  0
 13 14  1  0  0  0  0
 13 15  1  0  0  0  0
 13 16  1  0  0  0  0
 11 12  1  0  0  0  0
 11 13  1  0  0  0  0
 11 17  1  0  0  0  0
  9 10  1  0  0  0  0
  9 11  1  0  0  0  0
  9 24  1  0  0  0  0
  7  8  1  0  0  0  0
  7  9  1  0  0  0  0
 28 29  1  0  0  0  0
 28 30  1  0  0  0  0
 28 31  1  0  0  0  0
 26 27  1  0  0  0  0
 26 28  1  0  0  0  0
M  END
$$$$
default_name
  -OEChem-02102213163D

 31 30  0     1  0  0  0  0  0999 V2000
   -3.0760   -3.6390    1.5496 H   0  0  0  0  0  0  0  0  0  0  0  0
   -3.0940   -2.6290    1.1426 C   0  0  0  0  0  0  0  0  0  0  0  0
   -3.7160   -1.9930    1.7706 H   0  0  0  0  0  0  0  0  0  0  0  0
   -3.4880   -2.6500    0.1286 H   0  0  0  0  0  0  0  0  0  0  0  0
   -1.6860   -2.0850    1.1196 C   0  0  0  0  0  0  0  0  0  0  0  0
   -0.7540   -2.7700    1.5226 O   0  0  0  0  0  0  0  0  0  0  0  0
   -1.5320   -0.8490    0.6496 N   0  0  0  0  0  0  0  0  0  0  0  0
   -2.3500   -0.3360    0.3566 H   0  0  0  0  0  0  0  0  0  0  0  0
   -0.2470   -0.1410    0.5576 C   0  0  1  0  0  0  0  0  0  0  0  0
    0.4239   -0.7541   -0.0450 H   0  0  0  0  0  0  0  0  0  0  0  0
   -0.4317    1.2160   -0.1683 C   0  0  1  0  0  0  0  0  0  0  0  0
   -0.4460    1.9921    0.5993 H   0  0  0  0  0  0  0  0  0  0  0  0
    0.7288    1.5307   -1.1315 C   0  0  0  0  0  0  0  0  0  0  0  0
    0.7400    0.8240   -1.9632 H   0  0  0  0  0  0  0  0  0  0  0  0
    0.6305    2.5413   -1.5248 H   0  0  0  0  0  0  0  0  0  0  0  0
    1.6821    1.4696   -0.6053 H   0  0  0  0  0  0  0  0  0  0  0  0
   -1.7896    1.2707   -0.9036 C   0  0  0  0  0  0  0  0  0  0  0  0
   -2.2586    2.2430   -0.7470 H   0  0  0  0  0  0  0  0  0  0  0  0
   -1.6153    1.1432   -1.9720 H   0  0  0  0  0  0  0  0  0  0  0  0
   -2.7729    0.1765   -0.4665 C   0  0  0  0  0  0  0  0  0  0  0  0
   -3.0671    0.3200    0.5731 H   0  0  0  0  0  0  0  0  0  0  0  0
   -3.6662    0.2262   -1.0895 H   0  0  0  0  0  0  0  0  0  0  0  0
   -2.3139   -0.8058   -0.5831 H   0  0  0  0  0  0  0  0  0  0  0  0
    0.3833   -0.0008    1.9525 C   0  0  0  0  0  0  0  0  0  0  0  0
    1.5803   -0.2304    2.1189 O   0  0  0  0  0  0  0  0  0  0  0  0
   -0.4170    0.3858    2.9541 N   0  0  0  0  0  0  0  0  0  0  0  0
   -1.3850    0.5669    2.7398 H   0  0  0  0  0  0  0  0  0  0  0  0
    0.0265    0.5600    4.3358 C   0  0  0  0  0  0  0  0  0  0  0  0
    0.8964    1.2200    4.3632 H   0  0  0  0  0  0  0  0  0  0  0  0
   -0.7726    0.9946    4.9382 H   0  0  0  0  0  0  0  0  0  0  0  0
    0.3119   -0.4069    4.7547 H   0  0  0  0  0  0  0  0  0  0  0  0
  5  6  2  0  0  0  0
  5  7  1  0  0  0  0
  2  3  1  0  0  0  0
  2  4  1  0  0  0  0
  2  5  1  0  0  0  0
  1  2  1  0  0  0  0
 24 25  2  0  0  0  0
 24 26  1  0  0  0  0
 20 21  1  0  0  0  0
 20 22  1  0  0  0  0
 20 23  1  0  0  0  0
 17 18  1  0  0  0  0
 17 19  1  0  0  0  0
 17 20  1  0  0  0  0
 13 14  1  0  0  0  0
 13 15  1  0  0  0  0
 13 16  1  0  0  0  0
 11 12  1  0  0  0  0
 11 13  1  0  0  0  0
 11 17  1  0  0  0  0
  9 10  1  0  0  0  0
  9 11  1  0  0  0  0
  9 24  1  0  0  0  0
  7  8  1  0  0  0  0
  7  9  1  0  0  0  0
 28 29  1  0  0  0  0
 28 30  1  0  0  0  0
 28 31  1  0  0  0  0
 26 27  1  0  0  0  0
 26 28  1  0  0  0  0
M  END
$$$$
default_name
  -OEChem-02102213163D

 31 30  0     1  0  0  0  0  0999 V2000
   -3.0760   -3.6390    1.5496 H   0  0  0  0  0  0  0  0  0  0  0  0
   -3.0940   -2.6290    1.1426 C   0  0  0  0  0  0  0  0  0  0  0  0
   -3.7160   -1.9930    1.7706 H   0  0  0  0  0  0  0  0  0  0  0  0
   -3.4880   -2.6500    0.1286 H   0  0  0  0  0  0  0  0  0  0  0  0
   -1.6860   -2.0850    1.1196 C   0  0  0  0  0  0  0  0  0  0  0  0
   -0.7540   -2.7700    1.5226 O   0  0  0  0  0  0  0  0  0  0  0  0
   -1.5320   -0.8490    0.6496 N   0  0  0  0  0  0  0  0  0  0  0  0
   -2.3500   -0.3360    0.3566 H   0  0  0  0  0  0  0  0  0  0  0  0
   -0.2470   -0.1410    0.5576 C   0  0  1  0  0  0  0  0  0  0  0  0
    0.4239   -0.7541   -0.0450 H   0  0  0  0  0  0  0  0  0  0  0  0
   -0.4317    1.2160   -0.1683 C   0  0  1  0  0  0  0  0  0  0  0  0
   -0.4460    1.9921    0.5993 H   0  0  0  0  0  0  0  0  0  0  0  0
    0.7288    1.5307   -1.1315 C   0  0  0  0  0  0  0  0  0  0  0  0
    0.7400    0.8240   -1.9632 H   0  0  0  0  0  0  0  0  0  0  0  0
    0.6305    2.5413   -1.5248 H   0  0  0  0  0  0  0  0  0  0  0  0
    1.6821    1.4696   -0.6053 H   0  0  0  0  0  0  0  0  0  0  0  0
   -1.7896    1.2707   -0.9036 C   0  0  0  0  0  0  0  0  0  0  0  0
   -2.1326    2.3037   -0.9753 H   0  0  0  0  0  0  0  0  0  0  0  0
   -1.6572    0.8835   -1.9138 H   0  0  0  0  0  0  0  0  0  0  0  0
   -2.8887    0.4351   -0.2335 C   0  0  0  0  0  0  0  0  0  0  0  0
   -3.1387    0.8461    0.7445 H   0  0  0  0  0  0  0  0  0  0  0  0
   -3.7835    0.4527   -0.8560 H   0  0  0  0  0  0  0  0  0  0  0  0
   -2.5558   -0.5973   -0.1207 H   0  0  0  0  0  0  0  0  0  0  0  0
    0.3833   -0.0008    1.9525 C   0  0  0  0  0  0  0  0  0  0  0  0
    1.5803   -0.2304    2.1189 O   0  0  0  0  0  0  0  0  0  0  0  0
   -0.4170    0.3858    2.9541 N   0  0  0  0  0  0  0  0  0  0  0  0
   -1.3850    0.5669    2.7398 H   0  0  0  0  0  0  0  0  0  0  0  0
    0.0265    0.5600    4.3358 C   0  0  0  0  0  0  0  0  0  0  0  0
    0.8964    1.2200    4.3632 H   0  0  0  0  0  0  0  0  0  0  0  0
   -0.7726    0.9946    4.9382 H   0  0  0  0  0  0  0  0  0  0  0  0
    0.3119   -0.4069    4.7547 H   0  0  0  0  0  0  0  0  0  0  0  0
  5  6  2  0  0  0  0
  5  7  1  0  0  0  0
  2  3  1  0  0  0  0
  2  4  1  0  0  0  0
  2  5  1  0  0  0  0
  1  2  1  0  0  0  0
 24 25  2  0  0  0  0
 24 26  1  0  0  0  0
 20 21  1  0  0  0  0
 20 22  1  0  0  0  0
 20 23  1  0  0  0  0
 17 18  1  0  0  0  0
 17 19  1  0  0  0  0
 17 20  1  0  0  0  0
 13 14  1  0  0  0  0
 13 15  1  0  0  0  0
 13 16  1  0  0  0  0
 11 12  1  0  0  0  0
 11 13  1  0  0  0  0
 11 17  1  0  0  0  0
  9 10  1  0  0  0  0
  9 11  1  0  0  0  0
  9 24  1  0  0  0  0
  7  8  1  0  0  0  0
  7  9  1  0  0  0  0
 28 29  1  0  0  0  0
 28 30  1  0  0  0  0
 28 31  1  0  0  0  0
 26 27  1  0  0  0  0
 26 28  1  0  0  0  0
M  END
$$$$
default_name
  -OEChem-02102213163D

 31 30  0     1  0  0  0  0  0999 V2000
   -3.0760   -3.6390    1.5496 H   0  0  0  0  0  0  0  0  0  0  0  0
   -3.0940   -2.6290    1.1426 C   0  0  0  0  0  0  0  0  0  0  0  0
   -3.7160   -1.9930    1.7706 H   0  0  0  0  0  0  0  0  0  0  0  0
   -3.4880   -2.6500    0.1286 H   0  0  0  0  0  0  0  0  0  0  0  0
   -1.6860   -2.0850    1.1196 C   0  0  0  0  0  0  0  0  0  0  0  0
   -0.7540   -2.7700    1.5226 O   0  0  0  0  0  0  0  0  0  0  0  0
   -1.5320   -0.8490    0.6496 N   0  0  0  0  0  0  0  0  0  0  0  0
   -2.3500   -0.3360    0.3566 H   0  0  0  0  0  0  0  0  0  0  0  0
   -0.2470   -0.1410    0.5576 C   0  0  1  0  0  0  0  0  0  0  0  0
    0.4239   -0.7541   -0.0450 H   0  0  0  0  0  0  0  0  0  0  0  0
   -0.4317    1.2160   -0.1683 C   0  0  1  0  0  0  0  0  0  0  0  0
   -0.4460    1.9921    0.5993 H   0  0  0  0  0  0  0  0  0  0  0  0
    0.7288    1.5307   -1.1315 C   0  0  0  0  0  0  0  0  0  0  0  0
    0.7400    0.8240   -1.9632 H   0  0  0  0  0  0  0  0  0  0  0  0
    0.6305    2.5413   -1.5248 H   0  0  0  0  0  0  0  0  0  0  0  0
    1.6821    1.4696   -0.6053 H   0  0  0  0  0  0  0  0  0  0  0  0
   -1.7896    1.2707   -0.9036 C   0  0  0  0  0  0  0  0  0  0  0  0
   -2.0055    2.2949   -1.2107 H   0  0  0  0  0  0  0  0  0  0  0  0
   -1.7292    0.6510   -1.7982 H   0  0  0  0  0  0  0  0  0  0  0  0
   -2.9665    0.7521   -0.0662 C   0  0  0  0  0  0  0  0  0  0  0  0
   -3.1415    1.4020    0.7910 H   0  0  0  0  0  0  0  0  0  0  0  0
   -3.8668    0.7390   -0.6808 H   0  0  0  0  0  0  0  0  0  0  0  0
   -2.7596   -0.2609    0.2808 H   0  0  0  0  0  0  0  0  0  0  0  0
    0.3833   -0.0008    1.9525 C   0  0  0  0  0  0  0  0  0  0  0  0
    1.5803   -0.2304    2.1189 O   0  0  0  0  0  0  0  0  0  0  0  0
   -0.4170    0.3858    2.9541 N   0  0  0  0  0  0  0  0  0  0  0  0
   -1.3850    0.5669    2.7398 H   0  0  0  0  0  0  0  0  0  0  0  0
    0.0265    0.5600    4.3358 C   0  0  0  0  0  0  0  0  0  0  0  0
    0.8964    1.2200    4.3632 H   0  0  0  0  0  0  0  0  0  0  0  0
   -0.7726    0.9946    4.9382 H   0  0  0  0  0  0  0  0  0  0  0  0
    0.3119   -0.4069    4.7547 H   0  0  0  0  0  0  0  0  0  0  0  0
  5  6  2  0  0  0  0
  5  7  1  0  0  0  0
  2  3  1  0  0  0  0
  2  4  1  0  0  0  0
  2  5  1  0  0  0  0
  1  2  1  0  0  0  0
 24 25  2  0  0  0  0
 24 26  1  0  0  0  0
 20 21  1  0  0  0  0
 20 22  1  0  0  0  0
 20 23  1  0  0  0  0
 17 18  1  0  0  0  0
 17 19  1  0  0  0  0
 17 20  1  0  0  0  0
 13 14  1  0  0  0  0
 13 15  1  0  0  0  0
 13 16  1  0  0  0  0
 11 12  1  0  0  0  0
 11 13  1  0  0  0  0
 11 17  1  0  0  0  0
  9 10  1  0  0  0  0
  9 11  1  0  0  0  0
  9 24  1  0  0  0  0
  7  8  1  0  0  0  0
  7  9  1  0  0  0  0
 28 29  1  0  0  0  0
 28 30  1  0  0  0  0
 28 31  1  0  0  0  0
 26 27  1  0  0  0  0
 26 28  1  0  0  0  0
M  END
$$$$
default_name
  -OEChem-02102213163D

 31 30  0     1  0  0  0  0  0999 V2000
   -3.0760   -3.6390    1.5496 H   0  0  0  0  0  0  0  0  0  0  0  0
   -3.0940   -2.6290    1.1426 C   0  0  0  0  0  0  0  0  0  0  0  0
   -3.7160   -1.9930    1.7706 H   0  0  0  0  0  0  0  0  0  0  0  0
   -3.4880   -2.6500    0.1286 H   0  0  0  0  0  0  0  0  0  0  0  0
   -1.6860   -2.0850    1.1196 C   0  0  0  0  0  0  0  0  0  0  0  0
   -0.7540   -2.7700    1.5226 O   0  0  0  0  0  0  0  0  0  0  0  0
   -1.5320   -0.8490    0.6496 N   0  0  0  0  0  0  0  0  0  0  0  0
   -2.3500   -0.3360    0.3566 H   0  0  0  0  0  0  0  0  0  0  0  0
   -0.2470   -0.1410    0.5576 C   0  0  1  0  0  0  0  0  0  0  0  0
    0.4239   -0.7541   -0.0450 H   0  0  0  0  0  0  0  0  0  0  0  0
   -0.4317    1.2160   -0.1683 C   0  0  1  0  0  0  0  0  0  0  0  0
   -0.4460    1.9921    0.5993 H   0  0  0  0  0  0  0  0  0  0  0  0
    0.7288    1.5307   -1.1315 C   0  0  0  0  0  0  0  0  0  0  0  0
    0.7400    0.8240   -1.9632 H   0  0  0  0  0  0  0  0  0  0  0  0
    0.6305    2.5413   -1.5248 H   0  0  0  0  0  0  0  0  0  0  0  0
    1.6821    1.4696   -0.6053 H   0  0  0  0  0  0  0  0  0  0  0  0
   -1.7896    1.2707   -0.9036 C   0  0  0  0  0  0  0  0  0  0  0  0
   -1.8860    2.2172   -1.4372 H   0  0  0  0  0  0  0  0  0  0  0  0
   -1.8263    0.4616   -1.6330 H   0  0  0  0  0  0  0  0  0  0  0  0
   -3.0010    1.1059    0.0240 C   0  0  0  0  0  0  0  0  0  0  0  0
   -3.0752    1.9500    0.7095 H   0  0  0  0  0  0  0  0  0  0  0  0
   -3.9104    1.0657   -0.5760 H   0  0  0  0  0  0  0  0  0  0  0  0
   -2.9114    0.1804    0.5939 H   0  0  0  0  0  0  0  0  0  0  0  0
    0.3833   -0.0008    1.9525 C   0  0  0  0  0  0  0  0  0  0  0  0
    1.5803   -0.2304    2.1189 O   0  0  0  0  0  0  0  0  0  0  0  0
   -0.4170    0.3858    2.9541 N   0  0  0  0  0  0  0  0  0  0  0  0
   -1.3850    0.5669    2.7398 H   0  0  0  0  0  0  0  0  0  0  0  0
    0.0265    0.5600    4.3358 C   0  0  0  0  0  0  0  0  0  0  0  0
    0.8964    1.2200    4.3632 H   0  0  0  0  0  0  0  0  0  0  0  0
   -0.7726    0.9946    4.9382 H   0  0  0  0  0  0  0  0  0  0  0  0
    0.3119   -0.4069    4.7547 H   0  0  0  0  0  0  0  0  0  0  0  0
  5  6  2  0  0  0  0
  5  7  1  0  0  0  0
  2  3  1  0  0  0  0
  2  4  1  0  0  0  0
  2  5  1  0  0  0  0
  1  2  1  0  0  0  0
 24 25  2  0  0  0  0
 24 26  1  0  0  0  0
 20 21  1  0  0  0  0
 20 22  1  0  0  0  0
 20 23  1  0  0  0  0
 17 18  1  0  0  0  0
 17 19  1  0  0  0  0
 17 20  1  0  0  0  0
 13 14  1  0  0  0  0
 13 15  1  0  0  0  0
 13 16  1  0  0  0  0
 11 12  1  0  0  0  0
 11 13  1  0  0  0  0
 11 17  1  0  0  0  0
  9 10  1  0  0  0  0
  9 11  1  0  0  0  0
  9 24  1  0  0  0  0
  7  8  1  0  0  0  0
  7  9  1  0  0  0  0
 28 29  1  0  0  0  0
 28 30  1  0  0  0  0
 28 31  1  0  0  0  0
 26 27  1  0  0  0  0
 26 28  1  0  0  0  0
M  END
$$$$
default_name
  -OEChem-02102213163D

 31 30  0     1  0  0  0  0  0999 V2000
   -3.0760   -3.6390    1.5496 H   0  0  0  0  0  0  0  0  0  0  0  0
   -3.0940   -2.6290    1.1426 C   0  0  0  0  0  0  0  0  0  0  0  0
   -3.7160   -1.9930    1.7706 H   0  0  0  0  0  0  0  0  0  0  0  0
   -3.4880   -2.6500    0.1286 H   0  0  0  0  0  0  0  0  0  0  0  0
   -1.6860   -2.0850    1.1196 C   0  0  0  0  0  0  0  0  0  0  0  0
   -0.7540   -2.7700    1.5226 O   0  0  0  0  0  0  0  0  0  0  0  0
   -1.5320   -0.8490    0.6496 N   0  0  0  0  0  0  0  0  0  0  0  0
   -2.3500   -0.3360    0.3566 H   0  0  0  0  0  0  0  0  0  0  0  0
   -0.2470   -0.1410    0.5576 C   0  0  1  0  0  0  0  0  0  0  0  0
    0.4239   -0.7541   -0.0450 H   0  0  0  0  0  0  0  0  0  0  0  0
   -0.4317    1.2160   -0.1683 C   0  0  1  0  0  0  0  0  0  0  0  0
   -0.4460    1.9921    0.5993 H   0  0  0  0  0  0  0  0  0  0  0  0
    0.7288    1.5307   -1.1315 C   0  0  0  0  0  0  0  0  0  0  0  0
    0.7400    0.8240   -1.9632 H   0  0  0  0  0  0  0  0  0  0  0  0
    0.6305    2.5413   -1.5248 H   0  0  0  0  0  0  0  0  0  0  0  0
    1.6821    1.4696   -0.6053 H   0  0  0  0  0  0  0  0  0  0  0  0
   -1.7896    1.2707   -0.9036 C   0  0  0  0  0  0  0  0  0  0  0  0
   -1.7822    2.0759   -1.6395 H   0  0  0  0  0  0  0  0  0  0  0  0
   -1.9419    0.3282   -1.4295 H   0  0  0  0  0  0  0  0  0  0  0  0
   -2.9900    1.4725    0.0310 C   0  0  0  0  0  0  0  0  0  0  0  0
   -2.9445    2.4525    0.5056 H   0  0  0  0  0  0  0  0  0  0  0  0
   -3.9113    1.4105   -0.5486 H   0  0  0  0  0  0  0  0  0  0  0  0
   -3.0007    0.6966    0.7973 H   0  0  0  0  0  0  0  0  0  0  0  0
    0.3833   -0.0008    1.9525 C   0  0  0  0  0  0  0  0  0  0  0  0
    1.5803   -0.2304    2.1189 O   0  0  0  0  0  0  0  0  0  0  0  0
   -0.4170    0.3858    2.9541 N   0  0  0  0  0  0  0  0  0  0  0  0
   -1.3850    0.5669    2.7398 H   0  0  0  0  0  0  0  0  0  0  0  0
    0.0265    0.5600    4.3358 C   0  0  0  0  0  0  0  0  0  0  0  0
    0.8964    1.2200    4.3632 H   0  0  0  0  0  0  0  0  0  0  0  0
   -0.7726    0.9946    4.9382 H   0  0  0  0  0  0  0  0  0  0  0  0
    0.3119   -0.4069    4.7547 H   0  0  0  0  0  0  0  0  0  0  0  0
  5  6  2  0  0  0  0
  5  7  1  0  0  0  0
  2  3  1  0  0  0  0
  2  4  1  0  0  0  0
  2  5  1  0  0  0  0
  1  2  1  0  0  0  0
 24 25  2  0  0  0  0
 24 26  1  0  0  0  0
 20 21  1  0  0  0  0
 20 22  1  0  0  0  0
 20 23  1  0  0  0  0
 17 18  1  0  0  0  0
 17 19  1  0  0  0  0
 17 20  1  0  0  0  0
 13 14  1  0  0  0  0
 13 15  1  0  0  0  0
 13 16  1  0  0  0  0
 11 12  1  0  0  0  0
 11 13  1  0  0  0  0
 11 17  1  0  0  0  0
  9 10  1  0  0  0  0
  9 11  1  0  0  0  0
  9 24  1  0  0  0  0
  7  8  1  0  0  0  0
  7  9  1  0  0  0  0
 28 29  1  0  0  0  0
 28 30  1  0  0  0  0
 28 31  1  0  0  0  0
 26 27  1  0  0  0  0
 26 28  1  0  0  0  0
M  END
$$$$
default_name
  -OEChem-02102213163D

 31 30  0     1  0  0  0  0  0999 V2000
   -3.0760   -3.6390    1.5496 H   0  0  0  0  0  0  0  0  0  0  0  0
   -3.0940   -2.6290    1.1426 C   0  0  0  0  0  0  0  0  0  0  0  0
   -3.7160   -1.9930    1.7706 H   0  0  0  0  0  0  0  0  0  0  0  0
   -3.4880   -2.6500    0.1286 H   0  0  0  0  0  0  0  0  0  0  0  0
   -1.6860   -2.0850    1.1196 C   0  0  0  0  0  0  0  0  0  0  0  0
   -0.7540   -2.7700    1.5226 O   0  0  0  0  0  0  0  0  0  0  0  0
   -1.5320   -0.8490    0.6496 N   0  0  0  0  0  0  0  0  0  0  0  0
   -2.3500   -0.3360    0.3566 H   0  0  0  0  0  0  0  0  0  0  0  0
   -0.2470   -0.1410    0.5576 C   0  0  1  0  0  0  0  0  0  0  0  0
    0.4239   -0.7541   -0.0450 H   0  0  0  0  0  0  0  0  0  0  0  0
   -0.4317    1.2160   -0.1683 C   0  0  1  0  0  0  0  0  0  0  0  0
   -0.4460    1.9921    0.5993 H   0  0  0  0  0  0  0  0  0  0  0  0
    0.7288    1.5307   -1.1315 C   0  0  0  0  0  0  0  0  0  0  0  0
    0.7400    0.8240   -1.9632 H   0  0  0  0  0  0  0  0  0  0  0  0
    0.6305    2.5413   -1.5248 H   0  0  0  0  0  0  0  0  0  0  0  0
    1.6821    1.4696   -0.6053 H   0  0  0  0  0  0  0  0  0  0  0  0
   -1.7896    1.2707   -0.9036 C   0  0  0  0  0  0  0  0  0  0  0  0
   -1.7011    1.8806   -1.8036 H   0  0  0  0  0  0  0  0  0  0  0  0
   -2.0681    0.2599   -1.2015 H   0  0  0  0  0  0  0  0  0  0  0  0
   -2.9342    1.8268   -0.0457 C   0  0  0  0  0  0  0  0  0  0  0  0
   -2.7583    2.8755    0.1931 H   0  0  0  0  0  0  0  0  0  0  0  0
   -3.8695    1.7498   -0.6006 H   0  0  0  0  0  0  0  0  0  0  0  0
   -3.0216    1.2525    0.8773 H   0  0  0  0  0  0  0  0  0  0  0  0
    0.3833   -0.0008    1.9525 C   0  0  0  0  0  0  0  0  0  0  0  0
    1.5803   -0.2304    2.1189 O   0  0  0  0  0  0  0  0  0  0  0  0
   -0.4170    0.3858    2.9541 N   0  0  0  0  0  0  0  0  0  0  0  0
   -1.3850    0.5669    2.7398 H   0  0  0  0  0  0  0  0  0  0  0  0
    0.0265    0.5600    4.3358 C   0  0  0  0  0  0  0  0  0  0  0  0
    0.8964    1.2200    4.3632 H   0  0  0  0  0  0  0  0  0  0  0  0
   -0.7726    0.9946    4.9382 H   0  0  0  0  0  0  0  0  0  0  0  0
    0.3119   -0.4069    4.7547 H   0  0  0  0  0  0  0  0  0  0  0  0
  5  6  2  0  0  0  0
  5  7  1  0  0  0  0
  2  3  1  0  0  0  0
  2  4  1  0  0  0  0
  2  5  1  0  0  0  0
  1  2  1  0  0  0  0
 24 25  2  0  0  0  0
 24 26  1  0  0  0  0
 20 21  1  0  0  0  0
 20 22  1  0  0  0  0
 20 23  1  0  0  0  0
 17 18  1  0  0  0  0
 17 19  1  0  0  0  0
 17 20  1  0  0  0  0
 13 14  1  0  0  0  0
 13 15  1  0  0  0  0
 13 16  1  0  0  0  0
 11 12  1  0  0  0  0
 11 13  1  0  0  0  0
 11 17  1  0  0  0  0
  9 10  1  0  0  0  0
  9 11  1  0  0  0  0
  9 24  1  0  0  0  0
  7  8  1  0  0  0  0
  7  9  1  0  0  0  0
 28 29  1  0  0  0  0
 28 30  1  0  0  0  0
 28 31  1  0  0  0  0
 26 27  1  0  0  0  0
 26 28  1  0  0  0  0
M  END
$$$$
default_name
  -OEChem-02102213163D

 31 30  0     1  0  0  0  0  0999 V2000
   -3.0760   -3.6390    1.5496 H   0  0  0  0  0  0  0  0  0  0  0  0
   -3.0940   -2.6290    1.1426 C   0  0  0  0  0  0  0  0  0  0  0  0
   -3.7160   -1.9930    1.7706 H   0  0  0  0  0  0  0  0  0  0  0  0
   -3.4880   -2.6500    0.1286 H   0  0  0  0  0  0  0  0  0  0  0  0
   -1.6860   -2.0850    1.1196 C   0  0  0  0  0  0  0  0  0  0  0  0
   -0.7540   -2.7700    1.5226 O   0  0  0  0  0  0  0  0  0  0  0  0
   -1.5320   -0.8490    0.6496 N   0  0  0  0  0  0  0  0  0  0  0  0
   -2.3500   -0.3360    0.3566 H   0  0  0  0  0  0  0  0  0  0  0  0
   -0.2470   -0.1410    0.5576 C   0  0  1  0  0  0  0  0  0  0  0  0
    0.4239   -0.7541   -0.0450 H   0  0  0  0  0  0  0  0  0  0  0  0
   -0.4317    1.2160   -0.1683 C   0  0  1  0  0  0  0  0  0  0  0  0
   -0.4460    1.9921    0.5993 H   0  0  0  0  0  0  0  0  0  0  0  0
    0.7288    1.5307   -1.1315 C   0  0  0  0  0  0  0  0  0  0  0  0
    0.7400    0.8240   -1.9632 H   0  0  0  0  0  0  0  0  0  0  0  0
    0.6305    2.5413   -1.5248 H   0  0  0  0  0  0  0  0  0  0  0  0
    1.6821    1.4696   -0.6053 H   0  0  0  0  0  0  0  0  0  0  0  0
   -1.7896    1.2707   -0.9036 C   0  0  0  0  0  0  0  0  0  0  0  0
   -1.6484    1.6447   -1.9185 H   0  0  0  0  0  0  0  0  0  0  0  0
   -2.1963    0.2613   -0.9645 H   0  0  0  0  0  0  0  0  0  0  0  0
   -2.8373    2.1447   -0.2009 C   0  0  0  0  0  0  0  0  0  0  0  0
   -2.5291    3.1900   -0.2067 H   0  0  0  0  0  0  0  0  0  0  0  0
   -3.7878    2.0606   -0.7284 H   0  0  0  0  0  0  0  0  0  0  0  0
   -2.9726    1.8102    0.8282 H   0  0  0  0  0  0  0  0  0  0  0  0
    0.3833   -0.0008    1.9525 C   0  0  0  0  0  0  0  0  0  0  0  0
    1.5803   -0.2304    2.1189 O   0  0  0  0  0  0  0  0  0  0  0  0
   -0.4170    0.3858    2.9541 N   0  0  0  0  0  0  0  0  0  0  0  0
   -1.3850    0.5669    2.7398 H   0  0  0  0  0  0  0  0  0  0  0  0
    0.0265    0.5600    4.3358 C   0  0  0  0  0  0  0  0  0  0  0  0
    0.8964    1.2200    4.3632 H   0  0  0  0  0  0  0  0  0  0  0  0
   -0.7726    0.9946    4.9382 H   0  0  0  0  0  0  0  0  0  0  0  0
    0.3119   -0.4069    4.7547 H   0  0  0  0  0  0  0  0  0  0  0  0
  5  6  2  0  0  0  0
  5  7  1  0  0  0  0
  2  3  1  0  0  0  0
  2  4  1  0  0  0  0
  2  5  1  0  0  0  0
  1  2  1  0  0  0  0
 24 25  2  0  0  0  0
 24 26  1  0  0  0  0
 20 21  1  0  0  0  0
 20 22  1  0  0  0  0
 20 23  1  0  0  0  0
 17 18  1  0  0  0  0
 17 19  1  0  0  0  0
 17 20  1  0  0  0  0
 13 14  1  0  0  0  0
 13 15  1  0  0  0  0
 13 16  1  0  0  0  0
 11 12  1  0  0  0  0
 11 13  1  0  0  0  0
 11 17  1  0  0  0  0
  9 10  1  0  0  0  0
  9 11  1  0  0  0  0
  9 24  1  0  0  0  0
  7  8  1  0  0  0  0
  7  9  1  0  0  0  0
 28 29  1  0  0  0  0
 28 30  1  0  0  0  0
 28 31  1  0  0  0  0
 26 27  1  0  0  0  0
 26 28  1  0  0  0  0
M  END
$$$$
default_name
  -OEChem-02102213163D

 31 30  0     1  0  0  0  0  0999 V2000
   -3.0760   -3.6390    1.5496 H   0  0  0  0  0  0  0  0  0  0  0  0
   -3.0940   -2.6290    1.1426 C   0  0  0  0  0  0  0  0  0  0  0  0
   -3.7160   -1.9930    1.7706 H   0  0  0  0  0  0  0  0  0  0  0  0
   -3.4880   -2.6500    0.1286 H   0  0  0  0  0  0  0  0  0  0  0  0
   -1.6860   -2.0850    1.1196 C   0  0  0  0  0  0  0  0  0  0  0  0
   -0.7540   -2.7700    1.5226 O   0  0  0  0  0  0  0  0  0  0  0  0
   -1.5320   -0.8490    0.6496 N   0  0  0  0  0  0  0  0  0  0  0  0
   -2.3500   -0.3360    0.3566 H   0  0  0  0  0  0  0  0  0  0  0  0
   -0.2470   -0.1410    0.5576 C   0  0  1  0  0  0  0  0  0  0  0  0
    0.4239   -0.7541   -0.0450 H   0  0  0  0  0  0  0  0  0  0  0  0
   -0.4317    1.2160   -0.1683 C   0  0  1  0  0  0  0  0  0  0  0  0
   -0.4460    1.9921    0.5993 H   0  0  0  0  0  0  0  0  0  0  0  0
    0.7288    1.5307   -1.1315 C   0  0  0  0  0  0  0  0  0  0  0  0
    0.7400    0.8240   -1.9632 H   0  0  0  0  0  0  0  0  0  0  0  0
    0.6305    2.5413   -1.5248 H   0  0  0  0  0  0  0  0  0  0  0  0
    1.6821    1.4696   -0.6053 H   0  0  0  0  0  0  0  0  0  0  0  0
   -1.7896    1.2707   -0.9036 C   0  0  0  0  0  0  0  0  0  0  0  0
   -1.6276    1.3842   -1.9764 H   0  0  0  0  0  0  0  0  0  0  0  0
   -2.3178    0.3324   -0.7348 H   0  0  0  0  0  0  0  0  0  0  0  0
   -2.7060    2.4045   -0.4241 C   0  0  0  0  0  0  0  0  0  0  0  0
   -2.2727    3.3747   -0.6664 H   0  0  0  0  0  0  0  0  0  0  0  0
   -3.6717    2.3217   -0.9233 H   0  0  0  0  0  0  0  0  0  0  0  0
   -2.8569    2.3317    0.6535 H   0  0  0  0  0  0  0  0  0  0  0  0
    0.3833   -0.0008    1.9525 C   0  0  0  0  0  0  0  0  0  0  0  0
    1.5803   -0.2304    2.1189 O   0  0  0  0  0  0  0  0  0  0  0  0
   -0.4170    0.3858    2.9541 N   0  0  0  0  0  0  0  0  0  0  0  0
   -1.3850    0.5669    2.7398 H   0  0  0  0  0  0  0  0  0  0  0  0
    0.0265    0.5600    4.3358 C   0  0  0  0  0  0  0  0  0  0  0  0
    0.8964    1.2200    4.3632 H   0  0  0  0  0  0  0  0  0  0  0  0
   -0.7726    0.9946    4.9382 H   0  0  0  0  0  0  0  0  0  0  0  0
    0.3119   -0.4069    4.7547 H   0  0  0  0  0  0  0  0  0  0  0  0
  5  6  2  0  0  0  0
  5  7  1  0  0  0  0
  2  3  1  0  0  0  0
  2  4  1  0  0  0  0
  2  5  1  0  0  0  0
  1  2  1  0  0  0  0
 24 25  2  0  0  0  0
 24 26  1  0  0  0  0
 20 21  1  0  0  0  0
 20 22  1  0  0  0  0
 20 23  1  0  0  0  0
 17 18  1  0  0  0  0
 17 19  1  0  0  0  0
 17 20  1  0  0  0  0
 13 14  1  0  0  0  0
 13 15  1  0  0  0  0
 13 16  1  0  0  0  0
 11 12  1  0  0  0  0
 11 13  1  0  0  0  0
 11 17  1  0  0  0  0
  9 10  1  0  0  0  0
  9 11  1  0  0  0  0
  9 24  1  0  0  0  0
  7  8  1  0  0  0  0
  7  9  1  0  0  0  0
 28 29  1  0  0  0  0
 28 30  1  0  0  0  0
 28 31  1  0  0  0  0
 26 27  1  0  0  0  0
 26 28  1  0  0  0  0
M  END
$$$$
default_name
  -OEChem-02102213163D

 31 30  0     1  0  0  0  0  0999 V2000
   -3.0760   -3.6390    1.5496 H   0  0  0  0  0  0  0  0  0  0  0  0
   -3.0940   -2.6290    1.1426 C   0  0  0  0  0  0  0  0  0  0  0  0
   -3.7160   -1.9930    1.7706 H   0  0  0  0  0  0  0  0  0  0  0  0
   -3.4880   -2.6500    0.1286 H   0  0  0  0  0  0  0  0  0  0  0  0
   -1.6860   -2.0850    1.1196 C   0  0  0  0  0  0  0  0  0  0  0  0
   -0.7540   -2.7700    1.5226 O   0  0  0  0  0  0  0  0  0  0  0  0
   -1.5320   -0.8490    0.6496 N   0  0  0  0  0  0  0  0  0  0  0  0
   -2.3500   -0.3360    0.3566 H   0  0  0  0  0  0  0  0  0  0  0  0
   -0.2470   -0.1410    0.5576 C   0  0  1  0  0  0  0  0  0  0  0  0
    0.4239   -0.7541   -0.0450 H   0  0  0  0  0  0  0  0  0  0  0  0
   -0.4317    1.2160   -0.1683 C   0  0  1  0  0  0  0  0  0  0  0  0
   -0.4460    1.9921    0.5993 H   0  0  0  0  0  0  0  0  0  0  0  0
    0.7288    1.5307   -1.1315 C   0  0  0  0  0  0  0  0  0  0  0  0
    0.7400    0.8240   -1.9632 H   0  0  0  0  0  0  0  0  0  0  0  0
    0.6305    2.5413   -1.5248 H   0  0  0  0  0  0  0  0  0  0  0  0
    1.6821    1.4696   -0.6053 H   0  0  0  0  0  0  0  0  0  0  0  0
   -1.7896    1.2707   -0.9036 C   0  0  0  0  0  0  0  0  0  0  0  0
   -1.6402    1.1168   -1.9731 H   0  0  0  0  0  0  0  0  0  0  0  0
   -2.4243    0.4682   -0.5280 H   0  0  0  0  0  0  0  0  0  0  0  0
   -2.5492    2.5886   -0.6999 C   0  0  0  0  0  0  0  0  0  0  0  0
   -2.0065    3.4169   -1.1549 H   0  0  0  0  0  0  0  0  0  0  0  0
   -3.5292    2.5153   -1.1720 H   0  0  0  0  0  0  0  0  0  0  0  0
   -2.6826    2.7815    0.3651 H   0  0  0  0  0  0  0  0  0  0  0  0
    0.3833   -0.0008    1.9525 C   0  0  0  0  0  0  0  0  0  0  0  0
    1.5803   -0.2304    2.1189 O   0  0  0  0  0  0  0  0  0  0  0  0
   -0.4170    0.3858    2.9541 N   0  0  0  0  0  0  0  0  0  0  0  0
   -1.3850    0.5669    2.7398 H   0  0  0  0  0  0  0  0  0  0  0  0
    0.0265    0.5600    4.3358 C   0  0  0  0  0  0  0  0  0  0  0  0
    0.8964    1.2200    4.3632 H   0  0  0  0  0  0  0  0  0  0  0  0
   -0.7726    0.9946    4.9382 H   0  0  0  0  0  0  0  0  0  0  0  0
    0.3119   -0.4069    4.7547 H   0  0  0  0  0  0  0  0  0  0  0  0
  5  6  2  0  0  0  0
  5  7  1  0  0  0  0
  2  3  1  0  0  0  0
  2  4  1  0  0  0  0
  2  5  1  0  0  0  0
  1  2  1  0  0  0  0
 24 25  2  0  0  0  0
 24 26  1  0  0  0  0
 20 21  1  0  0  0  0
 20 22  1  0  0  0  0
 20 23  1  0  0  0  0
 17 18  1  0  0  0  0
 17 19  1  0  0  0  0
 17 20  1  0  0  0  0
 13 14  1  0  0  0  0
 13 15  1  0  0  0  0
 13 16  1  0  0  0  0
 11 12  1  0  0  0  0
 11 13  1  0  0  0  0
 11 17  1  0  0  0  0
  9 10  1  0  0  0  0
  9 11  1  0  0  0  0
  9 24  1  0  0  0  0
  7  8  1  0  0  0  0
  7  9  1  0  0  0  0
 28 29  1  0  0  0  0
 28 30  1  0  0  0  0
 28 31  1  0  0  0  0
 26 27  1  0  0  0  0
 26 28  1  0  0  0  0
M  END
$$$$
default_name
  -OEChem-02102213163D

 31 30  0     1  0  0  0  0  0999 V2000
   -3.0760   -3.6390    1.5496 H   0  0  0  0  0  0  0  0  0  0  0  0
   -3.0940   -2.6290    1.1426 C   0  0  0  0  0  0  0  0  0  0  0  0
   -3.7160   -1.9930    1.7706 H   0  0  0  0  0  0  0  0  0  0  0  0
   -3.4880   -2.6500    0.1286 H   0  0  0  0  0  0  0  0  0  0  0  0
   -1.6860   -2.0850    1.1196 C   0  0  0  0  0  0  0  0  0  0  0  0
   -0.7540   -2.7700    1.5226 O   0  0  0  0  0  0  0  0  0  0  0  0
   -1.5320   -0.8490    0.6496 N   0  0  0  0  0  0  0  0  0  0  0  0
   -2.3500   -0.3360    0.3566 H   0  0  0  0  0  0  0  0  0  0  0  0
   -0.2470   -0.1410    0.5576 C   0  0  1  0  0  0  0  0  0  0  0  0
    0.4239   -0.7541   -0.0450 H   0  0  0  0  0  0  0  0  0  0  0  0
   -0.4317    1.2160   -0.1683 C   0  0  1  0  0  0  0  0  0  0  0  0
   -0.4460    1.9921    0.5993 H   0  0  0  0  0  0  0  0  0  0  0  0
    0.7288    1.5307   -1.1315 C   0  0  0  0  0  0  0  0  0  0  0  0
    0.7400    0.8240   -1.9632 H   0  0  0  0  0  0  0  0  0  0  0  0
    0.6305    2.5413   -1.5248 H   0  0  0  0  0  0  0  0  0  0  0  0
    1.6821    1.4696   -0.6053 H   0  0  0  0  0  0  0  0  0  0  0  0
   -1.7896    1.2707   -0.9036 C   0  0  0  0  0  0  0  0  0  0  0  0
   -1.6852    0.8608   -1.9091 H   0  0  0  0  0  0  0  0  0  0  0  0
   -2.5086    0.6596   -0.3581 H   0  0  0  0  0  0  0  0  0  0  0  0
   -2.3777    2.6843   -1.0096 C   0  0  0  0  0  0  0  0  0  0  0  0
   -1.7487    3.3138   -1.6388 H   0  0  0  0  0  0  0  0  0  0  0  0
   -3.3701    2.6281   -1.4575 H   0  0  0  0  0  0  0  0  0  0  0  0
   -2.4615    3.1288   -0.0173 H   0  0  0  0  0  0  0  0  0  0  0  0
    0.3833   -0.0008    1.9525 C   0  0  0  0  0  0  0  0  0  0  0  0
    1.5803   -0.2304    2.1189 O   0  0  0  0  0  0  0  0  0  0  0  0
   -0.4170    0.3858    2.9541 N   0  0  0  0  0  0  0  0  0  0  0  0
   -1.3850    0.5669    2.7398 H   0  0  0  0  0  0  0  0  0  0  0  0
    0.0265    0.5600    4.3358 C   0  0  0  0  0  0  0  0  0  0  0  0
    0.8964    1.2200    4.3632 H   0  0  0  0  0  0  0  0  0  0  0  0
   -0.7726    0.9946    4.9382 H   0  0  0  0  0  0  0  0  0  0  0  0
    0.3119   -0.4069    4.7547 H   0  0  0  0  0  0  0  0  0  0  0  0
  5  6  2  0  0  0  0
  5  7  1  0  0  0  0
  2  3  1  0  0  0  0
  2  4  1  0  0  0  0
  2  5  1  0  0  0  0
  1  2  1  0  0  0  0
 24 25  2  0  0  0  0
 24 26  1  0  0  0  0
 20 21  1  0  0  0  0
 20 22  1  0  0  0  0
 20 23  1  0  0  0  0
 17 18  1  0  0  0  0
 17 19  1  0  0  0  0
 17 20  1  0  0  0  0
 13 14  1  0  0  0  0
 13 15  1  0  0  0  0
 13 16  1  0  0  0  0
 11 12  1  0  0  0  0
 11 13  1  0  0  0  0
 11 17  1  0  0  0  0
  9 10  1  0  0  0  0
  9 11  1  0  0  0  0
  9 24  1  0  0  0  0
  7  8  1  0  0  0  0
  7  9  1  0  0  0  0
 28 29  1  0  0  0  0
 28 30  1  0  0  0  0
 28 31  1  0  0  0  0
 26 27  1  0  0  0  0
 26 28  1  0  0  0  0
M  END
$$$$
default_name
  -OEChem-02102213163D

 31 30  0     1  0  0  0  0  0999 V2000
   -3.0760   -3.6390    1.5496 H   0  0  0  0  0  0  0  0  0  0  0  0
   -3.0940   -2.6290    1.1426 C   0  0  0  0  0  0  0  0  0  0  0  0
   -3.7160   -1.9930    1.7706 H   0  0  0  0  0  0  0  0  0  0  0  0
   -3.4880   -2.6500    0.1286 H   0  0  0  0  0  0  0  0  0  0  0  0
   -1.6860   -2.0850    1.1196 C   0  0  0  0  0  0  0  0  0  0  0  0
   -0.7540   -2.7700    1.5226 O   0  0  0  0  0  0  0  0  0  0  0  0
   -1.5320   -0.8490    0.6496 N   0  0  0  0  0  0  0  0  0  0  0  0
   -2.3500   -0.3360    0.3566 H   0  0  0  0  0  0  0  0  0  0  0  0
   -0.2470   -0.1410    0.5576 C   0  0  1  0  0  0  0  0  0  0  0  0
    0.4239   -0.7541   -0.0450 H   0  0  0  0  0  0  0  0  0  0  0  0
   -0.4317    1.2160   -0.1683 C   0  0  1  0  0  0  0  0  0  0  0  0
   -0.4460    1.9921    0.5993 H   0  0  0  0  0  0  0  0  0  0  0  0
    0.7288    1.5307   -1.1315 C   0  0  0  0  0  0  0  0  0  0  0  0
    0.7400    0.8240   -1.9632 H   0  0  0  0  0  0  0  0  0  0  0  0
    0.6305    2.5413   -1.5248 H   0  0  0  0  0  0  0  0  0  0  0  0
    1.6821    1.4696   -0.6053 H   0  0  0  0  0  0  0  0  0  0  0  0
   -1.7896    1.2707   -0.9036 C   0  0  0  0  0  0  0  0  0  0  0  0
   -1.7596    0.6337   -1.7886 H   0  0  0  0  0  0  0  0  0  0  0  0
   -2.5649    0.8935   -0.2368 H   0  0  0  0  0  0  0  0  0  0  0  0
   -2.2030    2.6852   -1.3322 C   0  0  0  0  0  0  0  0  0  0  0  0
   -1.5168    3.0724   -2.0851 H   0  0  0  0  0  0  0  0  0  0  0  0
   -3.2050    2.6526   -1.7605 H   0  0  0  0  0  0  0  0  0  0  0  0
   -2.2087    3.3502   -0.4678 H   0  0  0  0  0  0  0  0  0  0  0  0
    0.3833   -0.0008    1.9525 C   0  0  0  0  0  0  0  0  0  0  0  0
    1.5803   -0.2304    2.1189 O   0  0  0  0  0  0  0  0  0  0  0  0
   -0.4170    0.3858    2.9541 N   0  0  0  0  0  0  0  0  0  0  0  0
   -1.3850    0.5669    2.7398 H   0  0  0  0  0  0  0  0  0  0  0  0
    0.0265    0.5600    4.3358 C   0  0  0  0  0  0  0  0  0  0  0  0
    0.8964    1.2200    4.3632 H   0  0  0  0  0  0  0  0  0  0  0  0
   -0.7726    0.9946    4.9382 H   0  0  0  0  0  0  0  0  0  0  0  0
    0.3119   -0.4069    4.7547 H   0  0  0  0  0  0  0  0  0  0  0  0
  5  6  2  0  0  0  0
  5  7  1  0  0  0  0
  2  3  1  0  0  0  0
  2  4  1  0  0  0  0
  2  5  1  0  0  0  0
  1  2  1  0  0  0  0
 24 25  2  0  0  0  0
 24 26  1  0  0  0  0
 20 21  1  0  0  0  0
 20 22  1  0  0  0  0
 20 23  1  0  0  0  0
 17 18  1  0  0  0  0
 17 19  1  0  0  0  0
 17 20  1  0  0  0  0
 13 14  1  0  0  0  0
 13 15  1  0  0  0  0
 13 16  1  0  0  0  0
 11 12  1  0  0  0  0
 11 13  1  0  0  0  0
 11 17  1  0  0  0  0
  9 10  1  0  0  0  0
  9 11  1  0  0  0  0
  9 24  1  0  0  0  0
  7  8  1  0  0  0  0
  7  9  1  0  0  0  0
 28 29  1  0  0  0  0
 28 30  1  0  0  0  0
 28 31  1  0  0  0  0
 26 27  1  0  0  0  0
 26 28  1  0  0  0  0
M  END
$$$$
default_name
  -OEChem-02102213163D

 31 30  0     1  0  0  0  0  0999 V2000
   -3.0760   -3.6390    1.5496 H   0  0  0  0  0  0  0  0  0  0  0  0
   -3.0940   -2.6290    1.1426 C   0  0  0  0  0  0  0  0  0  0  0  0
   -3.7160   -1.9930    1.7706 H   0  0  0  0  0  0  0  0  0  0  0  0
   -3.4880   -2.6500    0.1286 H   0  0  0  0  0  0  0  0  0  0  0  0
   -1.6860   -2.0850    1.1196 C   0  0  0  0  0  0  0  0  0  0  0  0
   -0.7540   -2.7700    1.5226 O   0  0  0  0  0  0  0  0  0  0  0  0
   -1.5320   -0.8490    0.6496 N   0  0  0  0  0  0  0  0  0  0  0  0
   -2.3500   -0.3360    0.3566 H   0  0  0  0  0  0  0  0  0  0  0  0
   -0.2470   -0.1410    0.5576 C   0  0  1  0  0  0  0  0  0  0  0  0
    0.4239   -0.7541   -0.0450 H   0  0  0  0  0  0  0  0  0  0  0  0
   -0.4317    1.2160   -0.1683 C   0  0  1  0  0  0  0  0  0  0  0  0
   -0.1788    2.0006    0.5473 H   0  0  0  0  0  0  0  0  0  0  0  0
    0.5068    1.3672   -1.3808 C   0  0  0  0  0  0  0  0  0  0  0  0
    0.2444    0.6506   -2.1611 H   0  0  0  0  0  0  0  0  0  0  0  0
    0.4408    2.3753   -1.7868 H   0  0  0  0  0  0  0  0  0  0  0  0
    1.5411    1.1965   -1.0800 H   0  0  0  0  0  0  0  0  0  0  0  0
   -1.9056    1.4273   -0.5814 C   0  0  0  0  0  0  0  0  0  0  0  0
   -2.2321    0.6105   -1.2264 H   0  0  0  0  0  0  0  0  0  0  0  0
   -2.5250    1.4235    0.3154 H   0  0  0  0  0  0  0  0  0  0  0  0
   -2.1589    2.7556   -1.3071 C   0  0  0  0  0  0  0  0  0  0  0  0
   -1.6452    2.7702   -2.2682 H   0  0  0  0  0  0  0  0  0  0  0  0
   -3.2285    2.8703   -1.4840 H   0  0  0  0  0  0  0  0  0  0  0  0
   -1.8099    3.5878   -0.6947 H   0  0  0  0  0  0  0  0  0  0  0  0
    0.3833   -0.0008    1.9525 C   0  0  0  0  0  0  0  0  0  0  0  0
    1.5803   -0.2304    2.1189 O   0  0  0  0  0  0  0  0  0  0  0  0
   -0.4170    0.3858    2.9541 N   0  0  0  0  0  0  0  0  0  0  0  0
   -1.3850    0.5669    2.7398 H   0  0  0  0  0  0  0  0  0  0  0  0
    0.0265    0.5600    4.3358 C   0  0  0  0  0  0  0  0  0  0  0  0
    0.8964    1.2200    4.3632 H   0  0  0  0  0  0  0  0  0  0  0  0
   -0.7726    0.9946    4.9382 H   0  0  0  0  0  0  0  0  0  0  0  0
    0.3119   -0.4069    4.7547 H   0  0  0  0  0  0  0  0  0  0  0  0
  5  6  2  0  0  0  0
  5  7  1  0  0  0  0
  2  3  1  0  0  0  0
  2  4  1  0  0  0  0
  2  5  1  0  0  0  0
  1  2  1  0  0  0  0
 24 25  2  0  0  0  0
 24 26  1  0  0  0  0
 20 21  1  0  0  0  0
 20 22  1  0  0  0  0
 20 23  1  0  0  0  0
 17 18  1  0  0  0  0
 17 19  1  0  0  0  0
 17 20  1  0  0  0  0
 13 14  1  0  0  0  0
 13 15  1  0  0  0  0
 13 16  1  0  0  0  0
 11 12  1  0  0  0  0
 11 13  1  0  0  0  0
 11 17  1  0  0  0  0
  9 10  1  0  0  0  0
  9 11  1  0  0  0  0
  9 24  1  0  0  0  0
  7  8  1  0  0  0  0
  7  9  1  0  0  0  0
 28 29  1  0  0  0  0
 28 30  1  0  0  0  0
 28 31  1  0  0  0  0
 26 27  1  0  0  0  0
 26 28  1  0  0  0  0
M  END
$$$$
default_name
  -OEChem-02102213163D

 31 30  0     1  0  0  0  0  0999 V2000
   -3.0760   -3.6390    1.5496 H   0  0  0  0  0  0  0  0  0  0  0  0
   -3.0940   -2.6290    1.1426 C   0  0  0  0  0  0  0  0  0  0  0  0
   -3.7160   -1.9930    1.7706 H   0  0  0  0  0  0  0  0  0  0  0  0
   -3.4880   -2.6500    0.1286 H   0  0  0  0  0  0  0  0  0  0  0  0
   -1.6860   -2.0850    1.1196 C   0  0  0  0  0  0  0  0  0  0  0  0
   -0.7540   -2.7700    1.5226 O   0  0  0  0  0  0  0  0  0  0  0  0
   -1.5320   -0.8490    0.6496 N   0  0  0  0  0  0  0  0  0  0  0  0
   -2.3500   -0.3360    0.3566 H   0  0  0  0  0  0  0  0  0  0  0  0
   -0.2470   -0.1410    0.5576 C   0  0  1  0  0  0  0  0  0  0  0  0
    0.4239   -0.7541   -0.0450 H   0  0  0  0  0  0  0  0  0  0  0  0
   -0.4317    1.2160   -0.1683 C   0  0  1  0  0  0  0  0  0  0  0  0
   -0.1788    2.0006    0.5473 H   0  0  0  0  0  0  0  0  0  0  0  0
    0.5068    1.3672   -1.3808 C   0  0  0  0  0  0  0  0  0  0  0  0
    0.2444    0.6506   -2.1611 H   0  0  0  0  0  0  0  0  0  0  0  0
    0.4408    2.3753   -1.7868 H   0  0  0  0  0  0  0  0  0  0  0  0
    1.5411    1.1965   -1.0800 H   0  0  0  0  0  0  0  0  0  0  0  0
   -1.9056    1.4273   -0.5814 C   0  0  0  0  0  0  0  0  0  0  0  0
   -2.3124    0.5034   -0.9946 H   0  0  0  0  0  0  0  0  0  0  0  0
   -2.4838    1.6896    0.3045 H   0  0  0  0  0  0  0  0  0  0  0  0
   -2.1041    2.5516   -1.6070 C   0  0  0  0  0  0  0  0  0  0  0  0
   -1.6334    2.2918   -2.5550 H   0  0  0  0  0  0  0  0  0  0  0  0
   -3.1708    2.6978   -1.7782 H   0  0  0  0  0  0  0  0  0  0  0  0
   -1.6753    3.4807   -1.2297 H   0  0  0  0  0  0  0  0  0  0  0  0
    0.3833   -0.0008    1.9525 C   0  0  0  0  0  0  0  0  0  0  0  0
    1.5803   -0.2304    2.1189 O   0  0  0  0  0  0  0  0  0  0  0  0
   -0.4170    0.3858    2.9541 N   0  0  0  0  0  0  0  0  0  0  0  0
   -1.3850    0.5669    2.7398 H   0  0  0  0  0  0  0  0  0  0  0  0
    0.0265    0.5600    4.3358 C   0  0  0  0  0  0  0  0  0  0  0  0
    0.8964    1.2200    4.3632 H   0  0  0  0  0  0  0  0  0  0  0  0
   -0.7726    0.9946    4.9382 H   0  0  0  0  0  0  0  0  0  0  0  0
    0.3119   -0.4069    4.7547 H   0  0  0  0  0  0  0  0  0  0  0  0
  5  6  2  0  0  0  0
  5  7  1  0  0  0  0
  2  3  1  0  0  0  0
  2  4  1  0  0  0  0
  2  5  1  0  0  0  0
  1  2  1  0  0  0  0
 24 25  2  0  0  0  0
 24 26  1  0  0  0  0
 20 21  1  0  0  0  0
 20 22  1  0  0  0  0
 20 23  1  0  0  0  0
 17 18  1  0  0  0  0
 17 19  1  0  0  0  0
 17 20  1  0  0  0  0
 13 14  1  0  0  0  0
 13 15  1  0  0  0  0
 13 16  1  0  0  0  0
 11 12  1  0  0  0  0
 11 13  1  0  0  0  0
 11 17  1  0  0  0  0
  9 10  1  0  0  0  0
  9 11  1  0  0  0  0
  9 24  1  0  0  0  0
  7  8  1  0  0  0  0
  7  9  1  0  0  0  0
 28 29  1  0  0  0  0
 28 30  1  0  0  0  0
 28 31  1  0  0  0  0
 26 27  1  0  0  0  0
 26 28  1  0  0  0  0
M  END
$$$$
default_name
  -OEChem-02102213163D

 31 30  0     1  0  0  0  0  0999 V2000
   -3.0760   -3.6390    1.5496 H   0  0  0  0  0  0  0  0  0  0  0  0
   -3.0940   -2.6290    1.1426 C   0  0  0  0  0  0  0  0  0  0  0  0
   -3.7160   -1.9930    1.7706 H   0  0  0  0  0  0  0  0  0  0  0  0
   -3.4880   -2.6500    0.1286 H   0  0  0  0  0  0  0  0  0  0  0  0
   -1.6860   -2.0850    1.1196 C   0  0  0  0  0  0  0  0  0  0  0  0
   -0.7540   -2.7700    1.5226 O   0  0  0  0  0  0  0  0  0  0  0  0
   -1.5320   -0.8490    0.6496 N   0  0  0  0  0  0  0  0  0  0  0  0
   -2.3500   -0.3360    0.3566 H   0  0  0  0  0  0  0  0  0  0  0  0
   -0.2470   -0.1410    0.5576 C   0  0  1  0  0  0  0  0  0  0  0  0
    0.4239   -0.7541   -0.0450 H   0  0  0  0  0  0  0  0  0  0  0  0
   -0.4317    1.2160   -0.1683 C   0  0  1  0  0  0  0  0  0  0  0  0
   -0.1788    2.0006    0.5473 H   0  0  0  0  0  0  0  0  0  0  0  0
    0.5068    1.3672   -1.3808 C   0  0  0  0  0  0  0  0  0  0  0  0
    0.2444    0.6506   -2.1611 H   0  0  0  0  0  0  0  0  0  0  0  0
    0.4408    2.3753   -1.7868 H   0  0  0  0  0  0  0  0  0  0  0  0
    1.5411    1.1965   -1.0800 H   0  0  0  0  0  0  0  0  0  0  0  0
   -1.9056    1.4273   -0.5814 C   0  0  0  0  0  0  0  0  0  0  0  0
   -2.3892    0.4628   -0.7414 H   0  0  0  0  0  0  0  0  0  0  0  0
   -2.4260    1.9410    0.2269 H   0  0  0  0  0  0  0  0  0  0  0  0
   -2.0759    2.2768   -1.8482 C   0  0  0  0  0  0  0  0  0  0  0  0
   -1.6653    1.7581   -2.7143 H   0  0  0  0  0  0  0  0  0  0  0  0
   -3.1375    2.4545   -2.0217 H   0  0  0  0  0  0  0  0  0  0  0  0
   -1.5717    3.2358   -1.7248 H   0  0  0  0  0  0  0  0  0  0  0  0
    0.3833   -0.0008    1.9525 C   0  0  0  0  0  0  0  0  0  0  0  0
    1.5803   -0.2304    2.1189 O   0  0  0  0  0  0  0  0  0  0  0  0
   -0.4170    0.3858    2.9541 N   0  0  0  0  0  0  0  0  0  0  0  0
   -1.3850    0.5669    2.7398 H   0  0  0  0  0  0  0  0  0  0  0  0
    0.0265    0.5600    4.3358 C   0  0  0  0  0  0  0  0  0  0  0  0
    0.8964    1.2200    4.3632 H   0  0  0  0  0  0  0  0  0  0  0  0
   -0.7726    0.9946    4.9382 H   0  0  0  0  0  0  0  0  0  0  0  0
    0.3119   -0.4069    4.7547 H   0  0  0  0  0  0  0  0  0  0  0  0
  5  6  2  0  0  0  0
  5  7  1  0  0  0  0
  2  3  1  0  0  0  0
  2  4  1  0  0  0  0
  2  5  1  0  0  0  0
  1  2  1  0  0  0  0
 24 25  2  0  0  0  0
 24 26  1  0  0  0  0
 20 21  1  0  0  0  0
 20 22  1  0  0  0  0
 20 23  1  0  0  0  0
 17 18  1  0  0  0  0
 17 19  1  0  0  0  0
 17 20  1  0  0  0  0
 13 14  1  0  0  0  0
 13 15  1  0  0  0  0
 13 16  1  0  0  0  0
 11 12  1  0  0  0  0
 11 13  1  0  0  0  0
 11 17  1  0  0  0  0
  9 10  1  0  0  0  0
  9 11  1  0  0  0  0
  9 24  1  0  0  0  0
  7  8  1  0  0  0  0
  7  9  1  0  0  0  0
 28 29  1  0  0  0  0
 28 30  1  0  0  0  0
 28 31  1  0  0  0  0
 26 27  1  0  0  0  0
 26 28  1  0  0  0  0
M  END
$$$$
default_name
  -OEChem-02102213163D

 31 30  0     1  0  0  0  0  0999 V2000
   -3.0760   -3.6390    1.5496 H   0  0  0  0  0  0  0  0  0  0  0  0
   -3.0940   -2.6290    1.1426 C   0  0  0  0  0  0  0  0  0  0  0  0
   -3.7160   -1.9930    1.7706 H   0  0  0  0  0  0  0  0  0  0  0  0
   -3.4880   -2.6500    0.1286 H   0  0  0  0  0  0  0  0  0  0  0  0
   -1.6860   -2.0850    1.1196 C   0  0  0  0  0  0  0  0  0  0  0  0
   -0.7540   -2.7700    1.5226 O   0  0  0  0  0  0  0  0  0  0  0  0
   -1.5320   -0.8490    0.6496 N   0  0  0  0  0  0  0  0  0  0  0  0
   -2.3500   -0.3360    0.3566 H   0  0  0  0  0  0  0  0  0  0  0  0
   -0.2470   -0.1410    0.5576 C   0  0  1  0  0  0  0  0  0  0  0  0
    0.4239   -0.7541   -0.0450 H   0  0  0  0  0  0  0  0  0  0  0  0
   -0.4317    1.2160   -0.1683 C   0  0  1  0  0  0  0  0  0  0  0  0
   -0.1788    2.0006    0.5473 H   0  0  0  0  0  0  0  0  0  0  0  0
    0.5068    1.3672   -1.3808 C   0  0  0  0  0  0  0  0  0  0  0  0
    0.2444    0.6506   -2.1611 H   0  0  0  0  0  0  0  0  0  0  0  0
    0.4408    2.3753   -1.7868 H   0  0  0  0  0  0  0  0  0  0  0  0
    1.5411    1.1965   -1.0800 H   0  0  0  0  0  0  0  0  0  0  0  0
   -1.9056    1.4273   -0.5814 C   0  0  0  0  0  0  0  0  0  0  0  0
   -2.4572    0.4913   -0.4841 H   0  0  0  0  0  0  0  0  0  0  0  0
   -2.3555    2.1607    0.0877 H   0  0  0  0  0  0  0  0  0  0  0  0
   -2.0763    1.9497   -2.0143 C   0  0  0  0  0  0  0  0  0  0  0  0
   -1.7387    1.2055   -2.7353 H   0  0  0  0  0  0  0  0  0  0  0  0
   -3.1307    2.1571   -2.1981 H   0  0  0  0  0  0  0  0  0  0  0  0
   -1.5060    2.8699   -2.1463 H   0  0  0  0  0  0  0  0  0  0  0  0
    0.3833   -0.0008    1.9525 C   0  0  0  0  0  0  0  0  0  0  0  0
    1.5803   -0.2304    2.1189 O   0  0  0  0  0  0  0  0  0  0  0  0
   -0.4170    0.3858    2.9541 N   0  0  0  0  0  0  0  0  0  0  0  0
   -1.3850    0.5669    2.7398 H   0  0  0  0  0  0  0  0  0  0  0  0
    0.0265    0.5600    4.3358 C   0  0  0  0  0  0  0  0  0  0  0  0
    0.8964    1.2200    4.3632 H   0  0  0  0  0  0  0  0  0  0  0  0
   -0.7726    0.9946    4.9382 H   0  0  0  0  0  0  0  0  0  0  0  0
    0.3119   -0.4069    4.7547 H   0  0  0  0  0  0  0  0  0  0  0  0
  5  6  2  0  0  0  0
  5  7  1  0  0  0  0
  2  3  1  0  0  0  0
  2  4  1  0  0  0  0
  2  5  1  0  0  0  0
  1  2  1  0  0  0  0
 24 25  2  0  0  0  0
 24 26  1  0  0  0  0
 20 21  1  0  0  0  0
 20 22  1  0  0  0  0
 20 23  1  0  0  0  0
 17 18  1  0  0  0  0
 17 19  1  0  0  0  0
 17 20  1  0  0  0  0
 13 14  1  0  0  0  0
 13 15  1  0  0  0  0
 13 16  1  0  0  0  0
 11 12  1  0  0  0  0
 11 13  1  0  0  0  0
 11 17  1  0  0  0  0
  9 10  1  0  0  0  0
  9 11  1  0  0  0  0
  9 24  1  0  0  0  0
  7  8  1  0  0  0  0
  7  9  1  0  0  0  0
 28 29  1  0  0  0  0
 28 30  1  0  0  0  0
 28 31  1  0  0  0  0
 26 27  1  0  0  0  0
 26 28  1  0  0  0  0
M  END
$$$$
default_name
  -OEChem-02102213163D

 31 30  0     1  0  0  0  0  0999 V2000
   -3.0760   -3.6390    1.5496 H   0  0  0  0  0  0  0  0  0  0  0  0
   -3.0940   -2.6290    1.1426 C   0  0  0  0  0  0  0  0  0  0  0  0
   -3.7160   -1.9930    1.7706 H   0  0  0  0  0  0  0  0  0  0  0  0
   -3.4880   -2.6500    0.1286 H   0  0  0  0  0  0  0  0  0  0  0  0
   -1.6860   -2.0850    1.1196 C   0  0  0  0  0  0  0  0  0  0  0  0
   -0.7540   -2.7700    1.5226 O   0  0  0  0  0  0  0  0  0  0  0  0
   -1.5320   -0.8490    0.6496 N   0  0  0  0  0  0  0  0  0  0  0  0
   -2.3500   -0.3360    0.3566 H   0  0  0  0  0  0  0  0  0  0  0  0
   -0.2470   -0.1410    0.5576 C   0  0  1  0  0  0  0  0  0  0  0  0
    0.4239   -0.7541   -0.0450 H   0  0  0  0  0  0  0  0  0  0  0  0
   -0.4317    1.2160   -0.1683 C   0  0  1  0  0  0  0  0  0  0  0  0
   -0.1788    2.0006    0.5473 H   0  0  0  0  0  0  0  0  0  0  0  0
    0.5068    1.3672   -1.3808 C   0  0  0  0  0  0  0  0  0  0  0  0
    0.2444    0.6506   -2.1611 H   0  0  0  0  0  0  0  0  0  0  0  0
    0.4408    2.3753   -1.7868 H   0  0  0  0  0  0  0  0  0  0  0  0
    1.5411    1.1965   -1.0800 H   0  0  0  0  0  0  0  0  0  0  0  0
   -1.9056    1.4273   -0.5814 C   0  0  0  0  0  0  0  0  0  0  0  0
   -2.5118    0.5871   -0.2402 H   0  0  0  0  0  0  0  0  0  0  0  0
   -2.2772    2.3336   -0.1034 H   0  0  0  0  0  0  0  0  0  0  0  0
   -2.1051    1.5929   -2.0940 C   0  0  0  0  0  0  0  0  0  0  0  0
   -1.8485    0.6715   -2.6166 H   0  0  0  0  0  0  0  0  0  0  0  0
   -3.1510    1.8258   -2.2953 H   0  0  0  0  0  0  0  0  0  0  0  0
   -1.4829    2.4079   -2.4654 H   0  0  0  0  0  0  0  0  0  0  0  0
    0.3833   -0.0008    1.9525 C   0  0  0  0  0  0  0  0  0  0  0  0
    1.5803   -0.2304    2.1189 O   0  0  0  0  0  0  0  0  0  0  0  0
   -0.4170    0.3858    2.9541 N   0  0  0  0  0  0  0  0  0  0  0  0
   -1.3850    0.5669    2.7398 H   0  0  0  0  0  0  0  0  0  0  0  0
    0.0265    0.5600    4.3358 C   0  0  0  0  0  0  0  0  0  0  0  0
    0.8964    1.2200    4.3632 H   0  0  0  0  0  0  0  0  0  0  0  0
   -0.7726    0.9946    4.9382 H   0  0  0  0  0  0  0  0  0  0  0  0
    0.3119   -0.4069    4.7547 H   0  0  0  0  0  0  0  0  0  0  0  0
  5  6  2  0  0  0  0
  5  7  1  0  0  0  0
  2  3  1  0  0  0  0
  2  4  1  0  0  0  0
  2  5  1  0  0  0  0
  1  2  1  0  0  0  0
 24 25  2  0  0  0  0
 24 26  1  0  0  0  0
 20 21  1  0  0  0  0
 20 22  1  0  0  0  0
 20 23  1  0  0  0  0
 17 18  1  0  0  0  0
 17 19  1  0  0  0  0
 17 20  1  0  0  0  0
 13 14  1  0  0  0  0
 13 15  1  0  0  0  0
 13 16  1  0  0  0  0
 11 12  1  0  0  0  0
 11 13  1  0  0  0  0
 11 17  1  0  0  0  0
  9 10  1  0  0  0  0
  9 11  1  0  0  0  0
  9 24  1  0  0  0  0
  7  8  1  0  0  0  0
  7  9  1  0  0  0  0
 28 29  1  0  0  0  0
 28 30  1  0  0  0  0
 28 31  1  0  0  0  0
 26 27  1  0  0  0  0
 26 28  1  0  0  0  0
M  END
$$$$
default_name
  -OEChem-02102213163D

 31 30  0     1  0  0  0  0  0999 V2000
   -3.0760   -3.6390    1.5496 H   0  0  0  0  0  0  0  0  0  0  0  0
   -3.0940   -2.6290    1.1426 C   0  0  0  0  0  0  0  0  0  0  0  0
   -3.7160   -1.9930    1.7706 H   0  0  0  0  0  0  0  0  0  0  0  0
   -3.4880   -2.6500    0.1286 H   0  0  0  0  0  0  0  0  0  0  0  0
   -1.6860   -2.0850    1.1196 C   0  0  0  0  0  0  0  0  0  0  0  0
   -0.7540   -2.7700    1.5226 O   0  0  0  0  0  0  0  0  0  0  0  0
   -1.5320   -0.8490    0.6496 N   0  0  0  0  0  0  0  0  0  0  0  0
   -2.3500   -0.3360    0.3566 H   0  0  0  0  0  0  0  0  0  0  0  0
   -0.2470   -0.1410    0.5576 C   0  0  1  0  0  0  0  0  0  0  0  0
    0.4239   -0.7541   -0.0450 H   0  0  0  0  0  0  0  0  0  0  0  0
   -0.4317    1.2160   -0.1683 C   0  0  1  0  0  0  0  0  0  0  0  0
   -0.1788    2.0006    0.5473 H   0  0  0  0  0  0  0  0  0  0  0  0
    0.5068    1.3672   -1.3808 C   0  0  0  0  0  0  0  0  0  0  0  0
    0.2444    0.6506   -2.1611 H   0  0  0  0  0  0  0  0  0  0  0  0
    0.4408    2.3753   -1.7868 H   0  0  0  0  0  0  0  0  0  0  0  0
    1.5411    1.1965   -1.0800 H   0  0  0  0  0  0  0  0  0  0  0  0
   -1.9056    1.4273   -0.5814 C   0  0  0  0  0  0  0  0  0  0  0  0
   -2.5493    0.7437   -0.0263 H   0  0  0  0  0  0  0  0  0  0  0  0
   -2.1963    2.4481   -0.3334 H   0  0  0  0  0  0  0  0  0  0  0  0
   -2.1604    1.2305   -2.0819 C   0  0  0  0  0  0  0  0  0  0  0  0
   -1.9873    0.1927   -2.3662 H   0  0  0  0  0  0  0  0  0  0  0  0
   -3.1969    1.4832   -2.3067 H   0  0  0  0  0  0  0  0  0  0  0  0
   -1.5037    1.8812   -2.6604 H   0  0  0  0  0  0  0  0  0  0  0  0
    0.3833   -0.0008    1.9525 C   0  0  0  0  0  0  0  0  0  0  0  0
    1.5803   -0.2304    2.1189 O   0  0  0  0  0  0  0  0  0  0  0  0
   -0.4170    0.3858    2.9541 N   0  0  0  0  0  0  0  0  0  0  0  0
   -1.3850    0.5669    2.7398 H   0  0  0  0  0  0  0  0  0  0  0  0
    0.0265    0.5600    4.3358 C   0  0  0  0  0  0  0  0  0  0  0  0
    0.8964    1.2200    4.3632 H   0  0  0  0  0  0  0  0  0  0  0  0
   -0.7726    0.9946    4.9382 H   0  0  0  0  0  0  0  0  0  0  0  0
    0.3119   -0.4069    4.7547 H   0  0  0  0  0  0  0  0  0  0  0  0
  5  6  2  0  0  0  0
  5  7  1  0  0  0  0
  2  3  1  0  0  0  0
  2  4  1  0  0  0  0
  2  5  1  0  0  0  0
  1  2  1  0  0  0  0
 24 25  2  0  0  0  0
 24 26  1  0  0  0  0
 20 21  1  0  0  0  0
 20 22  1  0  0  0  0
 20 23  1  0  0  0  0
 17 18  1  0  0  0  0
 17 19  1  0  0  0  0
 17 20  1  0  0  0  0
 13 14  1  0  0  0  0
 13 15  1  0  0  0  0
 13 16  1  0  0  0  0
 11 12  1  0  0  0  0
 11 13  1  0  0  0  0
 11 17  1  0  0  0  0
  9 10  1  0  0  0  0
  9 11  1  0  0  0  0
  9 24  1  0  0  0  0
  7  8  1  0  0  0  0
  7  9  1  0  0  0  0
 28 29  1  0  0  0  0
 28 30  1  0  0  0  0
 28 31  1  0  0  0  0
 26 27  1  0  0  0  0
 26 28  1  0  0  0  0
M  END
$$$$
default_name
  -OEChem-02102213163D

 31 30  0     1  0  0  0  0  0999 V2000
   -3.0760   -3.6390    1.5496 H   0  0  0  0  0  0  0  0  0  0  0  0
   -3.0940   -2.6290    1.1426 C   0  0  0  0  0  0  0  0  0  0  0  0
   -3.7160   -1.9930    1.7706 H   0  0  0  0  0  0  0  0  0  0  0  0
   -3.4880   -2.6500    0.1286 H   0  0  0  0  0  0  0  0  0  0  0  0
   -1.6860   -2.0850    1.1196 C   0  0  0  0  0  0  0  0  0  0  0  0
   -0.7540   -2.7700    1.5226 O   0  0  0  0  0  0  0  0  0  0  0  0
   -1.5320   -0.8490    0.6496 N   0  0  0  0  0  0  0  0  0  0  0  0
   -2.3500   -0.3360    0.3566 H   0  0  0  0  0  0  0  0  0  0  0  0
   -0.2470   -0.1410    0.5576 C   0  0  1  0  0  0  0  0  0  0  0  0
    0.4239   -0.7541   -0.0450 H   0  0  0  0  0  0  0  0  0  0  0  0
   -0.4317    1.2160   -0.1683 C   0  0  1  0  0  0  0  0  0  0  0  0
   -0.1788    2.0006    0.5473 H   0  0  0  0  0  0  0  0  0  0  0  0
    0.5068    1.3672   -1.3808 C   0  0  0  0  0  0  0  0  0  0  0  0
    0.2444    0.6506   -2.1611 H   0  0  0  0  0  0  0  0  0  0  0  0
    0.4408    2.3753   -1.7868 H   0  0  0  0  0  0  0  0  0  0  0  0
    1.5411    1.1965   -1.0800 H   0  0  0  0  0  0  0  0  0  0  0  0
   -1.9056    1.4273   -0.5814 C   0  0  0  0  0  0  0  0  0  0  0  0
   -2.5671    0.9503    0.1429 H   0  0  0  0  0  0  0  0  0  0  0  0
   -2.1184    2.4963   -0.5868 H   0  0  0  0  0  0  0  0  0  0  0  0
   -2.2386    0.8873   -1.9788 C   0  0  0  0  0  0  0  0  0  0  0  0
   -2.1457   -0.1984   -2.0012 H   0  0  0  0  0  0  0  0  0  0  0  0
   -3.2654    1.1527   -2.2315 H   0  0  0  0  0  0  0  0  0  0  0  0
   -1.5673    1.3258   -2.7180 H   0  0  0  0  0  0  0  0  0  0  0  0
    0.3833   -0.0008    1.9525 C   0  0  0  0  0  0  0  0  0  0  0  0
    1.5803   -0.2304    2.1189 O   0  0  0  0  0  0  0  0  0  0  0  0
   -0.4170    0.3858    2.9541 N   0  0  0  0  0  0  0  0  0  0  0  0
   -1.3850    0.5669    2.7398 H   0  0  0  0  0  0  0  0  0  0  0  0
    0.0265    0.5600    4.3358 C   0  0  0  0  0  0  0  0  0  0  0  0
    0.8964    1.2200    4.3632 H   0  0  0  0  0  0  0  0  0  0  0  0
   -0.7726    0.9946    4.9382 H   0  0  0  0  0  0  0  0  0  0  0  0
    0.3119   -0.4069    4.7547 H   0  0  0  0  0  0  0  0  0  0  0  0
  5  6  2  0  0  0  0
  5  7  1  0  0  0  0
  2  3  1  0  0  0  0
  2  4  1  0  0  0  0
  2  5  1  0  0  0  0
  1  2  1  0  0  0  0
 24 25  2  0  0  0  0
 24 26  1  0  0  0  0
 20 21  1  0  0  0  0
 20 22  1  0  0  0  0
 20 23  1  0  0  0  0
 17 18  1  0  0  0  0
 17 19  1  0  0  0  0
 17 20  1  0  0  0  0
 13 14  1  0  0  0  0
 13 15  1  0  0  0  0
 13 16  1  0  0  0  0
 11 12  1  0  0  0  0
 11 13  1  0  0  0  0
 11 17  1  0  0  0  0
  9 10  1  0  0  0  0
  9 11  1  0  0  0  0
  9 24  1  0  0  0  0
  7  8  1  0  0  0  0
  7  9  1  0  0  0  0
 28 29  1  0  0  0  0
 28 30  1  0  0  0  0
 28 31  1  0  0  0  0
 26 27  1  0  0  0  0
 26 28  1  0  0  0  0
M  END
$$$$
default_name
  -OEChem-02102213163D

 31 30  0     1  0  0  0  0  0999 V2000
   -3.0760   -3.6390    1.5496 H   0  0  0  0  0  0  0  0  0  0  0  0
   -3.0940   -2.6290    1.1426 C   0  0  0  0  0  0  0  0  0  0  0  0
   -3.7160   -1.9930    1.7706 H   0  0  0  0  0  0  0  0  0  0  0  0
   -3.4880   -2.6500    0.1286 H   0  0  0  0  0  0  0  0  0  0  0  0
   -1.6860   -2.0850    1.1196 C   0  0  0  0  0  0  0  0  0  0  0  0
   -0.7540   -2.7700    1.5226 O   0  0  0  0  0  0  0  0  0  0  0  0
   -1.5320   -0.8490    0.6496 N   0  0  0  0  0  0  0  0  0  0  0  0
   -2.3500   -0.3360    0.3566 H   0  0  0  0  0  0  0  0  0  0  0  0
   -0.2470   -0.1410    0.5576 C   0  0  1  0  0  0  0  0  0  0  0  0
    0.4239   -0.7541   -0.0450 H   0  0  0  0  0  0  0  0  0  0  0  0
   -0.4317    1.2160   -0.1683 C   0  0  1  0  0  0  0  0  0  0  0  0
   -0.1788    2.0006    0.5473 H   0  0  0  0  0  0  0  0  0  0  0  0
    0.5068    1.3672   -1.3808 C   0  0  0  0  0  0  0  0  0  0  0  0
    0.2444    0.6506   -2.1611 H   0  0  0  0  0  0  0  0  0  0  0  0
    0.4408    2.3753   -1.7868 H   0  0  0  0  0  0  0  0  0  0  0  0
    1.5411    1.1965   -1.0800 H   0  0  0  0  0  0  0  0  0  0  0  0
   -1.9056    1.4273   -0.5814 C   0  0  0  0  0  0  0  0  0  0  0  0
   -2.5640    1.1929    0.2560 H   0  0  0  0  0  0  0  0  0  0  0  0
   -2.0487    2.4749   -0.8462 H   0  0  0  0  0  0  0  0  0  0  0  0
   -2.3341    0.5866   -1.7917 C   0  0  0  0  0  0  0  0  0  0  0  0
   -2.3128   -0.4751   -1.5465 H   0  0  0  0  0  0  0  0  0  0  0  0
   -3.3517    0.8567   -2.0748 H   0  0  0  0  0  0  0  0  0  0  0  0
   -1.6691    0.7795   -2.6342 H   0  0  0  0  0  0  0  0  0  0  0  0
    0.3833   -0.0008    1.9525 C   0  0  0  0  0  0  0  0  0  0  0  0
    1.5803   -0.2304    2.1189 O   0  0  0  0  0  0  0  0  0  0  0  0
   -0.4170    0.3858    2.9541 N   0  0  0  0  0  0  0  0  0  0  0  0
   -1.3850    0.5669    2.7398 H   0  0  0  0  0  0  0  0  0  0  0  0
    0.0265    0.5600    4.3358 C   0  0  0  0  0  0  0  0  0  0  0  0
    0.8964    1.2200    4.3632 H   0  0  0  0  0  0  0  0  0  0  0  0
   -0.7726    0.9946    4.9382 H   0  0  0  0  0  0  0  0  0  0  0  0
    0.3119   -0.4069    4.7547 H   0  0  0  0  0  0  0  0  0  0  0  0
  5  6  2  0  0  0  0
  5  7  1  0  0  0  0
  2  3  1  0  0  0  0
  2  4  1  0  0  0  0
  2  5  1  0  0  0  0
  1  2  1  0  0  0  0
 24 25  2  0  0  0  0
 24 26  1  0  0  0  0
 20 21  1  0  0  0  0
 20 22  1  0  0  0  0
 20 23  1  0  0  0  0
 17 18  1  0  0  0  0
 17 19  1  0  0  0  0
 17 20  1  0  0  0  0
 13 14  1  0  0  0  0
 13 15  1  0  0  0  0
 13 16  1  0  0  0  0
 11 12  1  0  0  0  0
 11 13  1  0  0  0  0
 11 17  1  0  0  0  0
  9 10  1  0  0  0  0
  9 11  1  0  0  0  0
  9 24  1  0  0  0  0
  7  8  1  0  0  0  0
  7  9  1  0  0  0  0
 28 29  1  0  0  0  0
 28 30  1  0  0  0  0
 28 31  1  0  0  0  0
 26 27  1  0  0  0  0
 26 28  1  0  0  0  0
M  END
$$$$
default_name
  -OEChem-02102213163D

 31 30  0     1  0  0  0  0  0999 V2000
   -3.0760   -3.6390    1.5496 H   0  0  0  0  0  0  0  0  0  0  0  0
   -3.0940   -2.6290    1.1426 C   0  0  0  0  0  0  0  0  0  0  0  0
   -3.7160   -1.9930    1.7706 H   0  0  0  0  0  0  0  0  0  0  0  0
   -3.4880   -2.6500    0.1286 H   0  0  0  0  0  0  0  0  0  0  0  0
   -1.6860   -2.0850    1.1196 C   0  0  0  0  0  0  0  0  0  0  0  0
   -0.7540   -2.7700    1.5226 O   0  0  0  0  0  0  0  0  0  0  0  0
   -1.5320   -0.8490    0.6496 N   0  0  0  0  0  0  0  0  0  0  0  0
   -2.3500   -0.3360    0.3566 H   0  0  0  0  0  0  0  0  0  0  0  0
   -0.2470   -0.1410    0.5576 C   0  0  1  0  0  0  0  0  0  0  0  0
    0.4239   -0.7541   -0.0450 H   0  0  0  0  0  0  0  0  0  0  0  0
   -0.4317    1.2160   -0.1683 C   0  0  1  0  0  0  0  0  0  0  0  0
   -0.1788    2.0006    0.5473 H   0  0  0  0  0  0  0  0  0  0  0  0
    0.5068    1.3672   -1.3808 C   0  0  0  0  0  0  0  0  0  0  0  0
    0.2444    0.6506   -2.1611 H   0  0  0  0  0  0  0  0  0  0  0  0
    0.4408    2.3753   -1.7868 H   0  0  0  0  0  0  0  0  0  0  0  0
    1.5411    1.1965   -1.0800 H   0  0  0  0  0  0  0  0  0  0  0  0
   -1.9056    1.4273   -0.5814 C   0  0  0  0  0  0  0  0  0  0  0  0
   -2.5403    1.4549    0.3053 H   0  0  0  0  0  0  0  0  0  0  0  0
   -1.9921    2.3854   -1.0939 H   0  0  0  0  0  0  0  0  0  0  0  0
   -2.4406    0.3490   -1.5334 C   0  0  0  0  0  0  0  0  0  0  0  0
   -2.4773   -0.6185   -1.0331 H   0  0  0  0  0  0  0  0  0  0  0  0
   -3.4501    0.6154   -1.8473 H   0  0  0  0  0  0  0  0  0  0  0  0
   -1.8023    0.2795   -2.4148 H   0  0  0  0  0  0  0  0  0  0  0  0
    0.3833   -0.0008    1.9525 C   0  0  0  0  0  0  0  0  0  0  0  0
    1.5803   -0.2304    2.1189 O   0  0  0  0  0  0  0  0  0  0  0  0
   -0.4170    0.3858    2.9541 N   0  0  0  0  0  0  0  0  0  0  0  0
   -1.3850    0.5669    2.7398 H   0  0  0  0  0  0  0  0  0  0  0  0
    0.0265    0.5600    4.3358 C   0  0  0  0  0  0  0  0  0  0  0  0
    0.8964    1.2200    4.3632 H   0  0  0  0  0  0  0  0  0  0  0  0
   -0.7726    0.9946    4.9382 H   0  0  0  0  0  0  0  0  0  0  0  0
    0.3119   -0.4069    4.7547 H   0  0  0  0  0  0  0  0  0  0  0  0
  5  6  2  0  0  0  0
  5  7  1  0  0  0  0
  2  3  1  0  0  0  0
  2  4  1  0  0  0  0
  2  5  1  0  0  0  0
  1  2  1  0  0  0  0
 24 25  2  0  0  0  0
 24 26  1  0  0  0  0
 20 21  1  0  0  0  0
 20 22  1  0  0  0  0
 20 23  1  0  0  0  0
 17 18  1  0  0  0  0
 17 19  1  0  0  0  0
 17 20  1  0  0  0  0
 13 14  1  0  0  0  0
 13 15  1  0  0  0  0
 13 16  1  0  0  0  0
 11 12  1  0  0  0  0
 11 13  1  0  0  0  0
 11 17  1  0  0  0  0
  9 10  1  0  0  0  0
  9 11  1  0  0  0  0
  9 24  1  0  0  0  0
  7  8  1  0  0  0  0
  7  9  1  0  0  0  0
 28 29  1  0  0  0  0
 28 30  1  0  0  0  0
 28 31  1  0  0  0  0
 26 27  1  0  0  0  0
 26 28  1  0  0  0  0
M  END
$$$$
default_name
  -OEChem-02102213163D

 31 30  0     1  0  0  0  0  0999 V2000
   -3.0760   -3.6390    1.5496 H   0  0  0  0  0  0  0  0  0  0  0  0
   -3.0940   -2.6290    1.1426 C   0  0  0  0  0  0  0  0  0  0  0  0
   -3.7160   -1.9930    1.7706 H   0  0  0  0  0  0  0  0  0  0  0  0
   -3.4880   -2.6500    0.1286 H   0  0  0  0  0  0  0  0  0  0  0  0
   -1.6860   -2.0850    1.1196 C   0  0  0  0  0  0  0  0  0  0  0  0
   -0.7540   -2.7700    1.5226 O   0  0  0  0  0  0  0  0  0  0  0  0
   -1.5320   -0.8490    0.6496 N   0  0  0  0  0  0  0  0  0  0  0  0
   -2.3500   -0.3360    0.3566 H   0  0  0  0  0  0  0  0  0  0  0  0
   -0.2470   -0.1410    0.5576 C   0  0  1  0  0  0  0  0  0  0  0  0
    0.4239   -0.7541   -0.0450 H   0  0  0  0  0  0  0  0  0  0  0  0
   -0.4317    1.2160   -0.1683 C   0  0  1  0  0  0  0  0  0  0  0  0
   -0.1788    2.0006    0.5473 H   0  0  0  0  0  0  0  0  0  0  0  0
    0.5068    1.3672   -1.3808 C   0  0  0  0  0  0  0  0  0  0  0  0
    0.2444    0.6506   -2.1611 H   0  0  0  0  0  0  0  0  0  0  0  0
    0.4408    2.3753   -1.7868 H   0  0  0  0  0  0  0  0  0  0  0  0
    1.5411    1.1965   -1.0800 H   0  0  0  0  0  0  0  0  0  0  0  0
   -1.9056    1.4273   -0.5814 C   0  0  0  0  0  0  0  0  0  0  0  0
   -2.4974    1.7185    0.2874 H   0  0  0  0  0  0  0  0  0  0  0  0
   -1.9524    2.2338   -1.3131 H   0  0  0  0  0  0  0  0  0  0  0  0
   -2.5507    0.1906   -1.2214 C   0  0  0  0  0  0  0  0  0  0  0  0
   -2.6279   -0.6190   -0.4959 H   0  0  0  0  0  0  0  0  0  0  0  0
   -3.5537    0.4454   -1.5645 H   0  0  0  0  0  0  0  0  0  0  0  0
   -1.9577   -0.1401   -2.0748 H   0  0  0  0  0  0  0  0  0  0  0  0
    0.3833   -0.0008    1.9525 C   0  0  0  0  0  0  0  0  0  0  0  0
    1.5803   -0.2304    2.1189 O   0  0  0  0  0  0  0  0  0  0  0  0
   -0.4170    0.3858    2.9541 N   0  0  0  0  0  0  0  0  0  0  0  0
   -1.3850    0.5669    2.7398 H   0  0  0  0  0  0  0  0  0  0  0  0
    0.0265    0.5600    4.3358 C   0  0  0  0  0  0  0  0  0  0  0  0
    0.8964    1.2200    4.3632 H   0  0  0  0  0  0  0  0  0  0  0  0
   -0.7726    0.9946    4.9382 H   0  0  0  0  0  0  0  0  0  0  0  0
    0.3119   -0.4069    4.7547 H   0  0  0  0  0  0  0  0  0  0  0  0
  5  6  2  0  0  0  0
  5  7  1  0  0  0  0
  2  3  1  0  0  0  0
  2  4  1  0  0  0  0
  2  5  1  0  0  0  0
  1  2  1  0  0  0  0
 24 25  2  0  0  0  0
 24 26  1  0  0  0  0
 20 21  1  0  0  0  0
 20 22  1  0  0  0  0
 20 23  1  0  0  0  0
 17 18  1  0  0  0  0
 17 19  1  0  0  0  0
 17 20  1  0  0  0  0
 13 14  1  0  0  0  0
 13 15  1  0  0  0  0
 13 16  1  0  0  0  0
 11 12  1  0  0  0  0
 11 13  1  0  0  0  0
 11 17  1  0  0  0  0
  9 10  1  0  0  0  0
  9 11  1  0  0  0  0
  9 24  1  0  0  0  0
  7  8  1  0  0  0  0
  7  9  1  0  0  0  0
 28 29  1  0  0  0  0
 28 30  1  0  0  0  0
 28 31  1  0  0  0  0
 26 27  1  0  0  0  0
 26 28  1  0  0  0  0
M  END
$$$$
default_name
  -OEChem-02102213163D

 31 30  0     1  0  0  0  0  0999 V2000
   -3.0760   -3.6390    1.5496 H   0  0  0  0  0  0  0  0  0  0  0  0
   -3.0940   -2.6290    1.1426 C   0  0  0  0  0  0  0  0  0  0  0  0
   -3.7160   -1.9930    1.7706 H   0  0  0  0  0  0  0  0  0  0  0  0
   -3.4880   -2.6500    0.1286 H   0  0  0  0  0  0  0  0  0  0  0  0
   -1.6860   -2.0850    1.1196 C   0  0  0  0  0  0  0  0  0  0  0  0
   -0.7540   -2.7700    1.5226 O   0  0  0  0  0  0  0  0  0  0  0  0
   -1.5320   -0.8490    0.6496 N   0  0  0  0  0  0  0  0  0  0  0  0
   -2.3500   -0.3360    0.3566 H   0  0  0  0  0  0  0  0  0  0  0  0
   -0.2470   -0.1410    0.5576 C   0  0  1  0  0  0  0  0  0  0  0  0
    0.4239   -0.7541   -0.0450 H   0  0  0  0  0  0  0  0  0  0  0  0
   -0.4317    1.2160   -0.1683 C   0  0  1  0  0  0  0  0  0  0  0  0
   -0.1788    2.0006    0.5473 H   0  0  0  0  0  0  0  0  0  0  0  0
    0.5068    1.3672   -1.3808 C   0  0  0  0  0  0  0  0  0  0  0  0
    0.2444    0.6506   -2.1611 H   0  0  0  0  0  0  0  0  0  0  0  0
    0.4408    2.3753   -1.7868 H   0  0  0  0  0  0  0  0  0  0  0  0
    1.5411    1.1965   -1.0800 H   0  0  0  0  0  0  0  0  0  0  0  0
   -1.9056    1.4273   -0.5814 C   0  0  0  0  0  0  0  0  0  0  0  0
   -2.4385    1.9657    0.2034 H   0  0  0  0  0  0  0  0  0  0  0  0
   -1.9323    2.0306   -1.4888 H   0  0  0  0  0  0  0  0  0  0  0  0
   -2.6570    0.1223   -0.8771 C   0  0  0  0  0  0  0  0  0  0  0  0
   -2.7544   -0.4763    0.0284 H   0  0  0  0  0  0  0  0  0  0  0  0
   -3.6556    0.3581   -1.2458 H   0  0  0  0  0  0  0  0  0  0  0  0
   -2.1249   -0.4506   -1.6373 H   0  0  0  0  0  0  0  0  0  0  0  0
    0.3833   -0.0008    1.9525 C   0  0  0  0  0  0  0  0  0  0  0  0
    1.5803   -0.2304    2.1189 O   0  0  0  0  0  0  0  0  0  0  0  0
   -0.4170    0.3858    2.9541 N   0  0  0  0  0  0  0  0  0  0  0  0
   -1.3850    0.5669    2.7398 H   0  0  0  0  0  0  0  0  0  0  0  0
    0.0265    0.5600    4.3358 C   0  0  0  0  0  0  0  0  0  0  0  0
    0.8964    1.2200    4.3632 H   0  0  0  0  0  0  0  0  0  0  0  0
   -0.7726    0.9946    4.9382 H   0  0  0  0  0  0  0  0  0  0  0  0
    0.3119   -0.4069    4.7547 H   0  0  0  0  0  0  0  0  0  0  0  0
  5  6  2  0  0  0  0
  5  7  1  0  0  0  0
  2  3  1  0  0  0  0
  2  4  1  0  0  0  0
  2  5  1  0  0  0  0
  1  2  1  0  0  0  0
 24 25  2  0  0  0  0
 24 26  1  0  0  0  0
 20 21  1  0  0  0  0
 20 22  1  0  0  0  0
 20 23  1  0  0  0  0
 17 18  1  0  0  0  0
 17 19  1  0  0  0  0
 17 20  1  0  0  0  0
 13 14  1  0  0  0  0
 13 15  1  0  0  0  0
 13 16  1  0  0  0  0
 11 12  1  0  0  0  0
 11 13  1  0  0  0  0
 11 17  1  0  0  0  0
  9 10  1  0  0  0  0
  9 11  1  0  0  0  0
  9 24  1  0  0  0  0
  7  8  1  0  0  0  0
  7  9  1  0  0  0  0
 28 29  1  0  0  0  0
 28 30  1  0  0  0  0
 28 31  1  0  0  0  0
 26 27  1  0  0  0  0
 26 28  1  0  0  0  0
M  END
$$$$
default_name
  -OEChem-02102213163D

 31 30  0     1  0  0  0  0  0999 V2000
   -3.0760   -3.6390    1.5496 H   0  0  0  0  0  0  0  0  0  0  0  0
   -3.0940   -2.6290    1.1426 C   0  0  0  0  0  0  0  0  0  0  0  0
   -3.7160   -1.9930    1.7706 H   0  0  0  0  0  0  0  0  0  0  0  0
   -3.4880   -2.6500    0.1286 H   0  0  0  0  0  0  0  0  0  0  0  0
   -1.6860   -2.0850    1.1196 C   0  0  0  0  0  0  0  0  0  0  0  0
   -0.7540   -2.7700    1.5226 O   0  0  0  0  0  0  0  0  0  0  0  0
   -1.5320   -0.8490    0.6496 N   0  0  0  0  0  0  0  0  0  0  0  0
   -2.3500   -0.3360    0.3566 H   0  0  0  0  0  0  0  0  0  0  0  0
   -0.2470   -0.1410    0.5576 C   0  0  1  0  0  0  0  0  0  0  0  0
    0.4239   -0.7541   -0.0450 H   0  0  0  0  0  0  0  0  0  0  0  0
   -0.4317    1.2160   -0.1683 C   0  0  1  0  0  0  0  0  0  0  0  0
   -0.1788    2.0006    0.5473 H   0  0  0  0  0  0  0  0  0  0  0  0
    0.5068    1.3672   -1.3808 C   0  0  0  0  0  0  0  0  0  0  0  0
    0.2444    0.6506   -2.1611 H   0  0  0  0  0  0  0  0  0  0  0  0
    0.4408    2.3753   -1.7868 H   0  0  0  0  0  0  0  0  0  0  0  0
    1.5411    1.1965   -1.0800 H   0  0  0  0  0  0  0  0  0  0  0  0
   -1.9056    1.4273   -0.5814 C   0  0  0  0  0  0  0  0  0  0  0  0
   -2.3674    2.1798    0.0593 H   0  0  0  0  0  0  0  0  0  0  0  0
   -1.9332    1.7895   -1.6090 H   0  0  0  0  0  0  0  0  0  0  0  0
   -2.7523    0.1486   -0.5238 C   0  0  0  0  0  0  0  0  0  0  0  0
   -2.8482   -0.2004    0.5041 H   0  0  0  0  0  0  0  0  0  0  0  0
   -3.7487    0.3595   -0.9127 H   0  0  0  0  0  0  0  0  0  0  0  0
   -2.2924   -0.6310   -1.1320 H   0  0  0  0  0  0  0  0  0  0  0  0
    0.3833   -0.0008    1.9525 C   0  0  0  0  0  0  0  0  0  0  0  0
    1.5803   -0.2304    2.1189 O   0  0  0  0  0  0  0  0  0  0  0  0
   -0.4170    0.3858    2.9541 N   0  0  0  0  0  0  0  0  0  0  0  0
   -1.3850    0.5669    2.7398 H   0  0  0  0  0  0  0  0  0  0  0  0
    0.0265    0.5600    4.3358 C   0  0  0  0  0  0  0  0  0  0  0  0
    0.8964    1.2200    4.3632 H   0  0  0  0  0  0  0  0  0  0  0  0
   -0.7726    0.9946    4.9382 H   0  0  0  0  0  0  0  0  0  0  0  0
    0.3119   -0.4069    4.7547 H   0  0  0  0  0  0  0  0  0  0  0  0
  5  6  2  0  0  0  0
  5  7  1  0  0  0  0
  2  3  1  0  0  0  0
  2  4  1  0  0  0  0
  2  5  1  0  0  0  0
  1  2  1  0  0  0  0
 24 25  2  0  0  0  0
 24 26  1  0  0  0  0
 20 21  1  0  0  0  0
 20 22  1  0  0  0  0
 20 23  1  0  0  0  0
 17 18  1  0  0  0  0
 17 19  1  0  0  0  0
 17 20  1  0  0  0  0
 13 14  1  0  0  0  0
 13 15  1  0  0  0  0
 13 16  1  0  0  0  0
 11 12  1  0  0  0  0
 11 13  1  0  0  0  0
 11 17  1  0  0  0  0
  9 10  1  0  0  0  0
  9 11  1  0  0  0  0
  9 24  1  0  0  0  0
  7  8  1  0  0  0  0
  7  9  1  0  0  0  0
 28 29  1  0  0  0  0
 28 30  1  0  0  0  0
 28 31  1  0  0  0  0
 26 27  1  0  0  0  0
 26 28  1  0  0  0  0
M  END
$$$$
default_name
  -OEChem-02102213163D

 31 30  0     1  0  0  0  0  0999 V2000
   -3.0760   -3.6390    1.5496 H   0  0  0  0  0  0  0  0  0  0  0  0
   -3.0940   -2.6290    1.1426 C   0  0  0  0  0  0  0  0  0  0  0  0
   -3.7160   -1.9930    1.7706 H   0  0  0  0  0  0  0  0  0  0  0  0
   -3.4880   -2.6500    0.1286 H   0  0  0  0  0  0  0  0  0  0  0  0
   -1.6860   -2.0850    1.1196 C   0  0  0  0  0  0  0  0  0  0  0  0
   -0.7540   -2.7700    1.5226 O   0  0  0  0  0  0  0  0  0  0  0  0
   -1.5320   -0.8490    0.6496 N   0  0  0  0  0  0  0  0  0  0  0  0
   -2.3500   -0.3360    0.3566 H   0  0  0  0  0  0  0  0  0  0  0  0
   -0.2470   -0.1410    0.5576 C   0  0  1  0  0  0  0  0  0  0  0  0
    0.4239   -0.7541   -0.0450 H   0  0  0  0  0  0  0  0  0  0  0  0
   -0.4317    1.2160   -0.1683 C   0  0  1  0  0  0  0  0  0  0  0  0
   -0.1788    2.0006    0.5473 H   0  0  0  0  0  0  0  0  0  0  0  0
    0.5068    1.3672   -1.3808 C   0  0  0  0  0  0  0  0  0  0  0  0
    0.2444    0.6506   -2.1611 H   0  0  0  0  0  0  0  0  0  0  0  0
    0.4408    2.3753   -1.7868 H   0  0  0  0  0  0  0  0  0  0  0  0
    1.5411    1.1965   -1.0800 H   0  0  0  0  0  0  0  0  0  0  0  0
   -1.9056    1.4273   -0.5814 C   0  0  0  0  0  0  0  0  0  0  0  0
   -2.2890    2.3460   -0.1354 H   0  0  0  0  0  0  0  0  0  0  0  0
   -1.9550    1.5270   -1.6657 H   0  0  0  0  0  0  0  0  0  0  0  0
   -2.8299    0.2679   -0.1858 C   0  0  0  0  0  0  0  0  0  0  0  0
   -2.9028    0.1901    0.8988 H   0  0  0  0  0  0  0  0  0  0  0  0
   -3.8268    0.4496   -0.5880 H   0  0  0  0  0  0  0  0  0  0  0  0
   -2.4487   -0.6690   -0.5936 H   0  0  0  0  0  0  0  0  0  0  0  0
    0.3833   -0.0008    1.9525 C   0  0  0  0  0  0  0  0  0  0  0  0
    1.5803   -0.2304    2.1189 O   0  0  0  0  0  0  0  0  0  0  0  0
   -0.4170    0.3858    2.9541 N   0  0  0  0  0  0  0  0  0  0  0  0
   -1.3850    0.5669    2.7398 H   0  0  0  0  0  0  0  0  0  0  0  0
    0.0265    0.5600    4.3358 C   0  0  0  0  0  0  0  0  0  0  0  0
    0.8964    1.2200    4.3632 H   0  0  0  0  0  0  0  0  0  0  0  0
   -0.7726    0.9946    4.9382 H   0  0  0  0  0  0  0  0  0  0  0  0
    0.3119   -0.4069    4.7547 H   0  0  0  0  0  0  0  0  0  0  0  0
  5  6  2  0  0  0  0
  5  7  1  0  0  0  0
  2  3  1  0  0  0  0
  2  4  1  0  0  0  0
  2  5  1  0  0  0  0
  1  2  1  0  0  0  0
 24 25  2  0  0  0  0
 24 26  1  0  0  0  0
 20 21  1  0  0  0  0
 20 22  1  0  0  0  0
 20 23  1  0  0  0  0
 17 18  1  0  0  0  0
 17 19  1  0  0  0  0
 17 20  1  0  0  0  0
 13 14  1  0  0  0  0
 13 15  1  0  0  0  0
 13 16  1  0  0  0  0
 11 12  1  0  0  0  0
 11 13  1  0  0  0  0
 11 17  1  0  0  0  0
  9 10  1  0  0  0  0
  9 11  1  0  0  0  0
  9 24  1  0  0  0  0
  7  8  1  0  0  0  0
  7  9  1  0  0  0  0
 28 29  1  0  0  0  0
 28 30  1  0  0  0  0
 28 31  1  0  0  0  0
 26 27  1  0  0  0  0
 26 28  1  0  0  0  0
M  END
$$$$
default_name
  -OEChem-02102213163D

 31 30  0     1  0  0  0  0  0999 V2000
   -3.0760   -3.6390    1.5496 H   0  0  0  0  0  0  0  0  0  0  0  0
   -3.0940   -2.6290    1.1426 C   0  0  0  0  0  0  0  0  0  0  0  0
   -3.7160   -1.9930    1.7706 H   0  0  0  0  0  0  0  0  0  0  0  0
   -3.4880   -2.6500    0.1286 H   0  0  0  0  0  0  0  0  0  0  0  0
   -1.6860   -2.0850    1.1196 C   0  0  0  0  0  0  0  0  0  0  0  0
   -0.7540   -2.7700    1.5226 O   0  0  0  0  0  0  0  0  0  0  0  0
   -1.5320   -0.8490    0.6496 N   0  0  0  0  0  0  0  0  0  0  0  0
   -2.3500   -0.3360    0.3566 H   0  0  0  0  0  0  0  0  0  0  0  0
   -0.2470   -0.1410    0.5576 C   0  0  1  0  0  0  0  0  0  0  0  0
    0.4239   -0.7541   -0.0450 H   0  0  0  0  0  0  0  0  0  0  0  0
   -0.4317    1.2160   -0.1683 C   0  0  1  0  0  0  0  0  0  0  0  0
   -0.1788    2.0006    0.5473 H   0  0  0  0  0  0  0  0  0  0  0  0
    0.5068    1.3672   -1.3808 C   0  0  0  0  0  0  0  0  0  0  0  0
    0.2444    0.6506   -2.1611 H   0  0  0  0  0  0  0  0  0  0  0  0
    0.4408    2.3753   -1.7868 H   0  0  0  0  0  0  0  0  0  0  0  0
    1.5411    1.1965   -1.0800 H   0  0  0  0  0  0  0  0  0  0  0  0
   -1.9056    1.4273   -0.5814 C   0  0  0  0  0  0  0  0  0  0  0  0
   -2.2087    2.4530   -0.3672 H   0  0  0  0  0  0  0  0  0  0  0  0
   -1.9962    1.2610   -1.6548 H   0  0  0  0  0  0  0  0  0  0  0  0
   -2.8847    0.4719    0.1141 C   0  0  0  0  0  0  0  0  0  0  0  0
   -2.9146    0.6685    1.1856 H   0  0  0  0  0  0  0  0  0  0  0  0
   -3.8845    0.6221   -0.2939 H   0  0  0  0  0  0  0  0  0  0  0  0
   -2.5833   -0.5619   -0.0585 H   0  0  0  0  0  0  0  0  0  0  0  0
    0.3833   -0.0008    1.9525 C   0  0  0  0  0  0  0  0  0  0  0  0
    1.5803   -0.2304    2.1189 O   0  0  0  0  0  0  0  0  0  0  0  0
   -0.4170    0.3858    2.9541 N   0  0  0  0  0  0  0  0  0  0  0  0
   -1.3850    0.5669    2.7398 H   0  0  0  0  0  0  0  0  0  0  0  0
    0.0265    0.5600    4.3358 C   0  0  0  0  0  0  0  0  0  0  0  0
    0.8964    1.2200    4.3632 H   0  0  0  0  0  0  0  0  0  0  0  0
   -0.7726    0.9946    4.9382 H   0  0  0  0  0  0  0  0  0  0  0  0
    0.3119   -0.4069    4.7547 H   0  0  0  0  0  0  0  0  0  0  0  0
  5  6  2  0  0  0  0
  5  7  1  0  0  0  0
  2  3  1  0  0  0  0
  2  4  1  0  0  0  0
  2  5  1  0  0  0  0
  1  2  1  0  0  0  0
 24 25  2  0  0  0  0
 24 26  1  0  0  0  0
 20 21  1  0  0  0  0
 20 22  1  0  0  0  0
 20 23  1  0  0  0  0
 17 18  1  0  0  0  0
 17 19  1  0  0  0  0
 17 20  1  0  0  0  0
 13 14  1  0  0  0  0
 13 15  1  0  0  0  0
 13 16  1  0  0  0  0
 11 12  1  0  0  0  0
 11 13  1  0  0  0  0
 11 17  1  0  0  0  0
  9 10  1  0  0  0  0
  9 11  1  0  0  0  0
  9 24  1  0  0  0  0
  7  8  1  0  0  0  0
  7  9  1  0  0  0  0
 28 29  1  0  0  0  0
 28 30  1  0  0  0  0
 28 31  1  0  0  0  0
 26 27  1  0  0  0  0
 26 28  1  0  0  0  0
M  END
$$$$
default_name
  -OEChem-02102213163D

 31 30  0     1  0  0  0  0  0999 V2000
   -3.0760   -3.6390    1.5496 H   0  0  0  0  0  0  0  0  0  0  0  0
   -3.0940   -2.6290    1.1426 C   0  0  0  0  0  0  0  0  0  0  0  0
   -3.7160   -1.9930    1.7706 H   0  0  0  0  0  0  0  0  0  0  0  0
   -3.4880   -2.6500    0.1286 H   0  0  0  0  0  0  0  0  0  0  0  0
   -1.6860   -2.0850    1.1196 C   0  0  0  0  0  0  0  0  0  0  0  0
   -0.7540   -2.7700    1.5226 O   0  0  0  0  0  0  0  0  0  0  0  0
   -1.5320   -0.8490    0.6496 N   0  0  0  0  0  0  0  0  0  0  0  0
   -2.3500   -0.3360    0.3566 H   0  0  0  0  0  0  0  0  0  0  0  0
   -0.2470   -0.1410    0.5576 C   0  0  1  0  0  0  0  0  0  0  0  0
    0.4239   -0.7541   -0.0450 H   0  0  0  0  0  0  0  0  0  0  0  0
   -0.4317    1.2160   -0.1683 C   0  0  1  0  0  0  0  0  0  0  0  0
   -0.1788    2.0006    0.5473 H   0  0  0  0  0  0  0  0  0  0  0  0
    0.5068    1.3672   -1.3808 C   0  0  0  0  0  0  0  0  0  0  0  0
    0.2444    0.6506   -2.1611 H   0  0  0  0  0  0  0  0  0  0  0  0
    0.4408    2.3753   -1.7868 H   0  0  0  0  0  0  0  0  0  0  0  0
    1.5411    1.1965   -1.0800 H   0  0  0  0  0  0  0  0  0  0  0  0
   -1.9056    1.4273   -0.5814 C   0  0  0  0  0  0  0  0  0  0  0  0
   -2.1319    2.4937   -0.6204 H   0  0  0  0  0  0  0  0  0  0  0  0
   -2.0540    1.0096   -1.5771 H   0  0  0  0  0  0  0  0  0  0  0  0
   -2.9129    0.7468    0.3553 C   0  0  0  0  0  0  0  0  0  0  0  0
   -2.8827    1.2022    1.3450 H   0  0  0  0  0  0  0  0  0  0  0  0
   -3.9179    0.8654   -0.0503 H   0  0  0  0  0  0  0  0  0  0  0  0
   -2.6870   -0.3170    0.4366 H   0  0  0  0  0  0  0  0  0  0  0  0
    0.3833   -0.0008    1.9525 C   0  0  0  0  0  0  0  0  0  0  0  0
    1.5803   -0.2304    2.1189 O   0  0  0  0  0  0  0  0  0  0  0  0
   -0.4170    0.3858    2.9541 N   0  0  0  0  0  0  0  0  0  0  0  0
   -1.3850    0.5669    2.7398 H   0  0  0  0  0  0  0  0  0  0  0  0
    0.0265    0.5600    4.3358 C   0  0  0  0  0  0  0  0  0  0  0  0
    0.8964    1.2200    4.3632 H   0  0  0  0  0  0  0  0  0  0  0  0
   -0.7726    0.9946    4.9382 H   0  0  0  0  0  0  0  0  0  0  0  0
    0.3119   -0.4069    4.7547 H   0  0  0  0  0  0  0  0  0  0  0  0
  5  6  2  0  0  0  0
  5  7  1  0  0  0  0
  2  3  1  0  0  0  0
  2  4  1  0  0  0  0
  2  5  1  0  0  0  0
  1  2  1  0  0  0  0
 24 25  2  0  0  0  0
 24 26  1  0  0  0  0
 20 21  1  0  0  0  0
 20 22  1  0  0  0  0
 20 23  1  0  0  0  0
 17 18  1  0  0  0  0
 17 19  1  0  0  0  0
 17 20  1  0  0  0  0
 13 14  1  0  0  0  0
 13 15  1  0  0  0  0
 13 16  1  0  0  0  0
 11 12  1  0  0  0  0
 11 13  1  0  0  0  0
 11 17  1  0  0  0  0
  9 10  1  0  0  0  0
  9 11  1  0  0  0  0
  9 24  1  0  0  0  0
  7  8  1  0  0  0  0
  7  9  1  0  0  0  0
 28 29  1  0  0  0  0
 28 30  1  0  0  0  0
 28 31  1  0  0  0  0
 26 27  1  0  0  0  0
 26 28  1  0  0  0  0
M  END
$$$$
default_name
  -OEChem-02102213163D

 31 30  0     1  0  0  0  0  0999 V2000
   -3.0760   -3.6390    1.5496 H   0  0  0  0  0  0  0  0  0  0  0  0
   -3.0940   -2.6290    1.1426 C   0  0  0  0  0  0  0  0  0  0  0  0
   -3.7160   -1.9930    1.7706 H   0  0  0  0  0  0  0  0  0  0  0  0
   -3.4880   -2.6500    0.1286 H   0  0  0  0  0  0  0  0  0  0  0  0
   -1.6860   -2.0850    1.1196 C   0  0  0  0  0  0  0  0  0  0  0  0
   -0.7540   -2.7700    1.5226 O   0  0  0  0  0  0  0  0  0  0  0  0
   -1.5320   -0.8490    0.6496 N   0  0  0  0  0  0  0  0  0  0  0  0
   -2.3500   -0.3360    0.3566 H   0  0  0  0  0  0  0  0  0  0  0  0
   -0.2470   -0.1410    0.5576 C   0  0  1  0  0  0  0  0  0  0  0  0
    0.4239   -0.7541   -0.0450 H   0  0  0  0  0  0  0  0  0  0  0  0
   -0.4317    1.2160   -0.1683 C   0  0  1  0  0  0  0  0  0  0  0  0
   -0.1788    2.0006    0.5473 H   0  0  0  0  0  0  0  0  0  0  0  0
    0.5068    1.3672   -1.3808 C   0  0  0  0  0  0  0  0  0  0  0  0
    0.2444    0.6506   -2.1611 H   0  0  0  0  0  0  0  0  0  0  0  0
    0.4408    2.3753   -1.7868 H   0  0  0  0  0  0  0  0  0  0  0  0
    1.5411    1.1965   -1.0800 H   0  0  0  0  0  0  0  0  0  0  0  0
   -1.9056    1.4273   -0.5814 C   0  0  0  0  0  0  0  0  0  0  0  0
   -2.0639    2.4651   -0.8777 H   0  0  0  0  0  0  0  0  0  0  0  0
   -2.1245    0.7899   -1.4380 H   0  0  0  0  0  0  0  0  0  0  0  0
   -2.9126    1.0738    0.5214 C   0  0  0  0  0  0  0  0  0  0  0  0
   -2.8093    1.7548    1.3660 H   0  0  0  0  0  0  0  0  0  0  0  0
   -3.9247    1.1628    0.1260 H   0  0  0  0  0  0  0  0  0  0  0  0
   -2.7526    0.0489    0.8581 H   0  0  0  0  0  0  0  0  0  0  0  0
    0.3833   -0.0008    1.9525 C   0  0  0  0  0  0  0  0  0  0  0  0
    1.5803   -0.2304    2.1189 O   0  0  0  0  0  0  0  0  0  0  0  0
   -0.4170    0.3858    2.9541 N   0  0  0  0  0  0  0  0  0  0  0  0
   -1.3850    0.5669    2.7398 H   0  0  0  0  0  0  0  0  0  0  0  0
    0.0265    0.5600    4.3358 C   0  0  0  0  0  0  0  0  0  0  0  0
    0.8964    1.2200    4.3632 H   0  0  0  0  0  0  0  0  0  0  0  0
   -0.7726    0.9946    4.9382 H   0  0  0  0  0  0  0  0  0  0  0  0
    0.3119   -0.4069    4.7547 H   0  0  0  0  0  0  0  0  0  0  0  0
  5  6  2  0  0  0  0
  5  7  1  0  0  0  0
  2  3  1  0  0  0  0
  2  4  1  0  0  0  0
  2  5  1  0  0  0  0
  1  2  1  0  0  0  0
 24 25  2  0  0  0  0
 24 26  1  0  0  0  0
 20 21  1  0  0  0  0
 20 22  1  0  0  0  0
 20 23  1  0  0  0  0
 17 18  1  0  0  0  0
 17 19  1  0  0  0  0
 17 20  1  0  0  0  0
 13 14  1  0  0  0  0
 13 15  1  0  0  0  0
 13 16  1  0  0  0  0
 11 12  1  0  0  0  0
 11 13  1  0  0  0  0
 11 17  1  0  0  0  0
  9 10  1  0  0  0  0
  9 11  1  0  0  0  0
  9 24  1  0  0  0  0
  7  8  1  0  0  0  0
  7  9  1  0  0  0  0
 28 29  1  0  0  0  0
 28 30  1  0  0  0  0
 28 31  1  0  0  0  0
 26 27  1  0  0  0  0
 26 28  1  0  0  0  0
M  END
$$$$
default_name
  -OEChem-02102213163D

 31 30  0     1  0  0  0  0  0999 V2000
   -3.0760   -3.6390    1.5496 H   0  0  0  0  0  0  0  0  0  0  0  0
   -3.0940   -2.6290    1.1426 C   0  0  0  0  0  0  0  0  0  0  0  0
   -3.7160   -1.9930    1.7706 H   0  0  0  0  0  0  0  0  0  0  0  0
   -3.4880   -2.6500    0.1286 H   0  0  0  0  0  0  0  0  0  0  0  0
   -1.6860   -2.0850    1.1196 C   0  0  0  0  0  0  0  0  0  0  0  0
   -0.7540   -2.7700    1.5226 O   0  0  0  0  0  0  0  0  0  0  0  0
   -1.5320   -0.8490    0.6496 N   0  0  0  0  0  0  0  0  0  0  0  0
   -2.3500   -0.3360    0.3566 H   0  0  0  0  0  0  0  0  0  0  0  0
   -0.2470   -0.1410    0.5576 C   0  0  1  0  0  0  0  0  0  0  0  0
    0.4239   -0.7541   -0.0450 H   0  0  0  0  0  0  0  0  0  0  0  0
   -0.4317    1.2160   -0.1683 C   0  0  1  0  0  0  0  0  0  0  0  0
   -0.1788    2.0006    0.5473 H   0  0  0  0  0  0  0  0  0  0  0  0
    0.5068    1.3672   -1.3808 C   0  0  0  0  0  0  0  0  0  0  0  0
    0.2444    0.6506   -2.1611 H   0  0  0  0  0  0  0  0  0  0  0  0
    0.4408    2.3753   -1.7868 H   0  0  0  0  0  0  0  0  0  0  0  0
    1.5411    1.1965   -1.0800 H   0  0  0  0  0  0  0  0  0  0  0  0
   -1.9056    1.4273   -0.5814 C   0  0  0  0  0  0  0  0  0  0  0  0
   -2.0092    2.3693   -1.1216 H   0  0  0  0  0  0  0  0  0  0  0  0
   -2.2028    0.6169   -1.2469 H   0  0  0  0  0  0  0  0  0  0  0  0
   -2.8837    1.4306    0.6012 C   0  0  0  0  0  0  0  0  0  0  0  0
   -2.6995    2.2888    1.2472 H   0  0  0  0  0  0  0  0  0  0  0  0
   -3.9044    1.4941    0.2232 H   0  0  0  0  0  0  0  0  0  0  0  0
   -2.7758    0.5109    1.1772 H   0  0  0  0  0  0  0  0  0  0  0  0
    0.3833   -0.0008    1.9525 C   0  0  0  0  0  0  0  0  0  0  0  0
    1.5803   -0.2304    2.1189 O   0  0  0  0  0  0  0  0  0  0  0  0
   -0.4170    0.3858    2.9541 N   0  0  0  0  0  0  0  0  0  0  0  0
   -1.3850    0.5669    2.7398 H   0  0  0  0  0  0  0  0  0  0  0  0
    0.0265    0.5600    4.3358 C   0  0  0  0  0  0  0  0  0  0  0  0
    0.8964    1.2200    4.3632 H   0  0  0  0  0  0  0  0  0  0  0  0
   -0.7726    0.9946    4.9382 H   0  0  0  0  0  0  0  0  0  0  0  0
    0.3119   -0.4069    4.7547 H   0  0  0  0  0  0  0  0  0  0  0  0
  5  6  2  0  0  0  0
  5  7  1  0  0  0  0
  2  3  1  0  0  0  0
  2  4  1  0  0  0  0
  2  5  1  0  0  0  0
  1  2  1  0  0  0  0
 24 25  2  0  0  0  0
 24 26  1  0  0  0  0
 20 21  1  0  0  0  0
 20 22  1  0  0  0  0
 20 23  1  0  0  0  0
 17 18  1  0  0  0  0
 17 19  1  0  0  0  0
 17 20  1  0  0  0  0
 13 14  1  0  0  0  0
 13 15  1  0  0  0  0
 13 16  1  0  0  0  0
 11 12  1  0  0  0  0
 11 13  1  0  0  0  0
 11 17  1  0  0  0  0
  9 10  1  0  0  0  0
  9 11  1  0  0  0  0
  9 24  1  0  0  0  0
  7  8  1  0  0  0  0
  7  9  1  0  0  0  0
 28 29  1  0  0  0  0
 28 30  1  0  0  0  0
 28 31  1  0  0  0  0
 26 27  1  0  0  0  0
 26 28  1  0  0  0  0
M  END
$$$$
default_name
  -OEChem-02102213163D

 31 30  0     1  0  0  0  0  0999 V2000
   -3.0760   -3.6390    1.5496 H   0  0  0  0  0  0  0  0  0  0  0  0
   -3.0940   -2.6290    1.1426 C   0  0  0  0  0  0  0  0  0  0  0  0
   -3.7160   -1.9930    1.7706 H   0  0  0  0  0  0  0  0  0  0  0  0
   -3.4880   -2.6500    0.1286 H   0  0  0  0  0  0  0  0  0  0  0  0
   -1.6860   -2.0850    1.1196 C   0  0  0  0  0  0  0  0  0  0  0  0
   -0.7540   -2.7700    1.5226 O   0  0  0  0  0  0  0  0  0  0  0  0
   -1.5320   -0.8490    0.6496 N   0  0  0  0  0  0  0  0  0  0  0  0
   -2.3500   -0.3360    0.3566 H   0  0  0  0  0  0  0  0  0  0  0  0
   -0.2470   -0.1410    0.5576 C   0  0  1  0  0  0  0  0  0  0  0  0
    0.4239   -0.7541   -0.0450 H   0  0  0  0  0  0  0  0  0  0  0  0
   -0.4317    1.2160   -0.1683 C   0  0  1  0  0  0  0  0  0  0  0  0
   -0.1788    2.0006    0.5473 H   0  0  0  0  0  0  0  0  0  0  0  0
    0.5068    1.3672   -1.3808 C   0  0  0  0  0  0  0  0  0  0  0  0
    0.2444    0.6506   -2.1611 H   0  0  0  0  0  0  0  0  0  0  0  0
    0.4408    2.3753   -1.7868 H   0  0  0  0  0  0  0  0  0  0  0  0
    1.5411    1.1965   -1.0800 H   0  0  0  0  0  0  0  0  0  0  0  0
   -1.9056    1.4273   -0.5814 C   0  0  0  0  0  0  0  0  0  0  0  0
   -1.9717    2.2128   -1.3354 H   0  0  0  0  0  0  0  0  0  0  0  0
   -2.2837    0.5025   -1.0168 H   0  0  0  0  0  0  0  0  0  0  0  0
   -2.8284    1.7930    0.5890 C   0  0  0  0  0  0  0  0  0  0  0  0
   -2.5607    2.7676    0.9969 H   0  0  0  0  0  0  0  0  0  0  0  0
   -3.8584    1.8367    0.2346 H   0  0  0  0  0  0  0  0  0  0  0  0
   -2.7549    1.0376    1.3721 H   0  0  0  0  0  0  0  0  0  0  0  0
    0.3833   -0.0008    1.9525 C   0  0  0  0  0  0  0  0  0  0  0  0
    1.5803   -0.2304    2.1189 O   0  0  0  0  0  0  0  0  0  0  0  0
   -0.4170    0.3858    2.9541 N   0  0  0  0  0  0  0  0  0  0  0  0
   -1.3850    0.5669    2.7398 H   0  0  0  0  0  0  0  0  0  0  0  0
    0.0265    0.5600    4.3358 C   0  0  0  0  0  0  0  0  0  0  0  0
    0.8964    1.2200    4.3632 H   0  0  0  0  0  0  0  0  0  0  0  0
   -0.7726    0.9946    4.9382 H   0  0  0  0  0  0  0  0  0  0  0  0
    0.3119   -0.4069    4.7547 H   0  0  0  0  0  0  0  0  0  0  0  0
  5  6  2  0  0  0  0
  5  7  1  0  0  0  0
  2  3  1  0  0  0  0
  2  4  1  0  0  0  0
  2  5  1  0  0  0  0
  1  2  1  0  0  0  0
 24 25  2  0  0  0  0
 24 26  1  0  0  0  0
 20 21  1  0  0  0  0
 20 22  1  0  0  0  0
 20 23  1  0  0  0  0
 17 18  1  0  0  0  0
 17 19  1  0  0  0  0
 17 20  1  0  0  0  0
 13 14  1  0  0  0  0
 13 15  1  0  0  0  0
 13 16  1  0  0  0  0
 11 12  1  0  0  0  0
 11 13  1  0  0  0  0
 11 17  1  0  0  0  0
  9 10  1  0  0  0  0
  9 11  1  0  0  0  0
  9 24  1  0  0  0  0
  7  8  1  0  0  0  0
  7  9  1  0  0  0  0
 28 29  1  0  0  0  0
 28 30  1  0  0  0  0
 28 31  1  0  0  0  0
 26 27  1  0  0  0  0
 26 28  1  0  0  0  0
M  END
$$$$
default_name
  -OEChem-02102213163D

 31 30  0     1  0  0  0  0  0999 V2000
   -3.0760   -3.6390    1.5496 H   0  0  0  0  0  0  0  0  0  0  0  0
   -3.0940   -2.6290    1.1426 C   0  0  0  0  0  0  0  0  0  0  0  0
   -3.7160   -1.9930    1.7706 H   0  0  0  0  0  0  0  0  0  0  0  0
   -3.4880   -2.6500    0.1286 H   0  0  0  0  0  0  0  0  0  0  0  0
   -1.6860   -2.0850    1.1196 C   0  0  0  0  0  0  0  0  0  0  0  0
   -0.7540   -2.7700    1.5226 O   0  0  0  0  0  0  0  0  0  0  0  0
   -1.5320   -0.8490    0.6496 N   0  0  0  0  0  0  0  0  0  0  0  0
   -2.3500   -0.3360    0.3566 H   0  0  0  0  0  0  0  0  0  0  0  0
   -0.2470   -0.1410    0.5576 C   0  0  1  0  0  0  0  0  0  0  0  0
    0.4239   -0.7541   -0.0450 H   0  0  0  0  0  0  0  0  0  0  0  0
   -0.4317    1.2160   -0.1683 C   0  0  1  0  0  0  0  0  0  0  0  0
   -0.1788    2.0006    0.5473 H   0  0  0  0  0  0  0  0  0  0  0  0
    0.5068    1.3672   -1.3808 C   0  0  0  0  0  0  0  0  0  0  0  0
    0.2444    0.6506   -2.1611 H   0  0  0  0  0  0  0  0  0  0  0  0
    0.4408    2.3753   -1.7868 H   0  0  0  0  0  0  0  0  0  0  0  0
    1.5411    1.1965   -1.0800 H   0  0  0  0  0  0  0  0  0  0  0  0
   -1.9056    1.4273   -0.5814 C   0  0  0  0  0  0  0  0  0  0  0  0
   -1.9539    2.0062   -1.5047 H   0  0  0  0  0  0  0  0  0  0  0  0
   -2.3617    0.4543   -0.7635 H   0  0  0  0  0  0  0  0  0  0  0  0
   -2.7502    2.1362    0.4859 C   0  0  0  0  0  0  0  0  0  0  0  0
   -2.4023    3.1587    0.6319 H   0  0  0  0  0  0  0  0  0  0  0  0
   -3.7900    2.1672    0.1594 H   0  0  0  0  0  0  0  0  0  0  0  0
   -2.6914    1.5930    1.4297 H   0  0  0  0  0  0  0  0  0  0  0  0
    0.3833   -0.0008    1.9525 C   0  0  0  0  0  0  0  0  0  0  0  0
    1.5803   -0.2304    2.1189 O   0  0  0  0  0  0  0  0  0  0  0  0
   -0.4170    0.3858    2.9541 N   0  0  0  0  0  0  0  0  0  0  0  0
   -1.3850    0.5669    2.7398 H   0  0  0  0  0  0  0  0  0  0  0  0
    0.0265    0.5600    4.3358 C   0  0  0  0  0  0  0  0  0  0  0  0
    0.8964    1.2200    4.3632 H   0  0  0  0  0  0  0  0  0  0  0  0
   -0.7726    0.9946    4.9382 H   0  0  0  0  0  0  0  0  0  0  0  0
    0.3119   -0.4069    4.7547 H   0  0  0  0  0  0  0  0  0  0  0  0
  5  6  2  0  0  0  0
  5  7  1  0  0  0  0
  2  3  1  0  0  0  0
  2  4  1  0  0  0  0
  2  5  1  0  0  0  0
  1  2  1  0  0  0  0
 24 25  2  0  0  0  0
 24 26  1  0  0  0  0
 20 21  1  0  0  0  0
 20 22  1  0  0  0  0
 20 23  1  0  0  0  0
 17 18  1  0  0  0  0
 17 19  1  0  0  0  0
 17 20  1  0  0  0  0
 13 14  1  0  0  0  0
 13 15  1  0  0  0  0
 13 16  1  0  0  0  0
 11 12  1  0  0  0  0
 11 13  1  0  0  0  0
 11 17  1  0  0  0  0
  9 10  1  0  0  0  0
  9 11  1  0  0  0  0
  9 24  1  0  0  0  0
  7  8  1  0  0  0  0
  7  9  1  0  0  0  0
 28 29  1  0  0  0  0
 28 30  1  0  0  0  0
 28 31  1  0  0  0  0
 26 27  1  0  0  0  0
 26 28  1  0  0  0  0
M  END
$$$$
default_name
  -OEChem-02102213163D

 31 30  0     1  0  0  0  0  0999 V2000
   -3.0760   -3.6390    1.5496 H   0  0  0  0  0  0  0  0  0  0  0  0
   -3.0940   -2.6290    1.1426 C   0  0  0  0  0  0  0  0  0  0  0  0
   -3.7160   -1.9930    1.7706 H   0  0  0  0  0  0  0  0  0  0  0  0
   -3.4880   -2.6500    0.1286 H   0  0  0  0  0  0  0  0  0  0  0  0
   -1.6860   -2.0850    1.1196 C   0  0  0  0  0  0  0  0  0  0  0  0
   -0.7540   -2.7700    1.5226 O   0  0  0  0  0  0  0  0  0  0  0  0
   -1.5320   -0.8490    0.6496 N   0  0  0  0  0  0  0  0  0  0  0  0
   -2.3500   -0.3360    0.3566 H   0  0  0  0  0  0  0  0  0  0  0  0
   -0.2470   -0.1410    0.5576 C   0  0  1  0  0  0  0  0  0  0  0  0
    0.4239   -0.7541   -0.0450 H   0  0  0  0  0  0  0  0  0  0  0  0
   -0.4317    1.2160   -0.1683 C   0  0  1  0  0  0  0  0  0  0  0  0
   -0.1788    2.0006    0.5473 H   0  0  0  0  0  0  0  0  0  0  0  0
    0.5068    1.3672   -1.3808 C   0  0  0  0  0  0  0  0  0  0  0  0
    0.2444    0.6506   -2.1611 H   0  0  0  0  0  0  0  0  0  0  0  0
    0.4408    2.3753   -1.7868 H   0  0  0  0  0  0  0  0  0  0  0  0
    1.5411    1.1965   -1.0800 H   0  0  0  0  0  0  0  0  0  0  0  0
   -1.9056    1.4273   -0.5814 C   0  0  0  0  0  0  0  0  0  0  0  0
   -1.9570    1.7636   -1.6178 H   0  0  0  0  0  0  0  0  0  0  0  0
   -2.4313    0.4757   -0.5041 H   0  0  0  0  0  0  0  0  0  0  0  0
   -2.6547    2.4369    0.2988 C   0  0  0  0  0  0  0  0  0  0  0  0
   -2.2352    3.4354    0.1772 H   0  0  0  0  0  0  0  0  0  0  0  0
   -3.7036    2.4632    0.0027 H   0  0  0  0  0  0  0  0  0  0  0  0
   -2.5896    2.1393    1.3460 H   0  0  0  0  0  0  0  0  0  0  0  0
    0.3833   -0.0008    1.9525 C   0  0  0  0  0  0  0  0  0  0  0  0
    1.5803   -0.2304    2.1189 O   0  0  0  0  0  0  0  0  0  0  0  0
   -0.4170    0.3858    2.9541 N   0  0  0  0  0  0  0  0  0  0  0  0
   -1.3850    0.5669    2.7398 H   0  0  0  0  0  0  0  0  0  0  0  0
    0.0265    0.5600    4.3358 C   0  0  0  0  0  0  0  0  0  0  0  0
    0.8964    1.2200    4.3632 H   0  0  0  0  0  0  0  0  0  0  0  0
   -0.7726    0.9946    4.9382 H   0  0  0  0  0  0  0  0  0  0  0  0
    0.3119   -0.4069    4.7547 H   0  0  0  0  0  0  0  0  0  0  0  0
  5  6  2  0  0  0  0
  5  7  1  0  0  0  0
  2  3  1  0  0  0  0
  2  4  1  0  0  0  0
  2  5  1  0  0  0  0
  1  2  1  0  0  0  0
 24 25  2  0  0  0  0
 24 26  1  0  0  0  0
 20 21  1  0  0  0  0
 20 22  1  0  0  0  0
 20 23  1  0  0  0  0
 17 18  1  0  0  0  0
 17 19  1  0  0  0  0
 17 20  1  0  0  0  0
 13 14  1  0  0  0  0
 13 15  1  0  0  0  0
 13 16  1  0  0  0  0
 11 12  1  0  0  0  0
 11 13  1  0  0  0  0
 11 17  1  0  0  0  0
  9 10  1  0  0  0  0
  9 11  1  0  0  0  0
  9 24  1  0  0  0  0
  7  8  1  0  0  0  0
  7  9  1  0  0  0  0
 28 29  1  0  0  0  0
 28 30  1  0  0  0  0
 28 31  1  0  0  0  0
 26 27  1  0  0  0  0
 26 28  1  0  0  0  0
M  END
$$$$
default_name
  -OEChem-02102213163D

 31 30  0     1  0  0  0  0  0999 V2000
   -3.0760   -3.6390    1.5496 H   0  0  0  0  0  0  0  0  0  0  0  0
   -3.0940   -2.6290    1.1426 C   0  0  0  0  0  0  0  0  0  0  0  0
   -3.7160   -1.9930    1.7706 H   0  0  0  0  0  0  0  0  0  0  0  0
   -3.4880   -2.6500    0.1286 H   0  0  0  0  0  0  0  0  0  0  0  0
   -1.6860   -2.0850    1.1196 C   0  0  0  0  0  0  0  0  0  0  0  0
   -0.7540   -2.7700    1.5226 O   0  0  0  0  0  0  0  0  0  0  0  0
   -1.5320   -0.8490    0.6496 N   0  0  0  0  0  0  0  0  0  0  0  0
   -2.3500   -0.3360    0.3566 H   0  0  0  0  0  0  0  0  0  0  0  0
   -0.2470   -0.1410    0.5576 C   0  0  1  0  0  0  0  0  0  0  0  0
    0.4239   -0.7541   -0.0450 H   0  0  0  0  0  0  0  0  0  0  0  0
   -0.4317    1.2160   -0.1683 C   0  0  1  0  0  0  0  0  0  0  0  0
   -0.1788    2.0006    0.5473 H   0  0  0  0  0  0  0  0  0  0  0  0
    0.5068    1.3672   -1.3808 C   0  0  0  0  0  0  0  0  0  0  0  0
    0.2444    0.6506   -2.1611 H   0  0  0  0  0  0  0  0  0  0  0  0
    0.4408    2.3753   -1.7868 H   0  0  0  0  0  0  0  0  0  0  0  0
    1.5411    1.1965   -1.0800 H   0  0  0  0  0  0  0  0  0  0  0  0
   -1.9056    1.4273   -0.5814 C   0  0  0  0  0  0  0  0  0  0  0  0
   -1.9808    1.5016   -1.6671 H   0  0  0  0  0  0  0  0  0  0  0  0
   -2.4879    0.5652   -0.2564 H   0  0  0  0  0  0  0  0  0  0  0  0
   -2.5482    2.6745    0.0405 C   0  0  0  0  0  0  0  0  0  0  0  0
   -2.0707    3.5788   -0.3363 H   0  0  0  0  0  0  0  0  0  0  0  0
   -3.6053    2.7044   -0.2248 H   0  0  0  0  0  0  0  0  0  0  0  0
   -2.4564    2.6393    1.1266 H   0  0  0  0  0  0  0  0  0  0  0  0
    0.3833   -0.0008    1.9525 C   0  0  0  0  0  0  0  0  0  0  0  0
    1.5803   -0.2304    2.1189 O   0  0  0  0  0  0  0  0  0  0  0  0
   -0.4170    0.3858    2.9541 N   0  0  0  0  0  0  0  0  0  0  0  0
   -1.3850    0.5669    2.7398 H   0  0  0  0  0  0  0  0  0  0  0  0
    0.0265    0.5600    4.3358 C   0  0  0  0  0  0  0  0  0  0  0  0
    0.8964    1.2200    4.3632 H   0  0  0  0  0  0  0  0  0  0  0  0
   -0.7726    0.9946    4.9382 H   0  0  0  0  0  0  0  0  0  0  0  0
    0.3119   -0.4069    4.7547 H   0  0  0  0  0  0  0  0  0  0  0  0
  5  6  2  0  0  0  0
  5  7  1  0  0  0  0
  2  3  1  0  0  0  0
  2  4  1  0  0  0  0
  2  5  1  0  0  0  0
  1  2  1  0  0  0  0
 24 25  2  0  0  0  0
 24 26  1  0  0  0  0
 20 21  1  0  0  0  0
 20 22  1  0  0  0  0
 20 23  1  0  0  0  0
 17 18  1  0  0  0  0
 17 19  1  0  0  0  0
 17 20  1  0  0  0  0
 13 14  1  0  0  0  0
 13 15  1  0  0  0  0
 13 16  1  0  0  0  0
 11 12  1  0  0  0  0
 11 13  1  0  0  0  0
 11 17  1  0  0  0  0
  9 10  1  0  0  0  0
  9 11  1  0  0  0  0
  9 24  1  0  0  0  0
  7  8  1  0  0  0  0
  7  9  1  0  0  0  0
 28 29  1  0  0  0  0
 28 30  1  0  0  0  0
 28 31  1  0  0  0  0
 26 27  1  0  0  0  0
 26 28  1  0  0  0  0
M  END
$$$$
default_name
  -OEChem-02102213163D

 31 30  0     1  0  0  0  0  0999 V2000
   -3.0760   -3.6390    1.5496 H   0  0  0  0  0  0  0  0  0  0  0  0
   -3.0940   -2.6290    1.1426 C   0  0  0  0  0  0  0  0  0  0  0  0
   -3.7160   -1.9930    1.7706 H   0  0  0  0  0  0  0  0  0  0  0  0
   -3.4880   -2.6500    0.1286 H   0  0  0  0  0  0  0  0  0  0  0  0
   -1.6860   -2.0850    1.1196 C   0  0  0  0  0  0  0  0  0  0  0  0
   -0.7540   -2.7700    1.5226 O   0  0  0  0  0  0  0  0  0  0  0  0
   -1.5320   -0.8490    0.6496 N   0  0  0  0  0  0  0  0  0  0  0  0
   -2.3500   -0.3360    0.3566 H   0  0  0  0  0  0  0  0  0  0  0  0
   -0.2470   -0.1410    0.5576 C   0  0  1  0  0  0  0  0  0  0  0  0
    0.4239   -0.7541   -0.0450 H   0  0  0  0  0  0  0  0  0  0  0  0
   -0.4317    1.2160   -0.1683 C   0  0  1  0  0  0  0  0  0  0  0  0
   -0.1788    2.0006    0.5473 H   0  0  0  0  0  0  0  0  0  0  0  0
    0.5068    1.3672   -1.3808 C   0  0  0  0  0  0  0  0  0  0  0  0
    0.2444    0.6506   -2.1611 H   0  0  0  0  0  0  0  0  0  0  0  0
    0.4408    2.3753   -1.7868 H   0  0  0  0  0  0  0  0  0  0  0  0
    1.5411    1.1965   -1.0800 H   0  0  0  0  0  0  0  0  0  0  0  0
   -1.9056    1.4273   -0.5814 C   0  0  0  0  0  0  0  0  0  0  0  0
   -2.0236    1.2379   -1.6491 H   0  0  0  0  0  0  0  0  0  0  0  0
   -2.5276    0.7167   -0.0372 H   0  0  0  0  0  0  0  0  0  0  0  0
   -2.4381    2.8329   -0.2715 C   0  0  0  0  0  0  0  0  0  0  0  0
   -1.9201    3.5793   -0.8734 H   0  0  0  0  0  0  0  0  0  0  0  0
   -3.5016    2.8745   -0.5075 H   0  0  0  0  0  0  0  0  0  0  0  0
   -2.3009    3.0589    0.7866 H   0  0  0  0  0  0  0  0  0  0  0  0
    0.3833   -0.0008    1.9525 C   0  0  0  0  0  0  0  0  0  0  0  0
    1.5803   -0.2304    2.1189 O   0  0  0  0  0  0  0  0  0  0  0  0
   -0.4170    0.3858    2.9541 N   0  0  0  0  0  0  0  0  0  0  0  0
   -1.3850    0.5669    2.7398 H   0  0  0  0  0  0  0  0  0  0  0  0
    0.0265    0.5600    4.3358 C   0  0  0  0  0  0  0  0  0  0  0  0
    0.8964    1.2200    4.3632 H   0  0  0  0  0  0  0  0  0  0  0  0
   -0.7726    0.9946    4.9382 H   0  0  0  0  0  0  0  0  0  0  0  0
    0.3119   -0.4069    4.7547 H   0  0  0  0  0  0  0  0  0  0  0  0
  5  6  2  0  0  0  0
  5  7  1  0  0  0  0
  2  3  1  0  0  0  0
  2  4  1  0  0  0  0
  2  5  1  0  0  0  0
  1  2  1  0  0  0  0
 24 25  2  0  0  0  0
 24 26  1  0  0  0  0
 20 21  1  0  0  0  0
 20 22  1  0  0  0  0
 20 23  1  0  0  0  0
 17 18  1  0  0  0  0
 17 19  1  0  0  0  0
 17 20  1  0  0  0  0
 13 14  1  0  0  0  0
 13 15  1  0  0  0  0
 13 16  1  0  0  0  0
 11 12  1  0  0  0  0
 11 13  1  0  0  0  0
 11 17  1  0  0  0  0
  9 10  1  0  0  0  0
  9 11  1  0  0  0  0
  9 24  1  0  0  0  0
  7  8  1  0  0  0  0
  7  9  1  0  0  0  0
 28 29  1  0  0  0  0
 28 30  1  0  0  0  0
 28 31  1  0  0  0  0
 26 27  1  0  0  0  0
 26 28  1  0  0  0  0
M  END
$$$$
default_name
  -OEChem-02102213163D

 31 30  0     1  0  0  0  0  0999 V2000
   -3.0760   -3.6390    1.5496 H   0  0  0  0  0  0  0  0  0  0  0  0
   -3.0940   -2.6290    1.1426 C   0  0  0  0  0  0  0  0  0  0  0  0
   -3.7160   -1.9930    1.7706 H   0  0  0  0  0  0  0  0  0  0  0  0
   -3.4880   -2.6500    0.1286 H   0  0  0  0  0  0  0  0  0  0  0  0
   -1.6860   -2.0850    1.1196 C   0  0  0  0  0  0  0  0  0  0  0  0
   -0.7540   -2.7700    1.5226 O   0  0  0  0  0  0  0  0  0  0  0  0
   -1.5320   -0.8490    0.6496 N   0  0  0  0  0  0  0  0  0  0  0  0
   -2.3500   -0.3360    0.3566 H   0  0  0  0  0  0  0  0  0  0  0  0
   -0.2470   -0.1410    0.5576 C   0  0  1  0  0  0  0  0  0  0  0  0
    0.4239   -0.7541   -0.0450 H   0  0  0  0  0  0  0  0  0  0  0  0
   -0.4317    1.2160   -0.1683 C   0  0  1  0  0  0  0  0  0  0  0  0
   -0.1788    2.0006    0.5473 H   0  0  0  0  0  0  0  0  0  0  0  0
    0.5068    1.3672   -1.3808 C   0  0  0  0  0  0  0  0  0  0  0  0
    0.2444    0.6506   -2.1611 H   0  0  0  0  0  0  0  0  0  0  0  0
    0.4408    2.3753   -1.7868 H   0  0  0  0  0  0  0  0  0  0  0  0
    1.5411    1.1965   -1.0800 H   0  0  0  0  0  0  0  0  0  0  0  0
   -1.9056    1.4273   -0.5814 C   0  0  0  0  0  0  0  0  0  0  0  0
   -2.0826    0.9907   -1.5652 H   0  0  0  0  0  0  0  0  0  0  0  0
   -2.5477    0.9200    0.1385 H   0  0  0  0  0  0  0  0  0  0  0  0
   -2.3318    2.9012   -0.6158 C   0  0  0  0  0  0  0  0  0  0  0  0
   -1.7936    3.4367   -1.3978 H   0  0  0  0  0  0  0  0  0  0  0  0
   -3.3998    2.9618   -0.8263 H   0  0  0  0  0  0  0  0  0  0  0  0
   -2.1338    3.3694    0.3490 H   0  0  0  0  0  0  0  0  0  0  0  0
    0.3833   -0.0008    1.9525 C   0  0  0  0  0  0  0  0  0  0  0  0
    1.5803   -0.2304    2.1189 O   0  0  0  0  0  0  0  0  0  0  0  0
   -0.4170    0.3858    2.9541 N   0  0  0  0  0  0  0  0  0  0  0  0
   -1.3850    0.5669    2.7398 H   0  0  0  0  0  0  0  0  0  0  0  0
    0.0265    0.5600    4.3358 C   0  0  0  0  0  0  0  0  0  0  0  0
    0.8964    1.2200    4.3632 H   0  0  0  0  0  0  0  0  0  0  0  0
   -0.7726    0.9946    4.9382 H   0  0  0  0  0  0  0  0  0  0  0  0
    0.3119   -0.4069    4.7547 H   0  0  0  0  0  0  0  0  0  0  0  0
  5  6  2  0  0  0  0
  5  7  1  0  0  0  0
  2  3  1  0  0  0  0
  2  4  1  0  0  0  0
  2  5  1  0  0  0  0
  1  2  1  0  0  0  0
 24 25  2  0  0  0  0
 24 26  1  0  0  0  0
 20 21  1  0  0  0  0
 20 22  1  0  0  0  0
 20 23  1  0  0  0  0
 17 18  1  0  0  0  0
 17 19  1  0  0  0  0
 17 20  1  0  0  0  0
 13 14  1  0  0  0  0
 13 15  1  0  0  0  0
 13 16  1  0  0  0  0
 11 12  1  0  0  0  0
 11 13  1  0  0  0  0
 11 17  1  0  0  0  0
  9 10  1  0  0  0  0
  9 11  1  0  0  0  0
  9 24  1  0  0  0  0
  7  8  1  0  0  0  0
  7  9  1  0  0  0  0
 28 29  1  0  0  0  0
 28 30  1  0  0  0  0
 28 31  1  0  0  0  0
 26 27  1  0  0  0  0
 26 28  1  0  0  0  0
M  END
$$$$
default_name
  -OEChem-02102213163D

 31 30  0     1  0  0  0  0  0999 V2000
   -3.0760   -3.6390    1.5496 H   0  0  0  0  0  0  0  0  0  0  0  0
   -3.0940   -2.6290    1.1426 C   0  0  0  0  0  0  0  0  0  0  0  0
   -3.7160   -1.9930    1.7706 H   0  0  0  0  0  0  0  0  0  0  0  0
   -3.4880   -2.6500    0.1286 H   0  0  0  0  0  0  0  0  0  0  0  0
   -1.6860   -2.0850    1.1196 C   0  0  0  0  0  0  0  0  0  0  0  0
   -0.7540   -2.7700    1.5226 O   0  0  0  0  0  0  0  0  0  0  0  0
   -1.5320   -0.8490    0.6496 N   0  0  0  0  0  0  0  0  0  0  0  0
   -2.3500   -0.3360    0.3566 H   0  0  0  0  0  0  0  0  0  0  0  0
   -0.2470   -0.1410    0.5576 C   0  0  1  0  0  0  0  0  0  0  0  0
    0.4239   -0.7541   -0.0450 H   0  0  0  0  0  0  0  0  0  0  0  0
   -0.4317    1.2160   -0.1683 C   0  0  1  0  0  0  0  0  0  0  0  0
   -0.1788    2.0006    0.5473 H   0  0  0  0  0  0  0  0  0  0  0  0
    0.5068    1.3672   -1.3808 C   0  0  0  0  0  0  0  0  0  0  0  0
    0.2444    0.6506   -2.1611 H   0  0  0  0  0  0  0  0  0  0  0  0
    0.4408    2.3753   -1.7868 H   0  0  0  0  0  0  0  0  0  0  0  0
    1.5411    1.1965   -1.0800 H   0  0  0  0  0  0  0  0  0  0  0  0
   -1.9056    1.4273   -0.5814 C   0  0  0  0  0  0  0  0  0  0  0  0
   -2.1537    0.7767   -1.4210 H   0  0  0  0  0  0  0  0  0  0  0  0
   -2.5468    1.1610    0.2588 H   0  0  0  0  0  0  0  0  0  0  0  0
   -2.2365    2.8749   -0.9690 C   0  0  0  0  0  0  0  0  0  0  0  0
   -1.6998    3.1607   -1.8735 H   0  0  0  0  0  0  0  0  0  0  0  0
   -3.3066    2.9604   -1.1594 H   0  0  0  0  0  0  0  0  0  0  0  0
   -1.9663    3.5498   -0.1562 H   0  0  0  0  0  0  0  0  0  0  0  0
    0.3833   -0.0008    1.9525 C   0  0  0  0  0  0  0  0  0  0  0  0
    1.5803   -0.2304    2.1189 O   0  0  0  0  0  0  0  0  0  0  0  0
   -0.4170    0.3858    2.9541 N   0  0  0  0  0  0  0  0  0  0  0  0
   -1.3850    0.5669    2.7398 H   0  0  0  0  0  0  0  0  0  0  0  0
    0.0265    0.5600    4.3358 C   0  0  0  0  0  0  0  0  0  0  0  0
    0.8964    1.2200    4.3632 H   0  0  0  0  0  0  0  0  0  0  0  0
   -0.7726    0.9946    4.9382 H   0  0  0  0  0  0  0  0  0  0  0  0
    0.3119   -0.4069    4.7547 H   0  0  0  0  0  0  0  0  0  0  0  0
  5  6  2  0  0  0  0
  5  7  1  0  0  0  0
  2  3  1  0  0  0  0
  2  4  1  0  0  0  0
  2  5  1  0  0  0  0
  1  2  1  0  0  0  0
 24 25  2  0  0  0  0
 24 26  1  0  0  0  0
 20 21  1  0  0  0  0
 20 22  1  0  0  0  0
 20 23  1  0  0  0  0
 17 18  1  0  0  0  0
 17 19  1  0  0  0  0
 17 20  1  0  0  0  0
 13 14  1  0  0  0  0
 13 15  1  0  0  0  0
 13 16  1  0  0  0  0
 11 12  1  0  0  0  0
 11 13  1  0  0  0  0
 11 17  1  0  0  0  0
  9 10  1  0  0  0  0
  9 11  1  0  0  0  0
  9 24  1  0  0  0  0
  7  8  1  0  0  0  0
  7  9  1  0  0  0  0
 28 29  1  0  0  0  0
 28 30  1  0  0  0  0
 28 31  1  0  0  0  0
 26 27  1  0  0  0  0
 26 28  1  0  0  0  0
M  END
$$$$
default_name
  -OEChem-02102213163D

 31 30  0     1  0  0  0  0  0999 V2000
   -3.0760   -3.6390    1.5496 H   0  0  0  0  0  0  0  0  0  0  0  0
   -3.0940   -2.6290    1.1426 C   0  0  0  0  0  0  0  0  0  0  0  0
   -3.7160   -1.9930    1.7706 H   0  0  0  0  0  0  0  0  0  0  0  0
   -3.4880   -2.6500    0.1286 H   0  0  0  0  0  0  0  0  0  0  0  0
   -1.6860   -2.0850    1.1196 C   0  0  0  0  0  0  0  0  0  0  0  0
   -0.7540   -2.7700    1.5226 O   0  0  0  0  0  0  0  0  0  0  0  0
   -1.5320   -0.8490    0.6496 N   0  0  0  0  0  0  0  0  0  0  0  0
   -2.3500   -0.3360    0.3566 H   0  0  0  0  0  0  0  0  0  0  0  0
   -0.2470   -0.1410    0.5576 C   0  0  1  0  0  0  0  0  0  0  0  0
    0.4239   -0.7541   -0.0450 H   0  0  0  0  0  0  0  0  0  0  0  0
   -0.4317    1.2160   -0.1683 C   0  0  1  0  0  0  0  0  0  0  0  0
    0.0686    1.9749    0.4363 H   0  0  0  0  0  0  0  0  0  0  0  0
    0.2160    1.2284   -1.5662 C   0  0  0  0  0  0  0  0  0  0  0  0
   -0.3002    0.5372   -2.2347 H   0  0  0  0  0  0  0  0  0  0  0  0
    0.1782    2.2299   -1.9917 H   0  0  0  0  0  0  0  0  0  0  0  0
    1.2642    0.9351   -1.4981 H   0  0  0  0  0  0  0  0  0  0  0  0
   -1.9256    1.6026   -0.2487 C   0  0  0  0  0  0  0  0  0  0  0  0
   -2.4846    0.8221   -0.7666 H   0  0  0  0  0  0  0  0  0  0  0  0
   -2.3198    1.6912    0.7636 H   0  0  0  0  0  0  0  0  0  0  0  0
   -2.1799    2.9397   -0.9577 C   0  0  0  0  0  0  0  0  0  0  0  0
   -1.9013    2.8739   -2.0093 H   0  0  0  0  0  0  0  0  0  0  0  0
   -3.2406    3.1839   -0.8947 H   0  0  0  0  0  0  0  0  0  0  0  0
   -1.6048    3.7320   -0.4773 H   0  0  0  0  0  0  0  0  0  0  0  0
    0.3833   -0.0008    1.9525 C   0  0  0  0  0  0  0  0  0  0  0  0
    1.5803   -0.2304    2.1189 O   0  0  0  0  0  0  0  0  0  0  0  0
   -0.4170    0.3858    2.9541 N   0  0  0  0  0  0  0  0  0  0  0  0
   -1.3850    0.5669    2.7398 H   0  0  0  0  0  0  0  0  0  0  0  0
    0.0265    0.5600    4.3358 C   0  0  0  0  0  0  0  0  0  0  0  0
    0.8964    1.2200    4.3632 H   0  0  0  0  0  0  0  0  0  0  0  0
   -0.7726    0.9946    4.9382 H   0  0  0  0  0  0  0  0  0  0  0  0
    0.3119   -0.4069    4.7547 H   0  0  0  0  0  0  0  0  0  0  0  0
  5  6  2  0  0  0  0
  5  7  1  0  0  0  0
  2  3  1  0  0  0  0
  2  4  1  0  0  0  0
  2  5  1  0  0  0  0
  1  2  1  0  0  0  0
 24 25  2  0  0  0  0
 24 26  1  0  0  0  0
 20 21  1  0  0  0  0
 20 22  1  0  0  0  0
 20 23  1  0  0  0  0
 17 18  1  0  0  0  0
 17 19  1  0  0  0  0
 17 20  1  0  0  0  0
 13 14  1  0  0  0  0
 13 15  1  0  0  0  0
 13 16  1  0  0  0  0
 11 12  1  0  0  0  0
 11 13  1  0  0  0  0
 11 17  1  0  0  0  0
  9 10  1  0  0  0  0
  9 11  1  0  0  0  0
  9 24  1  0  0  0  0
  7  8  1  0  0  0  0
  7  9  1  0  0  0  0
 28 29  1  0  0  0  0
 28 30  1  0  0  0  0
 28 31  1  0  0  0  0
 26 27  1  0  0  0  0
 26 28  1  0  0  0  0
M  END
$$$$
default_name
  -OEChem-02102213163D

 31 30  0     1  0  0  0  0  0999 V2000
   -3.0760   -3.6390    1.5496 H   0  0  0  0  0  0  0  0  0  0  0  0
   -3.0940   -2.6290    1.1426 C   0  0  0  0  0  0  0  0  0  0  0  0
   -3.7160   -1.9930    1.7706 H   0  0  0  0  0  0  0  0  0  0  0  0
   -3.4880   -2.6500    0.1286 H   0  0  0  0  0  0  0  0  0  0  0  0
   -1.6860   -2.0850    1.1196 C   0  0  0  0  0  0  0  0  0  0  0  0
   -0.7540   -2.7700    1.5226 O   0  0  0  0  0  0  0  0  0  0  0  0
   -1.5320   -0.8490    0.6496 N   0  0  0  0  0  0  0  0  0  0  0  0
   -2.3500   -0.3360    0.3566 H   0  0  0  0  0  0  0  0  0  0  0  0
   -0.2470   -0.1410    0.5576 C   0  0  1  0  0  0  0  0  0  0  0  0
    0.4239   -0.7541   -0.0450 H   0  0  0  0  0  0  0  0  0  0  0  0
   -0.4317    1.2160   -0.1683 C   0  0  1  0  0  0  0  0  0  0  0  0
    0.0686    1.9749    0.4363 H   0  0  0  0  0  0  0  0  0  0  0  0
    0.2160    1.2284   -1.5662 C   0  0  0  0  0  0  0  0  0  0  0  0
   -0.3002    0.5372   -2.2347 H   0  0  0  0  0  0  0  0  0  0  0  0
    0.1782    2.2299   -1.9917 H   0  0  0  0  0  0  0  0  0  0  0  0
    1.2642    0.9351   -1.4981 H   0  0  0  0  0  0  0  0  0  0  0  0
   -1.9256    1.6026   -0.2487 C   0  0  0  0  0  0  0  0  0  0  0  0
   -2.5219    0.7298   -0.5181 H   0  0  0  0  0  0  0  0  0  0  0  0
   -2.2511    1.9498    0.7318 H   0  0  0  0  0  0  0  0  0  0  0  0
   -2.2195    2.7254   -1.2528 C   0  0  0  0  0  0  0  0  0  0  0  0
   -2.0118    2.3930   -2.2697 H   0  0  0  0  0  0  0  0  0  0  0  0
   -3.2723    3.0006   -1.1863 H   0  0  0  0  0  0  0  0  0  0  0  0
   -1.6096    3.5999   -1.0235 H   0  0  0  0  0  0  0  0  0  0  0  0
    0.3833   -0.0008    1.9525 C   0  0  0  0  0  0  0  0  0  0  0  0
    1.5803   -0.2304    2.1189 O   0  0  0  0  0  0  0  0  0  0  0  0
   -0.4170    0.3858    2.9541 N   0  0  0  0  0  0  0  0  0  0  0  0
   -1.3850    0.5669    2.7398 H   0  0  0  0  0  0  0  0  0  0  0  0
    0.0265    0.5600    4.3358 C   0  0  0  0  0  0  0  0  0  0  0  0
    0.8964    1.2200    4.3632 H   0  0  0  0  0  0  0  0  0  0  0  0
   -0.7726    0.9946    4.9382 H   0  0  0  0  0  0  0  0  0  0  0  0
    0.3119   -0.4069    4.7547 H   0  0  0  0  0  0  0  0  0  0  0  0
  5  6  2  0  0  0  0
  5  7  1  0  0  0  0
  2  3  1  0  0  0  0
  2  4  1  0  0  0  0
  2  5  1  0  0  0  0
  1  2  1  0  0  0  0
 24 25  2  0  0  0  0
 24 26  1  0  0  0  0
 20 21  1  0  0  0  0
 20 22  1  0  0  0  0
 20 23  1  0  0  0  0
 17 18  1  0  0  0  0
 17 19  1  0  0  0  0
 17 20  1  0  0  0  0
 13 14  1  0  0  0  0
 13 15  1  0  0  0  0
 13 16  1  0  0  0  0
 11 12  1  0  0  0  0
 11 13  1  0  0  0  0
 11 17  1  0  0  0  0
  9 10  1  0  0  0  0
  9 11  1  0  0  0  0
  9 24  1  0  0  0  0
  7  8  1  0  0  0  0
  7  9  1  0  0  0  0
 28 29  1  0  0  0  0
 28 30  1  0  0  0  0
 28 31  1  0  0  0  0
 26 27  1  0  0  0  0
 26 28  1  0  0  0  0
M  END
$$$$
default_name
  -OEChem-02102213163D

 31 30  0     1  0  0  0  0  0999 V2000
   -3.0760   -3.6390    1.5496 H   0  0  0  0  0  0  0  0  0  0  0  0
   -3.0940   -2.6290    1.1426 C   0  0  0  0  0  0  0  0  0  0  0  0
   -3.7160   -1.9930    1.7706 H   0  0  0  0  0  0  0  0  0  0  0  0
   -3.4880   -2.6500    0.1286 H   0  0  0  0  0  0  0  0  0  0  0  0
   -1.6860   -2.0850    1.1196 C   0  0  0  0  0  0  0  0  0  0  0  0
   -0.7540   -2.7700    1.5226 O   0  0  0  0  0  0  0  0  0  0  0  0
   -1.5320   -0.8490    0.6496 N   0  0  0  0  0  0  0  0  0  0  0  0
   -2.3500   -0.3360    0.3566 H   0  0  0  0  0  0  0  0  0  0  0  0
   -0.2470   -0.1410    0.5576 C   0  0  1  0  0  0  0  0  0  0  0  0
    0.4239   -0.7541   -0.0450 H   0  0  0  0  0  0  0  0  0  0  0  0
   -0.4317    1.2160   -0.1683 C   0  0  1  0  0  0  0  0  0  0  0  0
    0.0686    1.9749    0.4363 H   0  0  0  0  0  0  0  0  0  0  0  0
    0.2160    1.2284   -1.5662 C   0  0  0  0  0  0  0  0  0  0  0  0
   -0.3002    0.5372   -2.2347 H   0  0  0  0  0  0  0  0  0  0  0  0
    0.1782    2.2299   -1.9917 H   0  0  0  0  0  0  0  0  0  0  0  0
    1.2642    0.9351   -1.4981 H   0  0  0  0  0  0  0  0  0  0  0  0
   -1.9256    1.6026   -0.2487 C   0  0  0  0  0  0  0  0  0  0  0  0
   -2.5430    0.7033   -0.2526 H   0  0  0  0  0  0  0  0  0  0  0  0
   -2.1834    2.1907    0.6320 H   0  0  0  0  0  0  0  0  0  0  0  0
   -2.2797    2.4451   -1.4816 C   0  0  0  0  0  0  0  0  0  0  0  0
   -2.1418    1.8648   -2.3937 H   0  0  0  0  0  0  0  0  0  0  0  0
   -3.3243    2.7510   -1.4200 H   0  0  0  0  0  0  0  0  0  0  0  0
   -1.6514    3.3358   -1.5178 H   0  0  0  0  0  0  0  0  0  0  0  0
    0.3833   -0.0008    1.9525 C   0  0  0  0  0  0  0  0  0  0  0  0
    1.5803   -0.2304    2.1189 O   0  0  0  0  0  0  0  0  0  0  0  0
   -0.4170    0.3858    2.9541 N   0  0  0  0  0  0  0  0  0  0  0  0
   -1.3850    0.5669    2.7398 H   0  0  0  0  0  0  0  0  0  0  0  0
    0.0265    0.5600    4.3358 C   0  0  0  0  0  0  0  0  0  0  0  0
    0.8964    1.2200    4.3632 H   0  0  0  0  0  0  0  0  0  0  0  0
   -0.7726    0.9946    4.9382 H   0  0  0  0  0  0  0  0  0  0  0  0
    0.3119   -0.4069    4.7547 H   0  0  0  0  0  0  0  0  0  0  0  0
  5  6  2  0  0  0  0
  5  7  1  0  0  0  0
  2  3  1  0  0  0  0
  2  4  1  0  0  0  0
  2  5  1  0  0  0  0
  1  2  1  0  0  0  0
 24 25  2  0  0  0  0
 24 26  1  0  0  0  0
 20 21  1  0  0  0  0
 20 22  1  0  0  0  0
 20 23  1  0  0  0  0
 17 18  1  0  0  0  0
 17 19  1  0  0  0  0
 17 20  1  0  0  0  0
 13 14  1  0  0  0  0
 13 15  1  0  0  0  0
 13 16  1  0  0  0  0
 11 12  1  0  0  0  0
 11 13  1  0  0  0  0
 11 17  1  0  0  0  0
  9 10  1  0  0  0  0
  9 11  1  0  0  0  0
  9 24  1  0  0  0  0
  7  8  1  0  0  0  0
  7  9  1  0  0  0  0
 28 29  1  0  0  0  0
 28 30  1  0  0  0  0
 28 31  1  0  0  0  0
 26 27  1  0  0  0  0
 26 28  1  0  0  0  0
M  END
$$$$
default_name
  -OEChem-02102213163D

 31 30  0     1  0  0  0  0  0999 V2000
   -3.0760   -3.6390    1.5496 H   0  0  0  0  0  0  0  0  0  0  0  0
   -3.0940   -2.6290    1.1426 C   0  0  0  0  0  0  0  0  0  0  0  0
   -3.7160   -1.9930    1.7706 H   0  0  0  0  0  0  0  0  0  0  0  0
   -3.4880   -2.6500    0.1286 H   0  0  0  0  0  0  0  0  0  0  0  0
   -1.6860   -2.0850    1.1196 C   0  0  0  0  0  0  0  0  0  0  0  0
   -0.7540   -2.7700    1.5226 O   0  0  0  0  0  0  0  0  0  0  0  0
   -1.5320   -0.8490    0.6496 N   0  0  0  0  0  0  0  0  0  0  0  0
   -2.3500   -0.3360    0.3566 H   0  0  0  0  0  0  0  0  0  0  0  0
   -0.2470   -0.1410    0.5576 C   0  0  1  0  0  0  0  0  0  0  0  0
    0.4239   -0.7541   -0.0450 H   0  0  0  0  0  0  0  0  0  0  0  0
   -0.4317    1.2160   -0.1683 C   0  0  1  0  0  0  0  0  0  0  0  0
    0.0686    1.9749    0.4363 H   0  0  0  0  0  0  0  0  0  0  0  0
    0.2160    1.2284   -1.5662 C   0  0  0  0  0  0  0  0  0  0  0  0
   -0.3002    0.5372   -2.2347 H   0  0  0  0  0  0  0  0  0  0  0  0
    0.1782    2.2299   -1.9917 H   0  0  0  0  0  0  0  0  0  0  0  0
    1.2642    0.9351   -1.4981 H   0  0  0  0  0  0  0  0  0  0  0  0
   -1.9256    1.6026   -0.2487 C   0  0  0  0  0  0  0  0  0  0  0  0
   -2.5466    0.7445    0.0119 H   0  0  0  0  0  0  0  0  0  0  0  0
   -2.1212    2.3975    0.4709 H   0  0  0  0  0  0  0  0  0  0  0  0
   -2.3565    2.1180   -1.6286 C   0  0  0  0  0  0  0  0  0  0  0  0
   -2.2825    1.3253   -2.3729 H   0  0  0  0  0  0  0  0  0  0  0  0
   -3.3931    2.4521   -1.5799 H   0  0  0  0  0  0  0  0  0  0  0  0
   -1.7273    2.9575   -1.9264 H   0  0  0  0  0  0  0  0  0  0  0  0
    0.3833   -0.0008    1.9525 C   0  0  0  0  0  0  0  0  0  0  0  0
    1.5803   -0.2304    2.1189 O   0  0  0  0  0  0  0  0  0  0  0  0
   -0.4170    0.3858    2.9541 N   0  0  0  0  0  0  0  0  0  0  0  0
   -1.3850    0.5669    2.7398 H   0  0  0  0  0  0  0  0  0  0  0  0
    0.0265    0.5600    4.3358 C   0  0  0  0  0  0  0  0  0  0  0  0
    0.8964    1.2200    4.3632 H   0  0  0  0  0  0  0  0  0  0  0  0
   -0.7726    0.9946    4.9382 H   0  0  0  0  0  0  0  0  0  0  0  0
    0.3119   -0.4069    4.7547 H   0  0  0  0  0  0  0  0  0  0  0  0
  5  6  2  0  0  0  0
  5  7  1  0  0  0  0
  2  3  1  0  0  0  0
  2  4  1  0  0  0  0
  2  5  1  0  0  0  0
  1  2  1  0  0  0  0
 24 25  2  0  0  0  0
 24 26  1  0  0  0  0
 20 21  1  0  0  0  0
 20 22  1  0  0  0  0
 20 23  1  0  0  0  0
 17 18  1  0  0  0  0
 17 19  1  0  0  0  0
 17 20  1  0  0  0  0
 13 14  1  0  0  0  0
 13 15  1  0  0  0  0
 13 16  1  0  0  0  0
 11 12  1  0  0  0  0
 11 13  1  0  0  0  0
 11 17  1  0  0  0  0
  9 10  1  0  0  0  0
  9 11  1  0  0  0  0
  9 24  1  0  0  0  0
  7  8  1  0  0  0  0
  7  9  1  0  0  0  0
 28 29  1  0  0  0  0
 28 30  1  0  0  0  0
 28 31  1  0  0  0  0
 26 27  1  0  0  0  0
 26 28  1  0  0  0  0
M  END
$$$$
default_name
  -OEChem-02102213163D

 31 30  0     1  0  0  0  0  0999 V2000
   -3.0760   -3.6390    1.5496 H   0  0  0  0  0  0  0  0  0  0  0  0
   -3.0940   -2.6290    1.1426 C   0  0  0  0  0  0  0  0  0  0  0  0
   -3.7160   -1.9930    1.7706 H   0  0  0  0  0  0  0  0  0  0  0  0
   -3.4880   -2.6500    0.1286 H   0  0  0  0  0  0  0  0  0  0  0  0
   -1.6860   -2.0850    1.1196 C   0  0  0  0  0  0  0  0  0  0  0  0
   -0.7540   -2.7700    1.5226 O   0  0  0  0  0  0  0  0  0  0  0  0
   -1.5320   -0.8490    0.6496 N   0  0  0  0  0  0  0  0  0  0  0  0
   -2.3500   -0.3360    0.3566 H   0  0  0  0  0  0  0  0  0  0  0  0
   -0.2470   -0.1410    0.5576 C   0  0  1  0  0  0  0  0  0  0  0  0
    0.4239   -0.7541   -0.0450 H   0  0  0  0  0  0  0  0  0  0  0  0
   -0.4317    1.2160   -0.1683 C   0  0  1  0  0  0  0  0  0  0  0  0
    0.0686    1.9749    0.4363 H   0  0  0  0  0  0  0  0  0  0  0  0
    0.2160    1.2284   -1.5662 C   0  0  0  0  0  0  0  0  0  0  0  0
   -0.3002    0.5372   -2.2347 H   0  0  0  0  0  0  0  0  0  0  0  0
    0.1782    2.2299   -1.9917 H   0  0  0  0  0  0  0  0  0  0  0  0
    1.2642    0.9351   -1.4981 H   0  0  0  0  0  0  0  0  0  0  0  0
   -1.9256    1.6026   -0.2487 C   0  0  0  0  0  0  0  0  0  0  0  0
   -2.5324    0.8505    0.2573 H   0  0  0  0  0  0  0  0  0  0  0  0
   -2.0688    2.5561    0.2595 H   0  0  0  0  0  0  0  0  0  0  0  0
   -2.4445    1.7662   -1.6837 C   0  0  0  0  0  0  0  0  0  0  0  0
   -2.4244    0.8114   -2.2087 H   0  0  0  0  0  0  0  0  0  0  0  0
   -3.4738    2.1244   -1.6551 H   0  0  0  0  0  0  0  0  0  0  0  0
   -1.8322    2.4908   -2.2215 H   0  0  0  0  0  0  0  0  0  0  0  0
    0.3833   -0.0008    1.9525 C   0  0  0  0  0  0  0  0  0  0  0  0
    1.5803   -0.2304    2.1189 O   0  0  0  0  0  0  0  0  0  0  0  0
   -0.4170    0.3858    2.9541 N   0  0  0  0  0  0  0  0  0  0  0  0
   -1.3850    0.5669    2.7398 H   0  0  0  0  0  0  0  0  0  0  0  0
    0.0265    0.5600    4.3358 C   0  0  0  0  0  0  0  0  0  0  0  0
    0.8964    1.2200    4.3632 H   0  0  0  0  0  0  0  0  0  0  0  0
   -0.7726    0.9946    4.9382 H   0  0  0  0  0  0  0  0  0  0  0  0
    0.3119   -0.4069    4.7547 H   0  0  0  0  0  0  0  0  0  0  0  0
  5  6  2  0  0  0  0
  5  7  1  0  0  0  0
  2  3  1  0  0  0  0
  2  4  1  0  0  0  0
  2  5  1  0  0  0  0
  1  2  1  0  0  0  0
 24 25  2  0  0  0  0
 24 26  1  0  0  0  0
 20 21  1  0  0  0  0
 20 22  1  0  0  0  0
 20 23  1  0  0  0  0
 17 18  1  0  0  0  0
 17 19  1  0  0  0  0
 17 20  1  0  0  0  0
 13 14  1  0  0  0  0
 13 15  1  0  0  0  0
 13 16  1  0  0  0  0
 11 12  1  0  0  0  0
 11 13  1  0  0  0  0
 11 17  1  0  0  0  0
  9 10  1  0  0  0  0
  9 11  1  0  0  0  0
  9 24  1  0  0  0  0
  7  8  1  0  0  0  0
  7  9  1  0  0  0  0
 28 29  1  0  0  0  0
 28 30  1  0  0  0  0
 28 31  1  0  0  0  0
 26 27  1  0  0  0  0
 26 28  1  0  0  0  0
M  END
$$$$
default_name
  -OEChem-02102213163D

 31 30  0     1  0  0  0  0  0999 V2000
   -3.0760   -3.6390    1.5496 H   0  0  0  0  0  0  0  0  0  0  0  0
   -3.0940   -2.6290    1.1426 C   0  0  0  0  0  0  0  0  0  0  0  0
   -3.7160   -1.9930    1.7706 H   0  0  0  0  0  0  0  0  0  0  0  0
   -3.4880   -2.6500    0.1286 H   0  0  0  0  0  0  0  0  0  0  0  0
   -1.6860   -2.0850    1.1196 C   0  0  0  0  0  0  0  0  0  0  0  0
   -0.7540   -2.7700    1.5226 O   0  0  0  0  0  0  0  0  0  0  0  0
   -1.5320   -0.8490    0.6496 N   0  0  0  0  0  0  0  0  0  0  0  0
   -2.3500   -0.3360    0.3566 H   0  0  0  0  0  0  0  0  0  0  0  0
   -0.2470   -0.1410    0.5576 C   0  0  1  0  0  0  0  0  0  0  0  0
    0.4239   -0.7541   -0.0450 H   0  0  0  0  0  0  0  0  0  0  0  0
   -0.4317    1.2160   -0.1683 C   0  0  1  0  0  0  0  0  0  0  0  0
    0.0686    1.9749    0.4363 H   0  0  0  0  0  0  0  0  0  0  0  0
    0.2160    1.2284   -1.5662 C   0  0  0  0  0  0  0  0  0  0  0  0
   -0.3002    0.5372   -2.2347 H   0  0  0  0  0  0  0  0  0  0  0  0
    0.1782    2.2299   -1.9917 H   0  0  0  0  0  0  0  0  0  0  0  0
    1.2642    0.9351   -1.4981 H   0  0  0  0  0  0  0  0  0  0  0  0
   -1.9256    1.6026   -0.2487 C   0  0  0  0  0  0  0  0  0  0  0  0
   -2.5013    1.0141    0.4668 H   0  0  0  0  0  0  0  0  0  0  0  0
   -2.0297    2.6557    0.0122 H   0  0  0  0  0  0  0  0  0  0  0  0
   -2.5379    1.4138   -1.6432 C   0  0  0  0  0  0  0  0  0  0  0  0
   -2.5577    0.3579   -1.9123 H   0  0  0  0  0  0  0  0  0  0  0  0
   -3.5612    1.7900   -1.6405 H   0  0  0  0  0  0  0  0  0  0  0  0
   -1.9589    1.9677   -2.3830 H   0  0  0  0  0  0  0  0  0  0  0  0
    0.3833   -0.0008    1.9525 C   0  0  0  0  0  0  0  0  0  0  0  0
    1.5803   -0.2304    2.1189 O   0  0  0  0  0  0  0  0  0  0  0  0
   -0.4170    0.3858    2.9541 N   0  0  0  0  0  0  0  0  0  0  0  0
   -1.3850    0.5669    2.7398 H   0  0  0  0  0  0  0  0  0  0  0  0
    0.0265    0.5600    4.3358 C   0  0  0  0  0  0  0  0  0  0  0  0
    0.8964    1.2200    4.3632 H   0  0  0  0  0  0  0  0  0  0  0  0
   -0.7726    0.9946    4.9382 H   0  0  0  0  0  0  0  0  0  0  0  0
    0.3119   -0.4069    4.7547 H   0  0  0  0  0  0  0  0  0  0  0  0
  5  6  2  0  0  0  0
  5  7  1  0  0  0  0
  2  3  1  0  0  0  0
  2  4  1  0  0  0  0
  2  5  1  0  0  0  0
  1  2  1  0  0  0  0
 24 25  2  0  0  0  0
 24 26  1  0  0  0  0
 20 21  1  0  0  0  0
 20 22  1  0  0  0  0
 20 23  1  0  0  0  0
 17 18  1  0  0  0  0
 17 19  1  0  0  0  0
 17 20  1  0  0  0  0
 13 14  1  0  0  0  0
 13 15  1  0  0  0  0
 13 16  1  0  0  0  0
 11 12  1  0  0  0  0
 11 13  1  0  0  0  0
 11 17  1  0  0  0  0
  9 10  1  0  0  0  0
  9 11  1  0  0  0  0
  9 24  1  0  0  0  0
  7  8  1  0  0  0  0
  7  9  1  0  0  0  0
 28 29  1  0  0  0  0
 28 30  1  0  0  0  0
 28 31  1  0  0  0  0
 26 27  1  0  0  0  0
 26 28  1  0  0  0  0
M  END
$$$$
default_name
  -OEChem-02102213163D

 31 30  0     1  0  0  0  0  0999 V2000
   -3.0760   -3.6390    1.5496 H   0  0  0  0  0  0  0  0  0  0  0  0
   -3.0940   -2.6290    1.1426 C   0  0  0  0  0  0  0  0  0  0  0  0
   -3.7160   -1.9930    1.7706 H   0  0  0  0  0  0  0  0  0  0  0  0
   -3.4880   -2.6500    0.1286 H   0  0  0  0  0  0  0  0  0  0  0  0
   -1.6860   -2.0850    1.1196 C   0  0  0  0  0  0  0  0  0  0  0  0
   -0.7540   -2.7700    1.5226 O   0  0  0  0  0  0  0  0  0  0  0  0
   -1.5320   -0.8490    0.6496 N   0  0  0  0  0  0  0  0  0  0  0  0
   -2.3500   -0.3360    0.3566 H   0  0  0  0  0  0  0  0  0  0  0  0
   -0.2470   -0.1410    0.5576 C   0  0  1  0  0  0  0  0  0  0  0  0
    0.4239   -0.7541   -0.0450 H   0  0  0  0  0  0  0  0  0  0  0  0
   -0.4317    1.2160   -0.1683 C   0  0  1  0  0  0  0  0  0  0  0  0
    0.0686    1.9749    0.4363 H   0  0  0  0  0  0  0  0  0  0  0  0
    0.2160    1.2284   -1.5662 C   0  0  0  0  0  0  0  0  0  0  0  0
   -0.3002    0.5372   -2.2347 H   0  0  0  0  0  0  0  0  0  0  0  0
    0.1782    2.2299   -1.9917 H   0  0  0  0  0  0  0  0  0  0  0  0
    1.2642    0.9351   -1.4981 H   0  0  0  0  0  0  0  0  0  0  0  0
   -1.9256    1.6026   -0.2487 C   0  0  0  0  0  0  0  0  0  0  0  0
   -2.4555    1.2241    0.6263 H   0  0  0  0  0  0  0  0  0  0  0  0
   -2.0067    2.6895   -0.2541 H   0  0  0  0  0  0  0  0  0  0  0  0
   -2.6302    1.0848   -1.5099 C   0  0  0  0  0  0  0  0  0  0  0  0
   -2.6734   -0.0042   -1.5040 H   0  0  0  0  0  0  0  0  0  0  0  0
   -3.6490    1.4719   -1.5370 H   0  0  0  0  0  0  0  0  0  0  0  0
   -2.0987    1.4236   -2.3999 H   0  0  0  0  0  0  0  0  0  0  0  0
    0.3833   -0.0008    1.9525 C   0  0  0  0  0  0  0  0  0  0  0  0
    1.5803   -0.2304    2.1189 O   0  0  0  0  0  0  0  0  0  0  0  0
   -0.4170    0.3858    2.9541 N   0  0  0  0  0  0  0  0  0  0  0  0
   -1.3850    0.5669    2.7398 H   0  0  0  0  0  0  0  0  0  0  0  0
    0.0265    0.5600    4.3358 C   0  0  0  0  0  0  0  0  0  0  0  0
    0.8964    1.2200    4.3632 H   0  0  0  0  0  0  0  0  0  0  0  0
   -0.7726    0.9946    4.9382 H   0  0  0  0  0  0  0  0  0  0  0  0
    0.3119   -0.4069    4.7547 H   0  0  0  0  0  0  0  0  0  0  0  0
  5  6  2  0  0  0  0
  5  7  1  0  0  0  0
  2  3  1  0  0  0  0
  2  4  1  0  0  0  0
  2  5  1  0  0  0  0
  1  2  1  0  0  0  0
 24 25  2  0  0  0  0
 24 26  1  0  0  0  0
 20 21  1  0  0  0  0
 20 22  1  0  0  0  0
 20 23  1  0  0  0  0
 17 18  1  0  0  0  0
 17 19  1  0  0  0  0
 17 20  1  0  0  0  0
 13 14  1  0  0  0  0
 13 15  1  0  0  0  0
 13 16  1  0  0  0  0
 11 12  1  0  0  0  0
 11 13  1  0  0  0  0
 11 17  1  0  0  0  0
  9 10  1  0  0  0  0
  9 11  1  0  0  0  0
  9 24  1  0  0  0  0
  7  8  1  0  0  0  0
  7  9  1  0  0  0  0
 28 29  1  0  0  0  0
 28 30  1  0  0  0  0
 28 31  1  0  0  0  0
 26 27  1  0  0  0  0
 26 28  1  0  0  0  0
M  END
$$$$
default_name
  -OEChem-02102213163D

 31 30  0     1  0  0  0  0  0999 V2000
   -3.0760   -3.6390    1.5496 H   0  0  0  0  0  0  0  0  0  0  0  0
   -3.0940   -2.6290    1.1426 C   0  0  0  0  0  0  0  0  0  0  0  0
   -3.7160   -1.9930    1.7706 H   0  0  0  0  0  0  0  0  0  0  0  0
   -3.4880   -2.6500    0.1286 H   0  0  0  0  0  0  0  0  0  0  0  0
   -1.6860   -2.0850    1.1196 C   0  0  0  0  0  0  0  0  0  0  0  0
   -0.7540   -2.7700    1.5226 O   0  0  0  0  0  0  0  0  0  0  0  0
   -1.5320   -0.8490    0.6496 N   0  0  0  0  0  0  0  0  0  0  0  0
   -2.3500   -0.3360    0.3566 H   0  0  0  0  0  0  0  0  0  0  0  0
   -0.2470   -0.1410    0.5576 C   0  0  1  0  0  0  0  0  0  0  0  0
    0.4239   -0.7541   -0.0450 H   0  0  0  0  0  0  0  0  0  0  0  0
   -0.4317    1.2160   -0.1683 C   0  0  1  0  0  0  0  0  0  0  0  0
    0.0686    1.9749    0.4363 H   0  0  0  0  0  0  0  0  0  0  0  0
    0.2160    1.2284   -1.5662 C   0  0  0  0  0  0  0  0  0  0  0  0
   -0.3002    0.5372   -2.2347 H   0  0  0  0  0  0  0  0  0  0  0  0
    0.1782    2.2299   -1.9917 H   0  0  0  0  0  0  0  0  0  0  0  0
    1.2642    0.9351   -1.4981 H   0  0  0  0  0  0  0  0  0  0  0  0
   -1.9256    1.6026   -0.2487 C   0  0  0  0  0  0  0  0  0  0  0  0
   -2.3982    1.4663    0.7249 H   0  0  0  0  0  0  0  0  0  0  0  0
   -2.0012    2.6552   -0.5212 H   0  0  0  0  0  0  0  0  0  0  0  0
   -2.7152    0.8016   -1.2929 C   0  0  0  0  0  0  0  0  0  0  0  0
   -2.7635   -0.2501   -1.0114 H   0  0  0  0  0  0  0  0  0  0  0  0
   -3.7315    1.1917   -1.3519 H   0  0  0  0  0  0  0  0  0  0  0  0
   -2.2423    0.8958   -2.2710 H   0  0  0  0  0  0  0  0  0  0  0  0
    0.3833   -0.0008    1.9525 C   0  0  0  0  0  0  0  0  0  0  0  0
    1.5803   -0.2304    2.1189 O   0  0  0  0  0  0  0  0  0  0  0  0
   -0.4170    0.3858    2.9541 N   0  0  0  0  0  0  0  0  0  0  0  0
   -1.3850    0.5669    2.7398 H   0  0  0  0  0  0  0  0  0  0  0  0
    0.0265    0.5600    4.3358 C   0  0  0  0  0  0  0  0  0  0  0  0
    0.8964    1.2200    4.3632 H   0  0  0  0  0  0  0  0  0  0  0  0
   -0.7726    0.9946    4.9382 H   0  0  0  0  0  0  0  0  0  0  0  0
    0.3119   -0.4069    4.7547 H   0  0  0  0  0  0  0  0  0  0  0  0
  5  6  2  0  0  0  0
  5  7  1  0  0  0  0
  2  3  1  0  0  0  0
  2  4  1  0  0  0  0
  2  5  1  0  0  0  0
  1  2  1  0  0  0  0
 24 25  2  0  0  0  0
 24 26  1  0  0  0  0
 20 21  1  0  0  0  0
 20 22  1  0  0  0  0
 20 23  1  0  0  0  0
 17 18  1  0  0  0  0
 17 19  1  0  0  0  0
 17 20  1  0  0  0  0
 13 14  1  0  0  0  0
 13 15  1  0  0  0  0
 13 16  1  0  0  0  0
 11 12  1  0  0  0  0
 11 13  1  0  0  0  0
 11 17  1  0  0  0  0
  9 10  1  0  0  0  0
  9 11  1  0  0  0  0
  9 24  1  0  0  0  0
  7  8  1  0  0  0  0
  7  9  1  0  0  0  0
 28 29  1  0  0  0  0
 28 30  1  0  0  0  0
 28 31  1  0  0  0  0
 26 27  1  0  0  0  0
 26 28  1  0  0  0  0
M  END
$$$$
default_name
  -OEChem-02102213163D

 31 30  0     1  0  0  0  0  0999 V2000
   -3.0760   -3.6390    1.5496 H   0  0  0  0  0  0  0  0  0  0  0  0
   -3.0940   -2.6290    1.1426 C   0  0  0  0  0  0  0  0  0  0  0  0
   -3.7160   -1.9930    1.7706 H   0  0  0  0  0  0  0  0  0  0  0  0
   -3.4880   -2.6500    0.1286 H   0  0  0  0  0  0  0  0  0  0  0  0
   -1.6860   -2.0850    1.1196 C   0  0  0  0  0  0  0  0  0  0  0  0
   -0.7540   -2.7700    1.5226 O   0  0  0  0  0  0  0  0  0  0  0  0
   -1.5320   -0.8490    0.6496 N   0  0  0  0  0  0  0  0  0  0  0  0
   -2.3500   -0.3360    0.3566 H   0  0  0  0  0  0  0  0  0  0  0  0
   -0.2470   -0.1410    0.5576 C   0  0  1  0  0  0  0  0  0  0  0  0
    0.4239   -0.7541   -0.0450 H   0  0  0  0  0  0  0  0  0  0  0  0
   -0.4317    1.2160   -0.1683 C   0  0  1  0  0  0  0  0  0  0  0  0
    0.0686    1.9749    0.4363 H   0  0  0  0  0  0  0  0  0  0  0  0
    0.2160    1.2284   -1.5662 C   0  0  0  0  0  0  0  0  0  0  0  0
   -0.3002    0.5372   -2.2347 H   0  0  0  0  0  0  0  0  0  0  0  0
    0.1782    2.2299   -1.9917 H   0  0  0  0  0  0  0  0  0  0  0  0
    1.2642    0.9351   -1.4981 H   0  0  0  0  0  0  0  0  0  0  0  0
   -1.9256    1.6026   -0.2487 C   0  0  0  0  0  0  0  0  0  0  0  0
   -2.3331    1.7241    0.7558 H   0  0  0  0  0  0  0  0  0  0  0  0
   -2.0136    2.5552   -0.7711 H   0  0  0  0  0  0  0  0  0  0  0  0
   -2.7870    0.5835   -1.0068 C   0  0  0  0  0  0  0  0  0  0  0  0
   -2.8220   -0.3633   -0.4682 H   0  0  0  0  0  0  0  0  0  0  0  0
   -3.8030    0.9685   -1.0975 H   0  0  0  0  0  0  0  0  0  0  0  0
   -2.3797    0.4201   -2.0052 H   0  0  0  0  0  0  0  0  0  0  0  0
    0.3833   -0.0008    1.9525 C   0  0  0  0  0  0  0  0  0  0  0  0
    1.5803   -0.2304    2.1189 O   0  0  0  0  0  0  0  0  0  0  0  0
   -0.4170    0.3858    2.9541 N   0  0  0  0  0  0  0  0  0  0  0  0
   -1.3850    0.5669    2.7398 H   0  0  0  0  0  0  0  0  0  0  0  0
    0.0265    0.5600    4.3358 C   0  0  0  0  0  0  0  0  0  0  0  0
    0.8964    1.2200    4.3632 H   0  0  0  0  0  0  0  0  0  0  0  0
   -0.7726    0.9946    4.9382 H   0  0  0  0  0  0  0  0  0  0  0  0
    0.3119   -0.4069    4.7547 H   0  0  0  0  0  0  0  0  0  0  0  0
  5  6  2  0  0  0  0
  5  7  1  0  0  0  0
  2  3  1  0  0  0  0
  2  4  1  0  0  0  0
  2  5  1  0  0  0  0
  1  2  1  0  0  0  0
 24 25  2  0  0  0  0
 24 26  1  0  0  0  0
 20 21  1  0  0  0  0
 20 22  1  0  0  0  0
 20 23  1  0  0  0  0
 17 18  1  0  0  0  0
 17 19  1  0  0  0  0
 17 20  1  0  0  0  0
 13 14  1  0  0  0  0
 13 15  1  0  0  0  0
 13 16  1  0  0  0  0
 11 12  1  0  0  0  0
 11 13  1  0  0  0  0
 11 17  1  0  0  0  0
  9 10  1  0  0  0  0
  9 11  1  0  0  0  0
  9 24  1  0  0  0  0
  7  8  1  0  0  0  0
  7  9  1  0  0  0  0
 28 29  1  0  0  0  0
 28 30  1  0  0  0  0
 28 31  1  0  0  0  0
 26 27  1  0  0  0  0
 26 28  1  0  0  0  0
M  END
$$$$
default_name
  -OEChem-02102213163D

 31 30  0     1  0  0  0  0  0999 V2000
   -3.0760   -3.6390    1.5496 H   0  0  0  0  0  0  0  0  0  0  0  0
   -3.0940   -2.6290    1.1426 C   0  0  0  0  0  0  0  0  0  0  0  0
   -3.7160   -1.9930    1.7706 H   0  0  0  0  0  0  0  0  0  0  0  0
   -3.4880   -2.6500    0.1286 H   0  0  0  0  0  0  0  0  0  0  0  0
   -1.6860   -2.0850    1.1196 C   0  0  0  0  0  0  0  0  0  0  0  0
   -0.7540   -2.7700    1.5226 O   0  0  0  0  0  0  0  0  0  0  0  0
   -1.5320   -0.8490    0.6496 N   0  0  0  0  0  0  0  0  0  0  0  0
   -2.3500   -0.3360    0.3566 H   0  0  0  0  0  0  0  0  0  0  0  0
   -0.2470   -0.1410    0.5576 C   0  0  1  0  0  0  0  0  0  0  0  0
    0.4239   -0.7541   -0.0450 H   0  0  0  0  0  0  0  0  0  0  0  0
   -0.4317    1.2160   -0.1683 C   0  0  1  0  0  0  0  0  0  0  0  0
    0.0686    1.9749    0.4363 H   0  0  0  0  0  0  0  0  0  0  0  0
    0.2160    1.2284   -1.5662 C   0  0  0  0  0  0  0  0  0  0  0  0
   -0.3002    0.5372   -2.2347 H   0  0  0  0  0  0  0  0  0  0  0  0
    0.1782    2.2299   -1.9917 H   0  0  0  0  0  0  0  0  0  0  0  0
    1.2642    0.9351   -1.4981 H   0  0  0  0  0  0  0  0  0  0  0  0
   -1.9256    1.6026   -0.2487 C   0  0  0  0  0  0  0  0  0  0  0  0
   -2.2648    1.9799    0.7169 H   0  0  0  0  0  0  0  0  0  0  0  0
   -2.0431    2.3962   -0.9865 H   0  0  0  0  0  0  0  0  0  0  0  0
   -2.8408    0.4454   -0.6713 C   0  0  0  0  0  0  0  0  0  0  0  0
   -2.8449   -0.3358    0.0885 H   0  0  0  0  0  0  0  0  0  0  0  0
   -3.8585    0.8175   -0.7914 H   0  0  0  0  0  0  0  0  0  0  0  0
   -2.5016    0.0290   -1.6205 H   0  0  0  0  0  0  0  0  0  0  0  0
    0.3833   -0.0008    1.9525 C   0  0  0  0  0  0  0  0  0  0  0  0
    1.5803   -0.2304    2.1189 O   0  0  0  0  0  0  0  0  0  0  0  0
   -0.4170    0.3858    2.9541 N   0  0  0  0  0  0  0  0  0  0  0  0
   -1.3850    0.5669    2.7398 H   0  0  0  0  0  0  0  0  0  0  0  0
    0.0265    0.5600    4.3358 C   0  0  0  0  0  0  0  0  0  0  0  0
    0.8964    1.2200    4.3632 H   0  0  0  0  0  0  0  0  0  0  0  0
   -0.7726    0.9946    4.9382 H   0  0  0  0  0  0  0  0  0  0  0  0
    0.3119   -0.4069    4.7547 H   0  0  0  0  0  0  0  0  0  0  0  0
  5  6  2  0  0  0  0
  5  7  1  0  0  0  0
  2  3  1  0  0  0  0
  2  4  1  0  0  0  0
  2  5  1  0  0  0  0
  1  2  1  0  0  0  0
 24 25  2  0  0  0  0
 24 26  1  0  0  0  0
 20 21  1  0  0  0  0
 20 22  1  0  0  0  0
 20 23  1  0  0  0  0
 17 18  1  0  0  0  0
 17 19  1  0  0  0  0
 17 20  1  0  0  0  0
 13 14  1  0  0  0  0
 13 15  1  0  0  0  0
 13 16  1  0  0  0  0
 11 12  1  0  0  0  0
 11 13  1  0  0  0  0
 11 17  1  0  0  0  0
  9 10  1  0  0  0  0
  9 11  1  0  0  0  0
  9 24  1  0  0  0  0
  7  8  1  0  0  0  0
  7  9  1  0  0  0  0
 28 29  1  0  0  0  0
 28 30  1  0  0  0  0
 28 31  1  0  0  0  0
 26 27  1  0  0  0  0
 26 28  1  0  0  0  0
M  END
$$$$
default_name
  -OEChem-02102213163D

 31 30  0     1  0  0  0  0  0999 V2000
   -3.0760   -3.6390    1.5496 H   0  0  0  0  0  0  0  0  0  0  0  0
   -3.0940   -2.6290    1.1426 C   0  0  0  0  0  0  0  0  0  0  0  0
   -3.7160   -1.9930    1.7706 H   0  0  0  0  0  0  0  0  0  0  0  0
   -3.4880   -2.6500    0.1286 H   0  0  0  0  0  0  0  0  0  0  0  0
   -1.6860   -2.0850    1.1196 C   0  0  0  0  0  0  0  0  0  0  0  0
   -0.7540   -2.7700    1.5226 O   0  0  0  0  0  0  0  0  0  0  0  0
   -1.5320   -0.8490    0.6496 N   0  0  0  0  0  0  0  0  0  0  0  0
   -2.3500   -0.3360    0.3566 H   0  0  0  0  0  0  0  0  0  0  0  0
   -0.2470   -0.1410    0.5576 C   0  0  1  0  0  0  0  0  0  0  0  0
    0.4239   -0.7541   -0.0450 H   0  0  0  0  0  0  0  0  0  0  0  0
   -0.4317    1.2160   -0.1683 C   0  0  1  0  0  0  0  0  0  0  0  0
    0.0686    1.9749    0.4363 H   0  0  0  0  0  0  0  0  0  0  0  0
    0.2160    1.2284   -1.5662 C   0  0  0  0  0  0  0  0  0  0  0  0
   -0.3002    0.5372   -2.2347 H   0  0  0  0  0  0  0  0  0  0  0  0
    0.1782    2.2299   -1.9917 H   0  0  0  0  0  0  0  0  0  0  0  0
    1.2642    0.9351   -1.4981 H   0  0  0  0  0  0  0  0  0  0  0  0
   -1.9256    1.6026   -0.2487 C   0  0  0  0  0  0  0  0  0  0  0  0
   -2.1979    2.2164    0.6109 H   0  0  0  0  0  0  0  0  0  0  0  0
   -2.0878    2.1891   -1.1530 H   0  0  0  0  0  0  0  0  0  0  0  0
   -2.8729    0.3967   -0.3092 C   0  0  0  0  0  0  0  0  0  0  0  0
   -2.8306   -0.1697    0.6209 H   0  0  0  0  0  0  0  0  0  0  0  0
   -3.8944    0.7490   -0.4543 H   0  0  0  0  0  0  0  0  0  0  0  0
   -2.5998   -0.2509   -1.1431 H   0  0  0  0  0  0  0  0  0  0  0  0
    0.3833   -0.0008    1.9525 C   0  0  0  0  0  0  0  0  0  0  0  0
    1.5803   -0.2304    2.1189 O   0  0  0  0  0  0  0  0  0  0  0  0
   -0.4170    0.3858    2.9541 N   0  0  0  0  0  0  0  0  0  0  0  0
   -1.3850    0.5669    2.7398 H   0  0  0  0  0  0  0  0  0  0  0  0
    0.0265    0.5600    4.3358 C   0  0  0  0  0  0  0  0  0  0  0  0
    0.8964    1.2200    4.3632 H   0  0  0  0  0  0  0  0  0  0  0  0
   -0.7726    0.9946    4.9382 H   0  0  0  0  0  0  0  0  0  0  0  0
    0.3119   -0.4069    4.7547 H   0  0  0  0  0  0  0  0  0  0  0  0
  5  6  2  0  0  0  0
  5  7  1  0  0  0  0
  2  3  1  0  0  0  0
  2  4  1  0  0  0  0
  2  5  1  0  0  0  0
  1  2  1  0  0  0  0
 24 25  2  0  0  0  0
 24 26  1  0  0  0  0
 20 21  1  0  0  0  0
 20 22  1  0  0  0  0
 20 23  1  0  0  0  0
 17 18  1  0  0  0  0
 17 19  1  0  0  0  0
 17 20  1  0  0  0  0
 13 14  1  0  0  0  0
 13 15  1  0  0  0  0
 13 16  1  0  0  0  0
 11 12  1  0  0  0  0
 11 13  1  0  0  0  0
 11 17  1  0  0  0  0
  9 10  1  0  0  0  0
  9 11  1  0  0  0  0
  9 24  1  0  0  0  0
  7  8  1  0  0  0  0
  7  9  1  0  0  0  0
 28 29  1  0  0  0  0
 28 30  1  0  0  0  0
 28 31  1  0  0  0  0
 26 27  1  0  0  0  0
 26 28  1  0  0  0  0
M  END
$$$$
default_name
  -OEChem-02102213163D

 31 30  0     1  0  0  0  0  0999 V2000
   -3.0760   -3.6390    1.5496 H   0  0  0  0  0  0  0  0  0  0  0  0
   -3.0940   -2.6290    1.1426 C   0  0  0  0  0  0  0  0  0  0  0  0
   -3.7160   -1.9930    1.7706 H   0  0  0  0  0  0  0  0  0  0  0  0
   -3.4880   -2.6500    0.1286 H   0  0  0  0  0  0  0  0  0  0  0  0
   -1.6860   -2.0850    1.1196 C   0  0  0  0  0  0  0  0  0  0  0  0
   -0.7540   -2.7700    1.5226 O   0  0  0  0  0  0  0  0  0  0  0  0
   -1.5320   -0.8490    0.6496 N   0  0  0  0  0  0  0  0  0  0  0  0
   -2.3500   -0.3360    0.3566 H   0  0  0  0  0  0  0  0  0  0  0  0
   -0.2470   -0.1410    0.5576 C   0  0  1  0  0  0  0  0  0  0  0  0
    0.4239   -0.7541   -0.0450 H   0  0  0  0  0  0  0  0  0  0  0  0
   -0.4317    1.2160   -0.1683 C   0  0  1  0  0  0  0  0  0  0  0  0
    0.0686    1.9749    0.4363 H   0  0  0  0  0  0  0  0  0  0  0  0
    0.2160    1.2284   -1.5662 C   0  0  0  0  0  0  0  0  0  0  0  0
   -0.3002    0.5372   -2.2347 H   0  0  0  0  0  0  0  0  0  0  0  0
    0.1782    2.2299   -1.9917 H   0  0  0  0  0  0  0  0  0  0  0  0
    1.2642    0.9351   -1.4981 H   0  0  0  0  0  0  0  0  0  0  0  0
   -1.9256    1.6026   -0.2487 C   0  0  0  0  0  0  0  0  0  0  0  0
   -2.1369    2.4174    0.4449 H   0  0  0  0  0  0  0  0  0  0  0  0
   -2.1445    1.9480   -1.2591 H   0  0  0  0  0  0  0  0  0  0  0  0
   -2.8811    0.4407    0.0548 C   0  0  0  0  0  0  0  0  0  0  0  0
   -2.7800    0.1237    1.0927 H   0  0  0  0  0  0  0  0  0  0  0  0
   -3.9082    0.7677   -0.1092 H   0  0  0  0  0  0  0  0  0  0  0  0
   -2.6674   -0.4004   -0.6056 H   0  0  0  0  0  0  0  0  0  0  0  0
    0.3833   -0.0008    1.9525 C   0  0  0  0  0  0  0  0  0  0  0  0
    1.5803   -0.2304    2.1189 O   0  0  0  0  0  0  0  0  0  0  0  0
   -0.4170    0.3858    2.9541 N   0  0  0  0  0  0  0  0  0  0  0  0
   -1.3850    0.5669    2.7398 H   0  0  0  0  0  0  0  0  0  0  0  0
    0.0265    0.5600    4.3358 C   0  0  0  0  0  0  0  0  0  0  0  0
    0.8964    1.2200    4.3632 H   0  0  0  0  0  0  0  0  0  0  0  0
   -0.7726    0.9946    4.9382 H   0  0  0  0  0  0  0  0  0  0  0  0
    0.3119   -0.4069    4.7547 H   0  0  0  0  0  0  0  0  0  0  0  0
  5  6  2  0  0  0  0
  5  7  1  0  0  0  0
  2  3  1  0  0  0  0
  2  4  1  0  0  0  0
  2  5  1  0  0  0  0
  1  2  1  0  0  0  0
 24 25  2  0  0  0  0
 24 26  1  0  0  0  0
 20 21  1  0  0  0  0
 20 22  1  0  0  0  0
 20 23  1  0  0  0  0
 17 18  1  0  0  0  0
 17 19  1  0  0  0  0
 17 20  1  0  0  0  0
 13 14  1  0  0  0  0
 13 15  1  0  0  0  0
 13 16  1  0  0  0  0
 11 12  1  0  0  0  0
 11 13  1  0  0  0  0
 11 17  1  0  0  0  0
  9 10  1  0  0  0  0
  9 11  1  0  0  0  0
  9 24  1  0  0  0  0
  7  8  1  0  0  0  0
  7  9  1  0  0  0  0
 28 29  1  0  0  0  0
 28 30  1  0  0  0  0
 28 31  1  0  0  0  0
 26 27  1  0  0  0  0
 26 28  1  0  0  0  0
M  END
$$$$
default_name
  -OEChem-02102213163D

 31 30  0     1  0  0  0  0  0999 V2000
   -3.0760   -3.6390    1.5496 H   0  0  0  0  0  0  0  0  0  0  0  0
   -3.0940   -2.6290    1.1426 C   0  0  0  0  0  0  0  0  0  0  0  0
   -3.7160   -1.9930    1.7706 H   0  0  0  0  0  0  0  0  0  0  0  0
   -3.4880   -2.6500    0.1286 H   0  0  0  0  0  0  0  0  0  0  0  0
   -1.6860   -2.0850    1.1196 C   0  0  0  0  0  0  0  0  0  0  0  0
   -0.7540   -2.7700    1.5226 O   0  0  0  0  0  0  0  0  0  0  0  0
   -1.5320   -0.8490    0.6496 N   0  0  0  0  0  0  0  0  0  0  0  0
   -2.3500   -0.3360    0.3566 H   0  0  0  0  0  0  0  0  0  0  0  0
   -0.2470   -0.1410    0.5576 C   0  0  1  0  0  0  0  0  0  0  0  0
    0.4239   -0.7541   -0.0450 H   0  0  0  0  0  0  0  0  0  0  0  0
   -0.4317    1.2160   -0.1683 C   0  0  1  0  0  0  0  0  0  0  0  0
    0.0686    1.9749    0.4363 H   0  0  0  0  0  0  0  0  0  0  0  0
    0.2160    1.2284   -1.5662 C   0  0  0  0  0  0  0  0  0  0  0  0
   -0.3002    0.5372   -2.2347 H   0  0  0  0  0  0  0  0  0  0  0  0
    0.1782    2.2299   -1.9917 H   0  0  0  0  0  0  0  0  0  0  0  0
    1.2642    0.9351   -1.4981 H   0  0  0  0  0  0  0  0  0  0  0  0
   -1.9256    1.6026   -0.2487 C   0  0  0  0  0  0  0  0  0  0  0  0
   -2.0861    2.5693    0.2304 H   0  0  0  0  0  0  0  0  0  0  0  0
   -2.2093    1.6894   -1.2975 H   0  0  0  0  0  0  0  0  0  0  0  0
   -2.8649    0.5744    0.3960 C   0  0  0  0  0  0  0  0  0  0  0  0
   -2.6967    0.5246    1.4717 H   0  0  0  0  0  0  0  0  0  0  0  0
   -3.8988    0.8722    0.2203 H   0  0  0  0  0  0  0  0  0  0  0  0
   -2.6999   -0.4095   -0.0446 H   0  0  0  0  0  0  0  0  0  0  0  0
    0.3833   -0.0008    1.9525 C   0  0  0  0  0  0  0  0  0  0  0  0
    1.5803   -0.2304    2.1189 O   0  0  0  0  0  0  0  0  0  0  0  0
   -0.4170    0.3858    2.9541 N   0  0  0  0  0  0  0  0  0  0  0  0
   -1.3850    0.5669    2.7398 H   0  0  0  0  0  0  0  0  0  0  0  0
    0.0265    0.5600    4.3358 C   0  0  0  0  0  0  0  0  0  0  0  0
    0.8964    1.2200    4.3632 H   0  0  0  0  0  0  0  0  0  0  0  0
   -0.7726    0.9946    4.9382 H   0  0  0  0  0  0  0  0  0  0  0  0
    0.3119   -0.4069    4.7547 H   0  0  0  0  0  0  0  0  0  0  0  0
  5  6  2  0  0  0  0
  5  7  1  0  0  0  0
  2  3  1  0  0  0  0
  2  4  1  0  0  0  0
  2  5  1  0  0  0  0
  1  2  1  0  0  0  0
 24 25  2  0  0  0  0
 24 26  1  0  0  0  0
 20 21  1  0  0  0  0
 20 22  1  0  0  0  0
 20 23  1  0  0  0  0
 17 18  1  0  0  0  0
 17 19  1  0  0  0  0
 17 20  1  0  0  0  0
 13 14  1  0  0  0  0
 13 15  1  0  0  0  0
 13 16  1  0  0  0  0
 11 12  1  0  0  0  0
 11 13  1  0  0  0  0
 11 17  1  0  0  0  0
  9 10  1  0  0  0  0
  9 11  1  0  0  0  0
  9 24  1  0  0  0  0
  7  8  1  0  0  0  0
  7  9  1  0  0  0  0
 28 29  1  0  0  0  0
 28 30  1  0  0  0  0
 28 31  1  0  0  0  0
 26 27  1  0  0  0  0
 26 28  1  0  0  0  0
M  END
$$$$
default_name
  -OEChem-02102213163D

 31 30  0     1  0  0  0  0  0999 V2000
   -3.0760   -3.6390    1.5496 H   0  0  0  0  0  0  0  0  0  0  0  0
   -3.0940   -2.6290    1.1426 C   0  0  0  0  0  0  0  0  0  0  0  0
   -3.7160   -1.9930    1.7706 H   0  0  0  0  0  0  0  0  0  0  0  0
   -3.4880   -2.6500    0.1286 H   0  0  0  0  0  0  0  0  0  0  0  0
   -1.6860   -2.0850    1.1196 C   0  0  0  0  0  0  0  0  0  0  0  0
   -0.7540   -2.7700    1.5226 O   0  0  0  0  0  0  0  0  0  0  0  0
   -1.5320   -0.8490    0.6496 N   0  0  0  0  0  0  0  0  0  0  0  0
   -2.3500   -0.3360    0.3566 H   0  0  0  0  0  0  0  0  0  0  0  0
   -0.2470   -0.1410    0.5576 C   0  0  1  0  0  0  0  0  0  0  0  0
    0.4239   -0.7541   -0.0450 H   0  0  0  0  0  0  0  0  0  0  0  0
   -0.4317    1.2160   -0.1683 C   0  0  1  0  0  0  0  0  0  0  0  0
    0.0686    1.9749    0.4363 H   0  0  0  0  0  0  0  0  0  0  0  0
    0.2160    1.2284   -1.5662 C   0  0  0  0  0  0  0  0  0  0  0  0
   -0.3002    0.5372   -2.2347 H   0  0  0  0  0  0  0  0  0  0  0  0
    0.1782    2.2299   -1.9917 H   0  0  0  0  0  0  0  0  0  0  0  0
    1.2642    0.9351   -1.4981 H   0  0  0  0  0  0  0  0  0  0  0  0
   -1.9256    1.6026   -0.2487 C   0  0  0  0  0  0  0  0  0  0  0  0
   -2.0488    2.6616   -0.0181 H   0  0  0  0  0  0  0  0  0  0  0  0
   -2.2780    1.4308   -1.2657 H   0  0  0  0  0  0  0  0  0  0  0  0
   -2.8253    0.7886    0.6911 C   0  0  0  0  0  0  0  0  0  0  0  0
   -2.5862    1.0055    1.7320 H   0  0  0  0  0  0  0  0  0  0  0  0
   -3.8671    1.0555    0.5118 H   0  0  0  0  0  0  0  0  0  0  0  0
   -2.6951   -0.2774    0.5016 H   0  0  0  0  0  0  0  0  0  0  0  0
    0.3833   -0.0008    1.9525 C   0  0  0  0  0  0  0  0  0  0  0  0
    1.5803   -0.2304    2.1189 O   0  0  0  0  0  0  0  0  0  0  0  0
   -0.4170    0.3858    2.9541 N   0  0  0  0  0  0  0  0  0  0  0  0
   -1.3850    0.5669    2.7398 H   0  0  0  0  0  0  0  0  0  0  0  0
    0.0265    0.5600    4.3358 C   0  0  0  0  0  0  0  0  0  0  0  0
    0.8964    1.2200    4.3632 H   0  0  0  0  0  0  0  0  0  0  0  0
   -0.7726    0.9946    4.9382 H   0  0  0  0  0  0  0  0  0  0  0  0
    0.3119   -0.4069    4.7547 H   0  0  0  0  0  0  0  0  0  0  0  0
  5  6  2  0  0  0  0
  5  7  1  0  0  0  0
  2  3  1  0  0  0  0
  2  4  1  0  0  0  0
  2  5  1  0  0  0  0
  1  2  1  0  0  0  0
 24 25  2  0  0  0  0
 24 26  1  0  0  0  0
 20 21  1  0  0  0  0
 20 22  1  0  0  0  0
 20 23  1  0  0  0  0
 17 18  1  0  0  0  0
 17 19  1  0  0  0  0
 17 20  1  0  0  0  0
 13 14  1  0  0  0  0
 13 15  1  0  0  0  0
 13 16  1  0  0  0  0
 11 12  1  0  0  0  0
 11 13  1  0  0  0  0
 11 17  1  0  0  0  0
  9 10  1  0  0  0  0
  9 11  1  0  0  0  0
  9 24  1  0  0  0  0
  7  8  1  0  0  0  0
  7  9  1  0  0  0  0
 28 29  1  0  0  0  0
 28 30  1  0  0  0  0
 28 31  1  0  0  0  0
 26 27  1  0  0  0  0
 26 28  1  0  0  0  0
M  END
$$$$
default_name
  -OEChem-02102213163D

 31 30  0     1  0  0  0  0  0999 V2000
   -3.0760   -3.6390    1.5496 H   0  0  0  0  0  0  0  0  0  0  0  0
   -3.0940   -2.6290    1.1426 C   0  0  0  0  0  0  0  0  0  0  0  0
   -3.7160   -1.9930    1.7706 H   0  0  0  0  0  0  0  0  0  0  0  0
   -3.4880   -2.6500    0.1286 H   0  0  0  0  0  0  0  0  0  0  0  0
   -1.6860   -2.0850    1.1196 C   0  0  0  0  0  0  0  0  0  0  0  0
   -0.7540   -2.7700    1.5226 O   0  0  0  0  0  0  0  0  0  0  0  0
   -1.5320   -0.8490    0.6496 N   0  0  0  0  0  0  0  0  0  0  0  0
   -2.3500   -0.3360    0.3566 H   0  0  0  0  0  0  0  0  0  0  0  0
   -0.2470   -0.1410    0.5576 C   0  0  1  0  0  0  0  0  0  0  0  0
    0.4239   -0.7541   -0.0450 H   0  0  0  0  0  0  0  0  0  0  0  0
   -0.4317    1.2160   -0.1683 C   0  0  1  0  0  0  0  0  0  0  0  0
    0.0686    1.9749    0.4363 H   0  0  0  0  0  0  0  0  0  0  0  0
    0.2160    1.2284   -1.5662 C   0  0  0  0  0  0  0  0  0  0  0  0
   -0.3002    0.5372   -2.2347 H   0  0  0  0  0  0  0  0  0  0  0  0
    0.1782    2.2299   -1.9917 H   0  0  0  0  0  0  0  0  0  0  0  0
    1.2642    0.9351   -1.4981 H   0  0  0  0  0  0  0  0  0  0  0  0
   -1.9256    1.6026   -0.2487 C   0  0  0  0  0  0  0  0  0  0  0  0
   -2.0277    2.6880   -0.2836 H   0  0  0  0  0  0  0  0  0  0  0  0
   -2.3457    1.1899   -1.1659 H   0  0  0  0  0  0  0  0  0  0  0  0
   -2.7651    1.0689    0.9199 C   0  0  0  0  0  0  0  0  0  0  0  0
   -2.4562    1.5336    1.8560 H   0  0  0  0  0  0  0  0  0  0  0  0
   -3.8151    1.3051    0.7455 H   0  0  0  0  0  0  0  0  0  0  0  0
   -2.6534   -0.0132    0.9959 H   0  0  0  0  0  0  0  0  0  0  0  0
    0.3833   -0.0008    1.9525 C   0  0  0  0  0  0  0  0  0  0  0  0
    1.5803   -0.2304    2.1189 O   0  0  0  0  0  0  0  0  0  0  0  0
   -0.4170    0.3858    2.9541 N   0  0  0  0  0  0  0  0  0  0  0  0
   -1.3850    0.5669    2.7398 H   0  0  0  0  0  0  0  0  0  0  0  0
    0.0265    0.5600    4.3358 C   0  0  0  0  0  0  0  0  0  0  0  0
    0.8964    1.2200    4.3632 H   0  0  0  0  0  0  0  0  0  0  0  0
   -0.7726    0.9946    4.9382 H   0  0  0  0  0  0  0  0  0  0  0  0
    0.3119   -0.4069    4.7547 H   0  0  0  0  0  0  0  0  0  0  0  0
  5  6  2  0  0  0  0
  5  7  1  0  0  0  0
  2  3  1  0  0  0  0
  2  4  1  0  0  0  0
  2  5  1  0  0  0  0
  1  2  1  0  0  0  0
 24 25  2  0  0  0  0
 24 26  1  0  0  0  0
 20 21  1  0  0  0  0
 20 22  1  0  0  0  0
 20 23  1  0  0  0  0
 17 18  1  0  0  0  0
 17 19  1  0  0  0  0
 17 20  1  0  0  0  0
 13 14  1  0  0  0  0
 13 15  1  0  0  0  0
 13 16  1  0  0  0  0
 11 12  1  0  0  0  0
 11 13  1  0  0  0  0
 11 17  1  0  0  0  0
  9 10  1  0  0  0  0
  9 11  1  0  0  0  0
  9 24  1  0  0  0  0
  7  8  1  0  0  0  0
  7  9  1  0  0  0  0
 28 29  1  0  0  0  0
 28 30  1  0  0  0  0
 28 31  1  0  0  0  0
 26 27  1  0  0  0  0
 26 28  1  0  0  0  0
M  END
$$$$
default_name
  -OEChem-02102213163D

 31 30  0     1  0  0  0  0  0999 V2000
   -3.0760   -3.6390    1.5496 H   0  0  0  0  0  0  0  0  0  0  0  0
   -3.0940   -2.6290    1.1426 C   0  0  0  0  0  0  0  0  0  0  0  0
   -3.7160   -1.9930    1.7706 H   0  0  0  0  0  0  0  0  0  0  0  0
   -3.4880   -2.6500    0.1286 H   0  0  0  0  0  0  0  0  0  0  0  0
   -1.6860   -2.0850    1.1196 C   0  0  0  0  0  0  0  0  0  0  0  0
   -0.7540   -2.7700    1.5226 O   0  0  0  0  0  0  0  0  0  0  0  0
   -1.5320   -0.8490    0.6496 N   0  0  0  0  0  0  0  0  0  0  0  0
   -2.3500   -0.3360    0.3566 H   0  0  0  0  0  0  0  0  0  0  0  0
   -0.2470   -0.1410    0.5576 C   0  0  1  0  0  0  0  0  0  0  0  0
    0.4239   -0.7541   -0.0450 H   0  0  0  0  0  0  0  0  0  0  0  0
   -0.4317    1.2160   -0.1683 C   0  0  1  0  0  0  0  0  0  0  0  0
    0.0686    1.9749    0.4363 H   0  0  0  0  0  0  0  0  0  0  0  0
    0.2160    1.2284   -1.5662 C   0  0  0  0  0  0  0  0  0  0  0  0
   -0.3002    0.5372   -2.2347 H   0  0  0  0  0  0  0  0  0  0  0  0
    0.1782    2.2299   -1.9917 H   0  0  0  0  0  0  0  0  0  0  0  0
    1.2642    0.9351   -1.4981 H   0  0  0  0  0  0  0  0  0  0  0  0
   -1.9256    1.6026   -0.2487 C   0  0  0  0  0  0  0  0  0  0  0  0
   -2.0241    2.6469   -0.5480 H   0  0  0  0  0  0  0  0  0  0  0  0
   -2.4079    0.9831   -1.0048 H   0  0  0  0  0  0  0  0  0  0  0  0
   -2.6884    1.3961    1.0669 C   0  0  0  0  0  0  0  0  0  0  0  0
   -2.3155    2.0731    1.8353 H   0  0  0  0  0  0  0  0  0  0  0  0
   -3.7463    1.6040    0.9054 H   0  0  0  0  0  0  0  0  0  0  0  0
   -2.5775    0.3651    1.4045 H   0  0  0  0  0  0  0  0  0  0  0  0
    0.3833   -0.0008    1.9525 C   0  0  0  0  0  0  0  0  0  0  0  0
    1.5803   -0.2304    2.1189 O   0  0  0  0  0  0  0  0  0  0  0  0
   -0.4170    0.3858    2.9541 N   0  0  0  0  0  0  0  0  0  0  0  0
   -1.3850    0.5669    2.7398 H   0  0  0  0  0  0  0  0  0  0  0  0
    0.0265    0.5600    4.3358 C   0  0  0  0  0  0  0  0  0  0  0  0
    0.8964    1.2200    4.3632 H   0  0  0  0  0  0  0  0  0  0  0  0
   -0.7726    0.9946    4.9382 H   0  0  0  0  0  0  0  0  0  0  0  0
    0.3119   -0.4069    4.7547 H   0  0  0  0  0  0  0  0  0  0  0  0
  5  6  2  0  0  0  0
  5  7  1  0  0  0  0
  2  3  1  0  0  0  0
  2  4  1  0  0  0  0
  2  5  1  0  0  0  0
  1  2  1  0  0  0  0
 24 25  2  0  0  0  0
 24 26  1  0  0  0  0
 20 21  1  0  0  0  0
 20 22  1  0  0  0  0
 20 23  1  0  0  0  0
 17 18  1  0  0  0  0
 17 19  1  0  0  0  0
 17 20  1  0  0  0  0
 13 14  1  0  0  0  0
 13 15  1  0  0  0  0
 13 16  1  0  0  0  0
 11 12  1  0  0  0  0
 11 13  1  0  0  0  0
 11 17  1  0  0  0  0
  9 10  1  0  0  0  0
  9 11  1  0  0  0  0
  9 24  1  0  0  0  0
  7  8  1  0  0  0  0
  7  9  1  0  0  0  0
 28 29  1  0  0  0  0
 28 30  1  0  0  0  0
 28 31  1  0  0  0  0
 26 27  1  0  0  0  0
 26 28  1  0  0  0  0
M  END
$$$$
default_name
  -OEChem-02102213163D

 31 30  0     1  0  0  0  0  0999 V2000
   -3.0760   -3.6390    1.5496 H   0  0  0  0  0  0  0  0  0  0  0  0
   -3.0940   -2.6290    1.1426 C   0  0  0  0  0  0  0  0  0  0  0  0
   -3.7160   -1.9930    1.7706 H   0  0  0  0  0  0  0  0  0  0  0  0
   -3.4880   -2.6500    0.1286 H   0  0  0  0  0  0  0  0  0  0  0  0
   -1.6860   -2.0850    1.1196 C   0  0  0  0  0  0  0  0  0  0  0  0
   -0.7540   -2.7700    1.5226 O   0  0  0  0  0  0  0  0  0  0  0  0
   -1.5320   -0.8490    0.6496 N   0  0  0  0  0  0  0  0  0  0  0  0
   -2.3500   -0.3360    0.3566 H   0  0  0  0  0  0  0  0  0  0  0  0
   -0.2470   -0.1410    0.5576 C   0  0  1  0  0  0  0  0  0  0  0  0
    0.4239   -0.7541   -0.0450 H   0  0  0  0  0  0  0  0  0  0  0  0
   -0.4317    1.2160   -0.1683 C   0  0  1  0  0  0  0  0  0  0  0  0
    0.0686    1.9749    0.4363 H   0  0  0  0  0  0  0  0  0  0  0  0
    0.2160    1.2284   -1.5662 C   0  0  0  0  0  0  0  0  0  0  0  0
   -0.3002    0.5372   -2.2347 H   0  0  0  0  0  0  0  0  0  0  0  0
    0.1782    2.2299   -1.9917 H   0  0  0  0  0  0  0  0  0  0  0  0
    1.2642    0.9351   -1.4981 H   0  0  0  0  0  0  0  0  0  0  0  0
   -1.9256    1.6026   -0.2487 C   0  0  0  0  0  0  0  0  0  0  0  0
   -2.0383    2.5409   -0.7934 H   0  0  0  0  0  0  0  0  0  0  0  0
   -2.4603    0.8245   -0.7934 H   0  0  0  0  0  0  0  0  0  0  0  0
   -2.6003    1.7479    1.1220 C   0  0  0  0  0  0  0  0  0  0  0  0
   -2.1736    2.5871    1.6711 H   0  0  0  0  0  0  0  0  0  0  0  0
   -3.6655    1.9318    0.9806 H   0  0  0  0  0  0  0  0  0  0  0  0
   -2.4726    0.8317    1.6996 H   0  0  0  0  0  0  0  0  0  0  0  0
    0.3833   -0.0008    1.9525 C   0  0  0  0  0  0  0  0  0  0  0  0
    1.5803   -0.2304    2.1189 O   0  0  0  0  0  0  0  0  0  0  0  0
   -0.4170    0.3858    2.9541 N   0  0  0  0  0  0  0  0  0  0  0  0
   -1.3850    0.5669    2.7398 H   0  0  0  0  0  0  0  0  0  0  0  0
    0.0265    0.5600    4.3358 C   0  0  0  0  0  0  0  0  0  0  0  0
    0.8964    1.2200    4.3632 H   0  0  0  0  0  0  0  0  0  0  0  0
   -0.7726    0.9946    4.9382 H   0  0  0  0  0  0  0  0  0  0  0  0
    0.3119   -0.4069    4.7547 H   0  0  0  0  0  0  0  0  0  0  0  0
  5  6  2  0  0  0  0
  5  7  1  0  0  0  0
  2  3  1  0  0  0  0
  2  4  1  0  0  0  0
  2  5  1  0  0  0  0
  1  2  1  0  0  0  0
 24 25  2  0  0  0  0
 24 26  1  0  0  0  0
 20 21  1  0  0  0  0
 20 22  1  0  0  0  0
 20 23  1  0  0  0  0
 17 18  1  0  0  0  0
 17 19  1  0  0  0  0
 17 20  1  0  0  0  0
 13 14  1  0  0  0  0
 13 15  1  0  0  0  0
 13 16  1  0  0  0  0
 11 12  1  0  0  0  0
 11 13  1  0  0  0  0
 11 17  1  0  0  0  0
  9 10  1  0  0  0  0
  9 11  1  0  0  0  0
  9 24  1  0  0  0  0
  7  8  1  0  0  0  0
  7  9  1  0  0  0  0
 28 29  1  0  0  0  0
 28 30  1  0  0  0  0
 28 31  1  0  0  0  0
 26 27  1  0  0  0  0
 26 28  1  0  0  0  0
M  END
$$$$
default_name
  -OEChem-02102213163D

 31 30  0     1  0  0  0  0  0999 V2000
   -3.0760   -3.6390    1.5496 H   0  0  0  0  0  0  0  0  0  0  0  0
   -3.0940   -2.6290    1.1426 C   0  0  0  0  0  0  0  0  0  0  0  0
   -3.7160   -1.9930    1.7706 H   0  0  0  0  0  0  0  0  0  0  0  0
   -3.4880   -2.6500    0.1286 H   0  0  0  0  0  0  0  0  0  0  0  0
   -1.6860   -2.0850    1.1196 C   0  0  0  0  0  0  0  0  0  0  0  0
   -0.7540   -2.7700    1.5226 O   0  0  0  0  0  0  0  0  0  0  0  0
   -1.5320   -0.8490    0.6496 N   0  0  0  0  0  0  0  0  0  0  0  0
   -2.3500   -0.3360    0.3566 H   0  0  0  0  0  0  0  0  0  0  0  0
   -0.2470   -0.1410    0.5576 C   0  0  1  0  0  0  0  0  0  0  0  0
    0.4239   -0.7541   -0.0450 H   0  0  0  0  0  0  0  0  0  0  0  0
   -0.4317    1.2160   -0.1683 C   0  0  1  0  0  0  0  0  0  0  0  0
    0.0686    1.9749    0.4363 H   0  0  0  0  0  0  0  0  0  0  0  0
    0.2160    1.2284   -1.5662 C   0  0  0  0  0  0  0  0  0  0  0  0
   -0.3002    0.5372   -2.2347 H   0  0  0  0  0  0  0  0  0  0  0  0
    0.1782    2.2299   -1.9917 H   0  0  0  0  0  0  0  0  0  0  0  0
    1.2642    0.9351   -1.4981 H   0  0  0  0  0  0  0  0  0  0  0  0
   -1.9256    1.6026   -0.2487 C   0  0  0  0  0  0  0  0  0  0  0  0
   -2.0694    2.3773   -1.0030 H   0  0  0  0  0  0  0  0  0  0  0  0
   -2.4994    0.7249   -0.5462 H   0  0  0  0  0  0  0  0  0  0  0  0
   -2.5069    2.1002    1.0815 C   0  0  0  0  0  0  0  0  0  0  0  0
   -2.0403    3.0405    1.3747 H   0  0  0  0  0  0  0  0  0  0  0  0
   -3.5782    2.2661    0.9660 H   0  0  0  0  0  0  0  0  0  0  0  0
   -2.3459    1.3549    1.8612 H   0  0  0  0  0  0  0  0  0  0  0  0
    0.3833   -0.0008    1.9525 C   0  0  0  0  0  0  0  0  0  0  0  0
    1.5803   -0.2304    2.1189 O   0  0  0  0  0  0  0  0  0  0  0  0
   -0.4170    0.3858    2.9541 N   0  0  0  0  0  0  0  0  0  0  0  0
   -1.3850    0.5669    2.7398 H   0  0  0  0  0  0  0  0  0  0  0  0
    0.0265    0.5600    4.3358 C   0  0  0  0  0  0  0  0  0  0  0  0
    0.8964    1.2200    4.3632 H   0  0  0  0  0  0  0  0  0  0  0  0
   -0.7726    0.9946    4.9382 H   0  0  0  0  0  0  0  0  0  0  0  0
    0.3119   -0.4069    4.7547 H   0  0  0  0  0  0  0  0  0  0  0  0
  5  6  2  0  0  0  0
  5  7  1  0  0  0  0
  2  3  1  0  0  0  0
  2  4  1  0  0  0  0
  2  5  1  0  0  0  0
  1  2  1  0  0  0  0
 24 25  2  0  0  0  0
 24 26  1  0  0  0  0
 20 21  1  0  0  0  0
 20 22  1  0  0  0  0
 20 23  1  0  0  0  0
 17 18  1  0  0  0  0
 17 19  1  0  0  0  0
 17 20  1  0  0  0  0
 13 14  1  0  0  0  0
 13 15  1  0  0  0  0
 13 16  1  0  0  0  0
 11 12  1  0  0  0  0
 11 13  1  0  0  0  0
 11 17  1  0  0  0  0
  9 10  1  0  0  0  0
  9 11  1  0  0  0  0
  9 24  1  0  0  0  0
  7  8  1  0  0  0  0
  7  9  1  0  0  0  0
 28 29  1  0  0  0  0
 28 30  1  0  0  0  0
 28 31  1  0  0  0  0
 26 27  1  0  0  0  0
 26 28  1  0  0  0  0
M  END
$$$$
default_name
  -OEChem-02102213163D

 31 30  0     1  0  0  0  0  0999 V2000
   -3.0760   -3.6390    1.5496 H   0  0  0  0  0  0  0  0  0  0  0  0
   -3.0940   -2.6290    1.1426 C   0  0  0  0  0  0  0  0  0  0  0  0
   -3.7160   -1.9930    1.7706 H   0  0  0  0  0  0  0  0  0  0  0  0
   -3.4880   -2.6500    0.1286 H   0  0  0  0  0  0  0  0  0  0  0  0
   -1.6860   -2.0850    1.1196 C   0  0  0  0  0  0  0  0  0  0  0  0
   -0.7540   -2.7700    1.5226 O   0  0  0  0  0  0  0  0  0  0  0  0
   -1.5320   -0.8490    0.6496 N   0  0  0  0  0  0  0  0  0  0  0  0
   -2.3500   -0.3360    0.3566 H   0  0  0  0  0  0  0  0  0  0  0  0
   -0.2470   -0.1410    0.5576 C   0  0  1  0  0  0  0  0  0  0  0  0
    0.4239   -0.7541   -0.0450 H   0  0  0  0  0  0  0  0  0  0  0  0
   -0.4317    1.2160   -0.1683 C   0  0  1  0  0  0  0  0  0  0  0  0
    0.0686    1.9749    0.4363 H   0  0  0  0  0  0  0  0  0  0  0  0
    0.2160    1.2284   -1.5662 C   0  0  0  0  0  0  0  0  0  0  0  0
   -0.3002    0.5372   -2.2347 H   0  0  0  0  0  0  0  0  0  0  0  0
    0.1782    2.2299   -1.9917 H   0  0  0  0  0  0  0  0  0  0  0  0
    1.2642    0.9351   -1.4981 H   0  0  0  0  0  0  0  0  0  0  0  0
   -1.9256    1.6026   -0.2487 C   0  0  0  0  0  0  0  0  0  0  0  0
   -2.1152    2.1673   -1.1625 H   0  0  0  0  0  0  0  0  0  0  0  0
   -2.5224    0.6911   -0.2799 H   0  0  0  0  0  0  0  0  0  0  0  0
   -2.4146    2.4292    0.9482 C   0  0  0  0  0  0  0  0  0  0  0  0
   -1.9247    3.4026    0.9663 H   0  0  0  0  0  0  0  0  0  0  0  0
   -3.4903    2.5842    0.8626 H   0  0  0  0  0  0  0  0  0  0  0  0
   -2.2060    1.8989    1.8780 H   0  0  0  0  0  0  0  0  0  0  0  0
    0.3833   -0.0008    1.9525 C   0  0  0  0  0  0  0  0  0  0  0  0
    1.5803   -0.2304    2.1189 O   0  0  0  0  0  0  0  0  0  0  0  0
   -0.4170    0.3858    2.9541 N   0  0  0  0  0  0  0  0  0  0  0  0
   -1.3850    0.5669    2.7398 H   0  0  0  0  0  0  0  0  0  0  0  0
    0.0265    0.5600    4.3358 C   0  0  0  0  0  0  0  0  0  0  0  0
    0.8964    1.2200    4.3632 H   0  0  0  0  0  0  0  0  0  0  0  0
   -0.7726    0.9946    4.9382 H   0  0  0  0  0  0  0  0  0  0  0  0
    0.3119   -0.4069    4.7547 H   0  0  0  0  0  0  0  0  0  0  0  0
  5  6  2  0  0  0  0
  5  7  1  0  0  0  0
  2  3  1  0  0  0  0
  2  4  1  0  0  0  0
  2  5  1  0  0  0  0
  1  2  1  0  0  0  0
 24 25  2  0  0  0  0
 24 26  1  0  0  0  0
 20 21  1  0  0  0  0
 20 22  1  0  0  0  0
 20 23  1  0  0  0  0
 17 18  1  0  0  0  0
 17 19  1  0  0  0  0
 17 20  1  0  0  0  0
 13 14  1  0  0  0  0
 13 15  1  0  0  0  0
 13 16  1  0  0  0  0
 11 12  1  0  0  0  0
 11 13  1  0  0  0  0
 11 17  1  0  0  0  0
  9 10  1  0  0  0  0
  9 11  1  0  0  0  0
  9 24  1  0  0  0  0
  7  8  1  0  0  0  0
  7  9  1  0  0  0  0
 28 29  1  0  0  0  0
 28 30  1  0  0  0  0
 28 31  1  0  0  0  0
 26 27  1  0  0  0  0
 26 28  1  0  0  0  0
M  END
$$$$
default_name
  -OEChem-02102213163D

 31 30  0     1  0  0  0  0  0999 V2000
   -3.0760   -3.6390    1.5496 H   0  0  0  0  0  0  0  0  0  0  0  0
   -3.0940   -2.6290    1.1426 C   0  0  0  0  0  0  0  0  0  0  0  0
   -3.7160   -1.9930    1.7706 H   0  0  0  0  0  0  0  0  0  0  0  0
   -3.4880   -2.6500    0.1286 H   0  0  0  0  0  0  0  0  0  0  0  0
   -1.6860   -2.0850    1.1196 C   0  0  0  0  0  0  0  0  0  0  0  0
   -0.7540   -2.7700    1.5226 O   0  0  0  0  0  0  0  0  0  0  0  0
   -1.5320   -0.8490    0.6496 N   0  0  0  0  0  0  0  0  0  0  0  0
   -2.3500   -0.3360    0.3566 H   0  0  0  0  0  0  0  0  0  0  0  0
   -0.2470   -0.1410    0.5576 C   0  0  1  0  0  0  0  0  0  0  0  0
    0.4239   -0.7541   -0.0450 H   0  0  0  0  0  0  0  0  0  0  0  0
   -0.4317    1.2160   -0.1683 C   0  0  1  0  0  0  0  0  0  0  0  0
    0.0686    1.9749    0.4363 H   0  0  0  0  0  0  0  0  0  0  0  0
    0.2160    1.2284   -1.5662 C   0  0  0  0  0  0  0  0  0  0  0  0
   -0.3002    0.5372   -2.2347 H   0  0  0  0  0  0  0  0  0  0  0  0
    0.1782    2.2299   -1.9917 H   0  0  0  0  0  0  0  0  0  0  0  0
    1.2642    0.9351   -1.4981 H   0  0  0  0  0  0  0  0  0  0  0  0
   -1.9256    1.6026   -0.2487 C   0  0  0  0  0  0  0  0  0  0  0  0
   -2.1725    1.9251   -1.2611 H   0  0  0  0  0  0  0  0  0  0  0  0
   -2.5280    0.7254   -0.0127 H   0  0  0  0  0  0  0  0  0  0  0  0
   -2.3296    2.7124    0.7312 C   0  0  0  0  0  0  0  0  0  0  0  0
   -1.8345    3.6486    0.4738 H   0  0  0  0  0  0  0  0  0  0  0  0
   -3.4079    2.8644    0.6774 H   0  0  0  0  0  0  0  0  0  0  0  0
   -2.0625    2.4268    1.7492 H   0  0  0  0  0  0  0  0  0  0  0  0
    0.3833   -0.0008    1.9525 C   0  0  0  0  0  0  0  0  0  0  0  0
    1.5803   -0.2304    2.1189 O   0  0  0  0  0  0  0  0  0  0  0  0
   -0.4170    0.3858    2.9541 N   0  0  0  0  0  0  0  0  0  0  0  0
   -1.3850    0.5669    2.7398 H   0  0  0  0  0  0  0  0  0  0  0  0
    0.0265    0.5600    4.3358 C   0  0  0  0  0  0  0  0  0  0  0  0
    0.8964    1.2200    4.3632 H   0  0  0  0  0  0  0  0  0  0  0  0
   -0.7726    0.9946    4.9382 H   0  0  0  0  0  0  0  0  0  0  0  0
    0.3119   -0.4069    4.7547 H   0  0  0  0  0  0  0  0  0  0  0  0
  5  6  2  0  0  0  0
  5  7  1  0  0  0  0
  2  3  1  0  0  0  0
  2  4  1  0  0  0  0
  2  5  1  0  0  0  0
  1  2  1  0  0  0  0
 24 25  2  0  0  0  0
 24 26  1  0  0  0  0
 20 21  1  0  0  0  0
 20 22  1  0  0  0  0
 20 23  1  0  0  0  0
 17 18  1  0  0  0  0
 17 19  1  0  0  0  0
 17 20  1  0  0  0  0
 13 14  1  0  0  0  0
 13 15  1  0  0  0  0
 13 16  1  0  0  0  0
 11 12  1  0  0  0  0
 11 13  1  0  0  0  0
 11 17  1  0  0  0  0
  9 10  1  0  0  0  0
  9 11  1  0  0  0  0
  9 24  1  0  0  0  0
  7  8  1  0  0  0  0
  7  9  1  0  0  0  0
 28 29  1  0  0  0  0
 28 30  1  0  0  0  0
 28 31  1  0  0  0  0
 26 27  1  0  0  0  0
 26 28  1  0  0  0  0
M  END
$$$$
default_name
  -OEChem-02102213163D

 31 30  0     1  0  0  0  0  0999 V2000
   -3.0760   -3.6390    1.5496 H   0  0  0  0  0  0  0  0  0  0  0  0
   -3.0940   -2.6290    1.1426 C   0  0  0  0  0  0  0  0  0  0  0  0
   -3.7160   -1.9930    1.7706 H   0  0  0  0  0  0  0  0  0  0  0  0
   -3.4880   -2.6500    0.1286 H   0  0  0  0  0  0  0  0  0  0  0  0
   -1.6860   -2.0850    1.1196 C   0  0  0  0  0  0  0  0  0  0  0  0
   -0.7540   -2.7700    1.5226 O   0  0  0  0  0  0  0  0  0  0  0  0
   -1.5320   -0.8490    0.6496 N   0  0  0  0  0  0  0  0  0  0  0  0
   -2.3500   -0.3360    0.3566 H   0  0  0  0  0  0  0  0  0  0  0  0
   -0.2470   -0.1410    0.5576 C   0  0  1  0  0  0  0  0  0  0  0  0
    0.4239   -0.7541   -0.0450 H   0  0  0  0  0  0  0  0  0  0  0  0
   -0.4317    1.2160   -0.1683 C   0  0  1  0  0  0  0  0  0  0  0  0
    0.0686    1.9749    0.4363 H   0  0  0  0  0  0  0  0  0  0  0  0
    0.2160    1.2284   -1.5662 C   0  0  0  0  0  0  0  0  0  0  0  0
   -0.3002    0.5372   -2.2347 H   0  0  0  0  0  0  0  0  0  0  0  0
    0.1782    2.2299   -1.9917 H   0  0  0  0  0  0  0  0  0  0  0  0
    1.2642    0.9351   -1.4981 H   0  0  0  0  0  0  0  0  0  0  0  0
   -1.9256    1.6026   -0.2487 C   0  0  0  0  0  0  0  0  0  0  0  0
   -2.2376    1.6673   -1.2920 H   0  0  0  0  0  0  0  0  0  0  0  0
   -2.5155    0.8254    0.2371 H   0  0  0  0  0  0  0  0  0  0  0  0
   -2.2578    2.9305    0.4451 C   0  0  0  0  0  0  0  0  0  0  0  0
   -1.7760    3.7617   -0.0694 H   0  0  0  0  0  0  0  0  0  0  0  0
   -3.3364    3.0876    0.4231 H   0  0  0  0  0  0  0  0  0  0  0  0
   -1.9250    2.9024    1.4833 H   0  0  0  0  0  0  0  0  0  0  0  0
    0.3833   -0.0008    1.9525 C   0  0  0  0  0  0  0  0  0  0  0  0
    1.5803   -0.2304    2.1189 O   0  0  0  0  0  0  0  0  0  0  0  0
   -0.4170    0.3858    2.9541 N   0  0  0  0  0  0  0  0  0  0  0  0
   -1.3850    0.5669    2.7398 H   0  0  0  0  0  0  0  0  0  0  0  0
    0.0265    0.5600    4.3358 C   0  0  0  0  0  0  0  0  0  0  0  0
    0.8964    1.2200    4.3632 H   0  0  0  0  0  0  0  0  0  0  0  0
   -0.7726    0.9946    4.9382 H   0  0  0  0  0  0  0  0  0  0  0  0
    0.3119   -0.4069    4.7547 H   0  0  0  0  0  0  0  0  0  0  0  0
  5  6  2  0  0  0  0
  5  7  1  0  0  0  0
  2  3  1  0  0  0  0
  2  4  1  0  0  0  0
  2  5  1  0  0  0  0
  1  2  1  0  0  0  0
 24 25  2  0  0  0  0
 24 26  1  0  0  0  0
 20 21  1  0  0  0  0
 20 22  1  0  0  0  0
 20 23  1  0  0  0  0
 17 18  1  0  0  0  0
 17 19  1  0  0  0  0
 17 20  1  0  0  0  0
 13 14  1  0  0  0  0
 13 15  1  0  0  0  0
 13 16  1  0  0  0  0
 11 12  1  0  0  0  0
 11 13  1  0  0  0  0
 11 17  1  0  0  0  0
  9 10  1  0  0  0  0
  9 11  1  0  0  0  0
  9 24  1  0  0  0  0
  7  8  1  0  0  0  0
  7  9  1  0  0  0  0
 28 29  1  0  0  0  0
 28 30  1  0  0  0  0
 28 31  1  0  0  0  0
 26 27  1  0  0  0  0
 26 28  1  0  0  0  0
M  END
$$$$
default_name
  -OEChem-02102213163D

 31 30  0     1  0  0  0  0  0999 V2000
   -3.0760   -3.6390    1.5496 H   0  0  0  0  0  0  0  0  0  0  0  0
   -3.0940   -2.6290    1.1426 C   0  0  0  0  0  0  0  0  0  0  0  0
   -3.7160   -1.9930    1.7706 H   0  0  0  0  0  0  0  0  0  0  0  0
   -3.4880   -2.6500    0.1286 H   0  0  0  0  0  0  0  0  0  0  0  0
   -1.6860   -2.0850    1.1196 C   0  0  0  0  0  0  0  0  0  0  0  0
   -0.7540   -2.7700    1.5226 O   0  0  0  0  0  0  0  0  0  0  0  0
   -1.5320   -0.8490    0.6496 N   0  0  0  0  0  0  0  0  0  0  0  0
   -2.3500   -0.3360    0.3566 H   0  0  0  0  0  0  0  0  0  0  0  0
   -0.2470   -0.1410    0.5576 C   0  0  1  0  0  0  0  0  0  0  0  0
    0.4239   -0.7541   -0.0450 H   0  0  0  0  0  0  0  0  0  0  0  0
   -0.4317    1.2160   -0.1683 C   0  0  1  0  0  0  0  0  0  0  0  0
    0.0686    1.9749    0.4363 H   0  0  0  0  0  0  0  0  0  0  0  0
    0.2160    1.2284   -1.5662 C   0  0  0  0  0  0  0  0  0  0  0  0
   -0.3002    0.5372   -2.2347 H   0  0  0  0  0  0  0  0  0  0  0  0
    0.1782    2.2299   -1.9917 H   0  0  0  0  0  0  0  0  0  0  0  0
    1.2642    0.9351   -1.4981 H   0  0  0  0  0  0  0  0  0  0  0  0
   -1.9256    1.6026   -0.2487 C   0  0  0  0  0  0  0  0  0  0  0  0
   -2.3059    1.4114   -1.2531 H   0  0  0  0  0  0  0  0  0  0  0  0
   -2.4860    0.9844    0.4526 H   0  0  0  0  0  0  0  0  0  0  0  0
   -2.2040    3.0686    0.1096 C   0  0  0  0  0  0  0  0  0  0  0  0
   -1.7531    3.7343   -0.6262 H   0  0  0  0  0  0  0  0  0  0  0  0
   -3.2809    3.2386    0.1170 H   0  0  0  0  0  0  0  0  0  0  0  0
   -1.8031    3.2935    1.0986 H   0  0  0  0  0  0  0  0  0  0  0  0
    0.3833   -0.0008    1.9525 C   0  0  0  0  0  0  0  0  0  0  0  0
    1.5803   -0.2304    2.1189 O   0  0  0  0  0  0  0  0  0  0  0  0
   -0.4170    0.3858    2.9541 N   0  0  0  0  0  0  0  0  0  0  0  0
   -1.3850    0.5669    2.7398 H   0  0  0  0  0  0  0  0  0  0  0  0
    0.0265    0.5600    4.3358 C   0  0  0  0  0  0  0  0  0  0  0  0
    0.8964    1.2200    4.3632 H   0  0  0  0  0  0  0  0  0  0  0  0
   -0.7726    0.9946    4.9382 H   0  0  0  0  0  0  0  0  0  0  0  0
    0.3119   -0.4069    4.7547 H   0  0  0  0  0  0  0  0  0  0  0  0
  5  6  2  0  0  0  0
  5  7  1  0  0  0  0
  2  3  1  0  0  0  0
  2  4  1  0  0  0  0
  2  5  1  0  0  0  0
  1  2  1  0  0  0  0
 24 25  2  0  0  0  0
 24 26  1  0  0  0  0
 20 21  1  0  0  0  0
 20 22  1  0  0  0  0
 20 23  1  0  0  0  0
 17 18  1  0  0  0  0
 17 19  1  0  0  0  0
 17 20  1  0  0  0  0
 13 14  1  0  0  0  0
 13 15  1  0  0  0  0
 13 16  1  0  0  0  0
 11 12  1  0  0  0  0
 11 13  1  0  0  0  0
 11 17  1  0  0  0  0
  9 10  1  0  0  0  0
  9 11  1  0  0  0  0
  9 24  1  0  0  0  0
  7  8  1  0  0  0  0
  7  9  1  0  0  0  0
 28 29  1  0  0  0  0
 28 30  1  0  0  0  0
 28 31  1  0  0  0  0
 26 27  1  0  0  0  0
 26 28  1  0  0  0  0
M  END
$$$$
default_name
  -OEChem-02102213163D

 31 30  0     1  0  0  0  0  0999 V2000
   -3.0760   -3.6390    1.5496 H   0  0  0  0  0  0  0  0  0  0  0  0
   -3.0940   -2.6290    1.1426 C   0  0  0  0  0  0  0  0  0  0  0  0
   -3.7160   -1.9930    1.7706 H   0  0  0  0  0  0  0  0  0  0  0  0
   -3.4880   -2.6500    0.1286 H   0  0  0  0  0  0  0  0  0  0  0  0
   -1.6860   -2.0850    1.1196 C   0  0  0  0  0  0  0  0  0  0  0  0
   -0.7540   -2.7700    1.5226 O   0  0  0  0  0  0  0  0  0  0  0  0
   -1.5320   -0.8490    0.6496 N   0  0  0  0  0  0  0  0  0  0  0  0
   -2.3500   -0.3360    0.3566 H   0  0  0  0  0  0  0  0  0  0  0  0
   -0.2470   -0.1410    0.5576 C   0  0  1  0  0  0  0  0  0  0  0  0
    0.4239   -0.7541   -0.0450 H   0  0  0  0  0  0  0  0  0  0  0  0
   -0.4317    1.2160   -0.1683 C   0  0  1  0  0  0  0  0  0  0  0  0
    0.0686    1.9749    0.4363 H   0  0  0  0  0  0  0  0  0  0  0  0
    0.2160    1.2284   -1.5662 C   0  0  0  0  0  0  0  0  0  0  0  0
   -0.3002    0.5372   -2.2347 H   0  0  0  0  0  0  0  0  0  0  0  0
    0.1782    2.2299   -1.9917 H   0  0  0  0  0  0  0  0  0  0  0  0
    1.2642    0.9351   -1.4981 H   0  0  0  0  0  0  0  0  0  0  0  0
   -1.9256    1.6026   -0.2487 C   0  0  0  0  0  0  0  0  0  0  0  0
   -2.3728    1.1749   -1.1470 H   0  0  0  0  0  0  0  0  0  0  0  0
   -2.4413    1.1915    0.6190 H   0  0  0  0  0  0  0  0  0  0  0  0
   -2.1719    3.1174   -0.2525 C   0  0  0  0  0  0  0  0  0  0  0  0
   -1.7674    3.5682   -1.1586 H   0  0  0  0  0  0  0  0  0  0  0  0
   -3.2450    3.3071   -0.2201 H   0  0  0  0  0  0  0  0  0  0  0  0
   -1.7050    3.5734    0.6212 H   0  0  0  0  0  0  0  0  0  0  0  0
    0.3833   -0.0008    1.9525 C   0  0  0  0  0  0  0  0  0  0  0  0
    1.5803   -0.2304    2.1189 O   0  0  0  0  0  0  0  0  0  0  0  0
   -0.4170    0.3858    2.9541 N   0  0  0  0  0  0  0  0  0  0  0  0
   -1.3850    0.5669    2.7398 H   0  0  0  0  0  0  0  0  0  0  0  0
    0.0265    0.5600    4.3358 C   0  0  0  0  0  0  0  0  0  0  0  0
    0.8964    1.2200    4.3632 H   0  0  0  0  0  0  0  0  0  0  0  0
   -0.7726    0.9946    4.9382 H   0  0  0  0  0  0  0  0  0  0  0  0
    0.3119   -0.4069    4.7547 H   0  0  0  0  0  0  0  0  0  0  0  0
  5  6  2  0  0  0  0
  5  7  1  0  0  0  0
  2  3  1  0  0  0  0
  2  4  1  0  0  0  0
  2  5  1  0  0  0  0
  1  2  1  0  0  0  0
 24 25  2  0  0  0  0
 24 26  1  0  0  0  0
 20 21  1  0  0  0  0
 20 22  1  0  0  0  0
 20 23  1  0  0  0  0
 17 18  1  0  0  0  0
 17 19  1  0  0  0  0
 17 20  1  0  0  0  0
 13 14  1  0  0  0  0
 13 15  1  0  0  0  0
 13 16  1  0  0  0  0
 11 12  1  0  0  0  0
 11 13  1  0  0  0  0
 11 17  1  0  0  0  0
  9 10  1  0  0  0  0
  9 11  1  0  0  0  0
  9 24  1  0  0  0  0
  7  8  1  0  0  0  0
  7  9  1  0  0  0  0
 28 29  1  0  0  0  0
 28 30  1  0  0  0  0
 28 31  1  0  0  0  0
 26 27  1  0  0  0  0
 26 28  1  0  0  0  0
M  END
$$$$
default_name
  -OEChem-02102213163D

 31 30  0     1  0  0  0  0  0999 V2000
   -3.0760   -3.6390    1.5496 H   0  0  0  0  0  0  0  0  0  0  0  0
   -3.0940   -2.6290    1.1426 C   0  0  0  0  0  0  0  0  0  0  0  0
   -3.7160   -1.9930    1.7706 H   0  0  0  0  0  0  0  0  0  0  0  0
   -3.4880   -2.6500    0.1286 H   0  0  0  0  0  0  0  0  0  0  0  0
   -1.6860   -2.0850    1.1196 C   0  0  0  0  0  0  0  0  0  0  0  0
   -0.7540   -2.7700    1.5226 O   0  0  0  0  0  0  0  0  0  0  0  0
   -1.5320   -0.8490    0.6496 N   0  0  0  0  0  0  0  0  0  0  0  0
   -2.3500   -0.3360    0.3566 H   0  0  0  0  0  0  0  0  0  0  0  0
   -0.2470   -0.1410    0.5576 C   0  0  1  0  0  0  0  0  0  0  0  0
    0.4239   -0.7541   -0.0450 H   0  0  0  0  0  0  0  0  0  0  0  0
   -0.4317    1.2160   -0.1683 C   0  0  1  0  0  0  0  0  0  0  0  0
    0.0686    1.9749    0.4363 H   0  0  0  0  0  0  0  0  0  0  0  0
    0.2160    1.2284   -1.5662 C   0  0  0  0  0  0  0  0  0  0  0  0
   -0.3002    0.5372   -2.2347 H   0  0  0  0  0  0  0  0  0  0  0  0
    0.1782    2.2299   -1.9917 H   0  0  0  0  0  0  0  0  0  0  0  0
    1.2642    0.9351   -1.4981 H   0  0  0  0  0  0  0  0  0  0  0  0
   -1.9256    1.6026   -0.2487 C   0  0  0  0  0  0  0  0  0  0  0  0
   -2.4338    0.9739   -0.9811 H   0  0  0  0  0  0  0  0  0  0  0  0
   -2.3846    1.4326    0.7251 H   0  0  0  0  0  0  0  0  0  0  0  0
   -2.1637    3.0734   -0.6165 C   0  0  0  0  0  0  0  0  0  0  0  0
   -1.8180    3.2747   -1.6303 H   0  0  0  0  0  0  0  0  0  0  0  0
   -3.2312    3.2885   -0.5652 H   0  0  0  0  0  0  0  0  0  0  0  0
   -1.6374    3.7230    0.0837 H   0  0  0  0  0  0  0  0  0  0  0  0
    0.3833   -0.0008    1.9525 C   0  0  0  0  0  0  0  0  0  0  0  0
    1.5803   -0.2304    2.1189 O   0  0  0  0  0  0  0  0  0  0  0  0
   -0.4170    0.3858    2.9541 N   0  0  0  0  0  0  0  0  0  0  0  0
   -1.3850    0.5669    2.7398 H   0  0  0  0  0  0  0  0  0  0  0  0
    0.0265    0.5600    4.3358 C   0  0  0  0  0  0  0  0  0  0  0  0
    0.8964    1.2200    4.3632 H   0  0  0  0  0  0  0  0  0  0  0  0
   -0.7726    0.9946    4.9382 H   0  0  0  0  0  0  0  0  0  0  0  0
    0.3119   -0.4069    4.7547 H   0  0  0  0  0  0  0  0  0  0  0  0
  5  6  2  0  0  0  0
  5  7  1  0  0  0  0
  2  3  1  0  0  0  0
  2  4  1  0  0  0  0
  2  5  1  0  0  0  0
  1  2  1  0  0  0  0
 24 25  2  0  0  0  0
 24 26  1  0  0  0  0
 20 21  1  0  0  0  0
 20 22  1  0  0  0  0
 20 23  1  0  0  0  0
 17 18  1  0  0  0  0
 17 19  1  0  0  0  0
 17 20  1  0  0  0  0
 13 14  1  0  0  0  0
 13 15  1  0  0  0  0
 13 16  1  0  0  0  0
 11 12  1  0  0  0  0
 11 13  1  0  0  0  0
 11 17  1  0  0  0  0
  9 10  1  0  0  0  0
  9 11  1  0  0  0  0
  9 24  1  0  0  0  0
  7  8  1  0  0  0  0
  7  9  1  0  0  0  0
 28 29  1  0  0  0  0
 28 30  1  0  0  0  0
 28 31  1  0  0  0  0
 26 27  1  0  0  0  0
 26 28  1  0  0  0  0
M  END
$$$$
default_name
  -OEChem-02102213163D

 31 30  0     1  0  0  0  0  0999 V2000
   -3.0760   -3.6390    1.5496 H   0  0  0  0  0  0  0  0  0  0  0  0
   -3.0940   -2.6290    1.1426 C   0  0  0  0  0  0  0  0  0  0  0  0
   -3.7160   -1.9930    1.7706 H   0  0  0  0  0  0  0  0  0  0  0  0
   -3.4880   -2.6500    0.1286 H   0  0  0  0  0  0  0  0  0  0  0  0
   -1.6860   -2.0850    1.1196 C   0  0  0  0  0  0  0  0  0  0  0  0
   -0.7540   -2.7700    1.5226 O   0  0  0  0  0  0  0  0  0  0  0  0
   -1.5320   -0.8490    0.6496 N   0  0  0  0  0  0  0  0  0  0  0  0
   -2.3500   -0.3360    0.3566 H   0  0  0  0  0  0  0  0  0  0  0  0
   -0.2470   -0.1410    0.5576 C   0  0  1  0  0  0  0  0  0  0  0  0
    0.4239   -0.7541   -0.0450 H   0  0  0  0  0  0  0  0  0  0  0  0
   -0.4317    1.2160   -0.1683 C   0  0  1  0  0  0  0  0  0  0  0  0
    0.2792    1.9166    0.2738 H   0  0  0  0  0  0  0  0  0  0  0  0
   -0.1236    1.1239   -1.6751 C   0  0  0  0  0  0  0  0  0  0  0  0
   -0.8566    0.4913   -2.1789 H   0  0  0  0  0  0  0  0  0  0  0  0
   -0.1396    2.1150   -2.1257 H   0  0  0  0  0  0  0  0  0  0  0  0
    0.8704    0.7033   -1.8312 H   0  0  0  0  0  0  0  0  0  0  0  0
   -1.8483    1.7845    0.0717 C   0  0  0  0  0  0  0  0  0  0  0  0
   -2.5987    1.0713   -0.2718 H   0  0  0  0  0  0  0  0  0  0  0  0
   -1.9875    1.9388    1.1417 H   0  0  0  0  0  0  0  0  0  0  0  0
   -2.0987    3.1308   -0.6212 C   0  0  0  0  0  0  0  0  0  0  0  0
   -2.0775    3.0130   -1.7044 H   0  0  0  0  0  0  0  0  0  0  0  0
   -3.0806    3.5065   -0.3325 H   0  0  0  0  0  0  0  0  0  0  0  0
   -1.3400    3.8532   -0.3182 H   0  0  0  0  0  0  0  0  0  0  0  0
    0.3833   -0.0008    1.9525 C   0  0  0  0  0  0  0  0  0  0  0  0
    1.5803   -0.2304    2.1189 O   0  0  0  0  0  0  0  0  0  0  0  0
   -0.4170    0.3858    2.9541 N   0  0  0  0  0  0  0  0  0  0  0  0
   -1.3850    0.5669    2.7398 H   0  0  0  0  0  0  0  0  0  0  0  0
    0.0265    0.5600    4.3358 C   0  0  0  0  0  0  0  0  0  0  0  0
    0.8964    1.2200    4.3632 H   0  0  0  0  0  0  0  0  0  0  0  0
   -0.7726    0.9946    4.9382 H   0  0  0  0  0  0  0  0  0  0  0  0
    0.3119   -0.4069    4.7547 H   0  0  0  0  0  0  0  0  0  0  0  0
  5  6  2  0  0  0  0
  5  7  1  0  0  0  0
  2  3  1  0  0  0  0
  2  4  1  0  0  0  0
  2  5  1  0  0  0  0
  1  2  1  0  0  0  0
 24 25  2  0  0  0  0
 24 26  1  0  0  0  0
 20 21  1  0  0  0  0
 20 22  1  0  0  0  0
 20 23  1  0  0  0  0
 17 18  1  0  0  0  0
 17 19  1  0  0  0  0
 17 20  1  0  0  0  0
 13 14  1  0  0  0  0
 13 15  1  0  0  0  0
 13 16  1  0  0  0  0
 11 12  1  0  0  0  0
 11 13  1  0  0  0  0
 11 17  1  0  0  0  0
  9 10  1  0  0  0  0
  9 11  1  0  0  0  0
  9 24  1  0  0  0  0
  7  8  1  0  0  0  0
  7  9  1  0  0  0  0
 28 29  1  0  0  0  0
 28 30  1  0  0  0  0
 28 31  1  0  0  0  0
 26 27  1  0  0  0  0
 26 28  1  0  0  0  0
M  END
$$$$
default_name
  -OEChem-02102213163D

 31 30  0     1  0  0  0  0  0999 V2000
   -3.0760   -3.6390    1.5496 H   0  0  0  0  0  0  0  0  0  0  0  0
   -3.0940   -2.6290    1.1426 C   0  0  0  0  0  0  0  0  0  0  0  0
   -3.7160   -1.9930    1.7706 H   0  0  0  0  0  0  0  0  0  0  0  0
   -3.4880   -2.6500    0.1286 H   0  0  0  0  0  0  0  0  0  0  0  0
   -1.6860   -2.0850    1.1196 C   0  0  0  0  0  0  0  0  0  0  0  0
   -0.7540   -2.7700    1.5226 O   0  0  0  0  0  0  0  0  0  0  0  0
   -1.5320   -0.8490    0.6496 N   0  0  0  0  0  0  0  0  0  0  0  0
   -2.3500   -0.3360    0.3566 H   0  0  0  0  0  0  0  0  0  0  0  0
   -0.2470   -0.1410    0.5576 C   0  0  1  0  0  0  0  0  0  0  0  0
    0.4239   -0.7541   -0.0450 H   0  0  0  0  0  0  0  0  0  0  0  0
   -0.4317    1.2160   -0.1683 C   0  0  1  0  0  0  0  0  0  0  0  0
    0.2792    1.9166    0.2738 H   0  0  0  0  0  0  0  0  0  0  0  0
   -0.1236    1.1239   -1.6751 C   0  0  0  0  0  0  0  0  0  0  0  0
   -0.8566    0.4913   -2.1789 H   0  0  0  0  0  0  0  0  0  0  0  0
   -0.1396    2.1150   -2.1257 H   0  0  0  0  0  0  0  0  0  0  0  0
    0.8704    0.7033   -1.8312 H   0  0  0  0  0  0  0  0  0  0  0  0
   -1.8483    1.7845    0.0717 C   0  0  0  0  0  0  0  0  0  0  0  0
   -2.5888    0.9886   -0.0174 H   0  0  0  0  0  0  0  0  0  0  0  0
   -1.8980    2.1862    1.0838 H   0  0  0  0  0  0  0  0  0  0  0  0
   -2.2296    2.9182   -0.8899 C   0  0  0  0  0  0  0  0  0  0  0  0
   -2.3003    2.5453   -1.9115 H   0  0  0  0  0  0  0  0  0  0  0  0
   -3.1995    3.3237   -0.6009 H   0  0  0  0  0  0  0  0  0  0  0  0
   -1.4849    3.7135   -0.8429 H   0  0  0  0  0  0  0  0  0  0  0  0
    0.3833   -0.0008    1.9525 C   0  0  0  0  0  0  0  0  0  0  0  0
    1.5803   -0.2304    2.1189 O   0  0  0  0  0  0  0  0  0  0  0  0
   -0.4170    0.3858    2.9541 N   0  0  0  0  0  0  0  0  0  0  0  0
   -1.3850    0.5669    2.7398 H   0  0  0  0  0  0  0  0  0  0  0  0
    0.0265    0.5600    4.3358 C   0  0  0  0  0  0  0  0  0  0  0  0
    0.8964    1.2200    4.3632 H   0  0  0  0  0  0  0  0  0  0  0  0
   -0.7726    0.9946    4.9382 H   0  0  0  0  0  0  0  0  0  0  0  0
    0.3119   -0.4069    4.7547 H   0  0  0  0  0  0  0  0  0  0  0  0
  5  6  2  0  0  0  0
  5  7  1  0  0  0  0
  2  3  1  0  0  0  0
  2  4  1  0  0  0  0
  2  5  1  0  0  0  0
  1  2  1  0  0  0  0
 24 25  2  0  0  0  0
 24 26  1  0  0  0  0
 20 21  1  0  0  0  0
 20 22  1  0  0  0  0
 20 23  1  0  0  0  0
 17 18  1  0  0  0  0
 17 19  1  0  0  0  0
 17 20  1  0  0  0  0
 13 14  1  0  0  0  0
 13 15  1  0  0  0  0
 13 16  1  0  0  0  0
 11 12  1  0  0  0  0
 11 13  1  0  0  0  0
 11 17  1  0  0  0  0
  9 10  1  0  0  0  0
  9 11  1  0  0  0  0
  9 24  1  0  0  0  0
  7  8  1  0  0  0  0
  7  9  1  0  0  0  0
 28 29  1  0  0  0  0
 28 30  1  0  0  0  0
 28 31  1  0  0  0  0
 26 27  1  0  0  0  0
 26 28  1  0  0  0  0
M  END
$$$$
default_name
  -OEChem-02102213163D

 31 30  0     1  0  0  0  0  0999 V2000
   -3.0760   -3.6390    1.5496 H   0  0  0  0  0  0  0  0  0  0  0  0
   -3.0940   -2.6290    1.1426 C   0  0  0  0  0  0  0  0  0  0  0  0
   -3.7160   -1.9930    1.7706 H   0  0  0  0  0  0  0  0  0  0  0  0
   -3.4880   -2.6500    0.1286 H   0  0  0  0  0  0  0  0  0  0  0  0
   -1.6860   -2.0850    1.1196 C   0  0  0  0  0  0  0  0  0  0  0  0
   -0.7540   -2.7700    1.5226 O   0  0  0  0  0  0  0  0  0  0  0  0
   -1.5320   -0.8490    0.6496 N   0  0  0  0  0  0  0  0  0  0  0  0
   -2.3500   -0.3360    0.3566 H   0  0  0  0  0  0  0  0  0  0  0  0
   -0.2470   -0.1410    0.5576 C   0  0  1  0  0  0  0  0  0  0  0  0
    0.4239   -0.7541   -0.0450 H   0  0  0  0  0  0  0  0  0  0  0  0
   -0.4317    1.2160   -0.1683 C   0  0  1  0  0  0  0  0  0  0  0  0
    0.2792    1.9166    0.2738 H   0  0  0  0  0  0  0  0  0  0  0  0
   -0.1236    1.1239   -1.6751 C   0  0  0  0  0  0  0  0  0  0  0  0
   -0.8566    0.4913   -2.1789 H   0  0  0  0  0  0  0  0  0  0  0  0
   -0.1396    2.1150   -2.1257 H   0  0  0  0  0  0  0  0  0  0  0  0
    0.8704    0.7033   -1.8312 H   0  0  0  0  0  0  0  0  0  0  0  0
   -1.8483    1.7845    0.0717 C   0  0  0  0  0  0  0  0  0  0  0  0
   -2.5517    0.9694    0.2470 H   0  0  0  0  0  0  0  0  0  0  0  0
   -1.8270    2.4150    0.9606 H   0  0  0  0  0  0  0  0  0  0  0  0
   -2.3731    2.6438   -1.0865 C   0  0  0  0  0  0  0  0  0  0  0  0
   -2.5165    2.0355   -1.9793 H   0  0  0  0  0  0  0  0  0  0  0  0
   -3.3325    3.0786   -0.8055 H   0  0  0  0  0  0  0  0  0  0  0  0
   -1.6693    3.4483   -1.3028 H   0  0  0  0  0  0  0  0  0  0  0  0
    0.3833   -0.0008    1.9525 C   0  0  0  0  0  0  0  0  0  0  0  0
    1.5803   -0.2304    2.1189 O   0  0  0  0  0  0  0  0  0  0  0  0
   -0.4170    0.3858    2.9541 N   0  0  0  0  0  0  0  0  0  0  0  0
   -1.3850    0.5669    2.7398 H   0  0  0  0  0  0  0  0  0  0  0  0
    0.0265    0.5600    4.3358 C   0  0  0  0  0  0  0  0  0  0  0  0
    0.8964    1.2200    4.3632 H   0  0  0  0  0  0  0  0  0  0  0  0
   -0.7726    0.9946    4.9382 H   0  0  0  0  0  0  0  0  0  0  0  0
    0.3119   -0.4069    4.7547 H   0  0  0  0  0  0  0  0  0  0  0  0
  5  6  2  0  0  0  0
  5  7  1  0  0  0  0
  2  3  1  0  0  0  0
  2  4  1  0  0  0  0
  2  5  1  0  0  0  0
  1  2  1  0  0  0  0
 24 25  2  0  0  0  0
 24 26  1  0  0  0  0
 20 21  1  0  0  0  0
 20 22  1  0  0  0  0
 20 23  1  0  0  0  0
 17 18  1  0  0  0  0
 17 19  1  0  0  0  0
 17 20  1  0  0  0  0
 13 14  1  0  0  0  0
 13 15  1  0  0  0  0
 13 16  1  0  0  0  0
 11 12  1  0  0  0  0
 11 13  1  0  0  0  0
 11 17  1  0  0  0  0
  9 10  1  0  0  0  0
  9 11  1  0  0  0  0
  9 24  1  0  0  0  0
  7  8  1  0  0  0  0
  7  9  1  0  0  0  0
 28 29  1  0  0  0  0
 28 30  1  0  0  0  0
 28 31  1  0  0  0  0
 26 27  1  0  0  0  0
 26 28  1  0  0  0  0
M  END
$$$$
default_name
  -OEChem-02102213163D

 31 30  0     1  0  0  0  0  0999 V2000
   -3.0760   -3.6390    1.5496 H   0  0  0  0  0  0  0  0  0  0  0  0
   -3.0940   -2.6290    1.1426 C   0  0  0  0  0  0  0  0  0  0  0  0
   -3.7160   -1.9930    1.7706 H   0  0  0  0  0  0  0  0  0  0  0  0
   -3.4880   -2.6500    0.1286 H   0  0  0  0  0  0  0  0  0  0  0  0
   -1.6860   -2.0850    1.1196 C   0  0  0  0  0  0  0  0  0  0  0  0
   -0.7540   -2.7700    1.5226 O   0  0  0  0  0  0  0  0  0  0  0  0
   -1.5320   -0.8490    0.6496 N   0  0  0  0  0  0  0  0  0  0  0  0
   -2.3500   -0.3360    0.3566 H   0  0  0  0  0  0  0  0  0  0  0  0
   -0.2470   -0.1410    0.5576 C   0  0  1  0  0  0  0  0  0  0  0  0
    0.4239   -0.7541   -0.0450 H   0  0  0  0  0  0  0  0  0  0  0  0
   -0.4317    1.2160   -0.1683 C   0  0  1  0  0  0  0  0  0  0  0  0
    0.2792    1.9166    0.2738 H   0  0  0  0  0  0  0  0  0  0  0  0
   -0.1236    1.1239   -1.6751 C   0  0  0  0  0  0  0  0  0  0  0  0
   -0.8566    0.4913   -2.1789 H   0  0  0  0  0  0  0  0  0  0  0  0
   -0.1396    2.1150   -2.1257 H   0  0  0  0  0  0  0  0  0  0  0  0
    0.8704    0.7033   -1.8312 H   0  0  0  0  0  0  0  0  0  0  0  0
   -1.8483    1.7845    0.0717 C   0  0  0  0  0  0  0  0  0  0  0  0
   -2.4899    1.0152    0.5034 H   0  0  0  0  0  0  0  0  0  0  0  0
   -1.7794    2.6097    0.7805 H   0  0  0  0  0  0  0  0  0  0  0  0
   -2.5193    2.3263   -1.1977 C   0  0  0  0  0  0  0  0  0  0  0  0
   -2.7112    1.5182   -1.9033 H   0  0  0  0  0  0  0  0  0  0  0  0
   -3.4707    2.7880   -0.9323 H   0  0  0  0  0  0  0  0  0  0  0  0
   -1.8805    3.0756   -1.6666 H   0  0  0  0  0  0  0  0  0  0  0  0
    0.3833   -0.0008    1.9525 C   0  0  0  0  0  0  0  0  0  0  0  0
    1.5803   -0.2304    2.1189 O   0  0  0  0  0  0  0  0  0  0  0  0
   -0.4170    0.3858    2.9541 N   0  0  0  0  0  0  0  0  0  0  0  0
   -1.3850    0.5669    2.7398 H   0  0  0  0  0  0  0  0  0  0  0  0
    0.0265    0.5600    4.3358 C   0  0  0  0  0  0  0  0  0  0  0  0
    0.8964    1.2200    4.3632 H   0  0  0  0  0  0  0  0  0  0  0  0
   -0.7726    0.9946    4.9382 H   0  0  0  0  0  0  0  0  0  0  0  0
    0.3119   -0.4069    4.7547 H   0  0  0  0  0  0  0  0  0  0  0  0
  5  6  2  0  0  0  0
  5  7  1  0  0  0  0
  2  3  1  0  0  0  0
  2  4  1  0  0  0  0
  2  5  1  0  0  0  0
  1  2  1  0  0  0  0
 24 25  2  0  0  0  0
 24 26  1  0  0  0  0
 20 21  1  0  0  0  0
 20 22  1  0  0  0  0
 20 23  1  0  0  0  0
 17 18  1  0  0  0  0
 17 19  1  0  0  0  0
 17 20  1  0  0  0  0
 13 14  1  0  0  0  0
 13 15  1  0  0  0  0
 13 16  1  0  0  0  0
 11 12  1  0  0  0  0
 11 13  1  0  0  0  0
 11 17  1  0  0  0  0
  9 10  1  0  0  0  0
  9 11  1  0  0  0  0
  9 24  1  0  0  0  0
  7  8  1  0  0  0  0
  7  9  1  0  0  0  0
 28 29  1  0  0  0  0
 28 30  1  0  0  0  0
 28 31  1  0  0  0  0
 26 27  1  0  0  0  0
 26 28  1  0  0  0  0
M  END
$$$$
default_name
  -OEChem-02102213163D

 31 30  0     1  0  0  0  0  0999 V2000
   -3.0760   -3.6390    1.5496 H   0  0  0  0  0  0  0  0  0  0  0  0
   -3.0940   -2.6290    1.1426 C   0  0  0  0  0  0  0  0  0  0  0  0
   -3.7160   -1.9930    1.7706 H   0  0  0  0  0  0  0  0  0  0  0  0
   -3.4880   -2.6500    0.1286 H   0  0  0  0  0  0  0  0  0  0  0  0
   -1.6860   -2.0850    1.1196 C   0  0  0  0  0  0  0  0  0  0  0  0
   -0.7540   -2.7700    1.5226 O   0  0  0  0  0  0  0  0  0  0  0  0
   -1.5320   -0.8490    0.6496 N   0  0  0  0  0  0  0  0  0  0  0  0
   -2.3500   -0.3360    0.3566 H   0  0  0  0  0  0  0  0  0  0  0  0
   -0.2470   -0.1410    0.5576 C   0  0  1  0  0  0  0  0  0  0  0  0
    0.4239   -0.7541   -0.0450 H   0  0  0  0  0  0  0  0  0  0  0  0
   -0.4317    1.2160   -0.1683 C   0  0  1  0  0  0  0  0  0  0  0  0
    0.2792    1.9166    0.2738 H   0  0  0  0  0  0  0  0  0  0  0  0
   -0.1236    1.1239   -1.6751 C   0  0  0  0  0  0  0  0  0  0  0  0
   -0.8566    0.4913   -2.1789 H   0  0  0  0  0  0  0  0  0  0  0  0
   -0.1396    2.1150   -2.1257 H   0  0  0  0  0  0  0  0  0  0  0  0
    0.8704    0.7033   -1.8312 H   0  0  0  0  0  0  0  0  0  0  0  0
   -1.8483    1.7845    0.0717 C   0  0  0  0  0  0  0  0  0  0  0  0
   -2.4076    1.1227    0.7343 H   0  0  0  0  0  0  0  0  0  0  0  0
   -1.7584    2.7569    0.5559 H   0  0  0  0  0  0  0  0  0  0  0  0
   -2.6584    1.9874   -1.2158 C   0  0  0  0  0  0  0  0  0  0  0  0
   -2.8713    1.0288   -1.6886 H   0  0  0  0  0  0  0  0  0  0  0  0
   -3.6045    2.4717   -0.9727 H   0  0  0  0  0  0  0  0  0  0  0  0
   -2.1042    2.6208   -1.9094 H   0  0  0  0  0  0  0  0  0  0  0  0
    0.3833   -0.0008    1.9525 C   0  0  0  0  0  0  0  0  0  0  0  0
    1.5803   -0.2304    2.1189 O   0  0  0  0  0  0  0  0  0  0  0  0
   -0.4170    0.3858    2.9541 N   0  0  0  0  0  0  0  0  0  0  0  0
   -1.3850    0.5669    2.7398 H   0  0  0  0  0  0  0  0  0  0  0  0
    0.0265    0.5600    4.3358 C   0  0  0  0  0  0  0  0  0  0  0  0
    0.8964    1.2200    4.3632 H   0  0  0  0  0  0  0  0  0  0  0  0
   -0.7726    0.9946    4.9382 H   0  0  0  0  0  0  0  0  0  0  0  0
    0.3119   -0.4069    4.7547 H   0  0  0  0  0  0  0  0  0  0  0  0
  5  6  2  0  0  0  0
  5  7  1  0  0  0  0
  2  3  1  0  0  0  0
  2  4  1  0  0  0  0
  2  5  1  0  0  0  0
  1  2  1  0  0  0  0
 24 25  2  0  0  0  0
 24 26  1  0  0  0  0
 20 21  1  0  0  0  0
 20 22  1  0  0  0  0
 20 23  1  0  0  0  0
 17 18  1  0  0  0  0
 17 19  1  0  0  0  0
 17 20  1  0  0  0  0
 13 14  1  0  0  0  0
 13 15  1  0  0  0  0
 13 16  1  0  0  0  0
 11 12  1  0  0  0  0
 11 13  1  0  0  0  0
 11 17  1  0  0  0  0
  9 10  1  0  0  0  0
  9 11  1  0  0  0  0
  9 24  1  0  0  0  0
  7  8  1  0  0  0  0
  7  9  1  0  0  0  0
 28 29  1  0  0  0  0
 28 30  1  0  0  0  0
 28 31  1  0  0  0  0
 26 27  1  0  0  0  0
 26 28  1  0  0  0  0
M  END
$$$$
default_name
  -OEChem-02102213163D

 31 30  0     1  0  0  0  0  0999 V2000
   -3.0760   -3.6390    1.5496 H   0  0  0  0  0  0  0  0  0  0  0  0
   -3.0940   -2.6290    1.1426 C   0  0  0  0  0  0  0  0  0  0  0  0
   -3.7160   -1.9930    1.7706 H   0  0  0  0  0  0  0  0  0  0  0  0
   -3.4880   -2.6500    0.1286 H   0  0  0  0  0  0  0  0  0  0  0  0
   -1.6860   -2.0850    1.1196 C   0  0  0  0  0  0  0  0  0  0  0  0
   -0.7540   -2.7700    1.5226 O   0  0  0  0  0  0  0  0  0  0  0  0
   -1.5320   -0.8490    0.6496 N   0  0  0  0  0  0  0  0  0  0  0  0
   -2.3500   -0.3360    0.3566 H   0  0  0  0  0  0  0  0  0  0  0  0
   -0.2470   -0.1410    0.5576 C   0  0  1  0  0  0  0  0  0  0  0  0
    0.4239   -0.7541   -0.0450 H   0  0  0  0  0  0  0  0  0  0  0  0
   -0.4317    1.2160   -0.1683 C   0  0  1  0  0  0  0  0  0  0  0  0
    0.2792    1.9166    0.2738 H   0  0  0  0  0  0  0  0  0  0  0  0
   -0.1236    1.1239   -1.6751 C   0  0  0  0  0  0  0  0  0  0  0  0
   -0.8566    0.4913   -2.1789 H   0  0  0  0  0  0  0  0  0  0  0  0
   -0.1396    2.1150   -2.1257 H   0  0  0  0  0  0  0  0  0  0  0  0
    0.8704    0.7033   -1.8312 H   0  0  0  0  0  0  0  0  0  0  0  0
   -1.8483    1.7845    0.0717 C   0  0  0  0  0  0  0  0  0  0  0  0
   -2.3104    1.2846    0.9240 H   0  0  0  0  0  0  0  0  0  0  0  0
   -1.7654    2.8467    0.3020 H   0  0  0  0  0  0  0  0  0  0  0  0
   -2.7809    1.6502   -1.1396 C   0  0  0  0  0  0  0  0  0  0  0  0
   -2.9857    0.6006   -1.3498 H   0  0  0  0  0  0  0  0  0  0  0  0
   -3.7248    2.1511   -0.9239 H   0  0  0  0  0  0  0  0  0  0  0  0
   -2.3251    2.1149   -2.0147 H   0  0  0  0  0  0  0  0  0  0  0  0
    0.3833   -0.0008    1.9525 C   0  0  0  0  0  0  0  0  0  0  0  0
    1.5803   -0.2304    2.1189 O   0  0  0  0  0  0  0  0  0  0  0  0
   -0.4170    0.3858    2.9541 N   0  0  0  0  0  0  0  0  0  0  0  0
   -1.3850    0.5669    2.7398 H   0  0  0  0  0  0  0  0  0  0  0  0
    0.0265    0.5600    4.3358 C   0  0  0  0  0  0  0  0  0  0  0  0
    0.8964    1.2200    4.3632 H   0  0  0  0  0  0  0  0  0  0  0  0
   -0.7726    0.9946    4.9382 H   0  0  0  0  0  0  0  0  0  0  0  0
    0.3119   -0.4069    4.7547 H   0  0  0  0  0  0  0  0  0  0  0  0
  5  6  2  0  0  0  0
  5  7  1  0  0  0  0
  2  3  1  0  0  0  0
  2  4  1  0  0  0  0
  2  5  1  0  0  0  0
  1  2  1  0  0  0  0
 24 25  2  0  0  0  0
 24 26  1  0  0  0  0
 20 21  1  0  0  0  0
 20 22  1  0  0  0  0
 20 23  1  0  0  0  0
 17 18  1  0  0  0  0
 17 19  1  0  0  0  0
 17 20  1  0  0  0  0
 13 14  1  0  0  0  0
 13 15  1  0  0  0  0
 13 16  1  0  0  0  0
 11 12  1  0  0  0  0
 11 13  1  0  0  0  0
 11 17  1  0  0  0  0
  9 10  1  0  0  0  0
  9 11  1  0  0  0  0
  9 24  1  0  0  0  0
  7  8  1  0  0  0  0
  7  9  1  0  0  0  0
 28 29  1  0  0  0  0
 28 30  1  0  0  0  0
 28 31  1  0  0  0  0
 26 27  1  0  0  0  0
 26 28  1  0  0  0  0
M  END
$$$$
default_name
  -OEChem-02102213163D

 31 30  0     1  0  0  0  0  0999 V2000
   -3.0760   -3.6390    1.5496 H   0  0  0  0  0  0  0  0  0  0  0  0
   -3.0940   -2.6290    1.1426 C   0  0  0  0  0  0  0  0  0  0  0  0
   -3.7160   -1.9930    1.7706 H   0  0  0  0  0  0  0  0  0  0  0  0
   -3.4880   -2.6500    0.1286 H   0  0  0  0  0  0  0  0  0  0  0  0
   -1.6860   -2.0850    1.1196 C   0  0  0  0  0  0  0  0  0  0  0  0
   -0.7540   -2.7700    1.5226 O   0  0  0  0  0  0  0  0  0  0  0  0
   -1.5320   -0.8490    0.6496 N   0  0  0  0  0  0  0  0  0  0  0  0
   -2.3500   -0.3360    0.3566 H   0  0  0  0  0  0  0  0  0  0  0  0
   -0.2470   -0.1410    0.5576 C   0  0  1  0  0  0  0  0  0  0  0  0
    0.4239   -0.7541   -0.0450 H   0  0  0  0  0  0  0  0  0  0  0  0
   -0.4317    1.2160   -0.1683 C   0  0  1  0  0  0  0  0  0  0  0  0
    0.2792    1.9166    0.2738 H   0  0  0  0  0  0  0  0  0  0  0  0
   -0.1236    1.1239   -1.6751 C   0  0  0  0  0  0  0  0  0  0  0  0
   -0.8566    0.4913   -2.1789 H   0  0  0  0  0  0  0  0  0  0  0  0
   -0.1396    2.1150   -2.1257 H   0  0  0  0  0  0  0  0  0  0  0  0
    0.8704    0.7033   -1.8312 H   0  0  0  0  0  0  0  0  0  0  0  0
   -1.8483    1.7845    0.0717 C   0  0  0  0  0  0  0  0  0  0  0  0
   -2.2050    1.4900    1.0596 H   0  0  0  0  0  0  0  0  0  0  0  0
   -1.8000    2.8728    0.0361 H   0  0  0  0  0  0  0  0  0  0  0  0
   -2.8783    1.3376   -0.9744 C   0  0  0  0  0  0  0  0  0  0  0  0
   -3.0468    0.2627   -0.9101 H   0  0  0  0  0  0  0  0  0  0  0  0
   -3.8236    1.8483   -0.7892 H   0  0  0  0  0  0  0  0  0  0  0  0
   -2.5282    1.5924   -1.9753 H   0  0  0  0  0  0  0  0  0  0  0  0
    0.3833   -0.0008    1.9525 C   0  0  0  0  0  0  0  0  0  0  0  0
    1.5803   -0.2304    2.1189 O   0  0  0  0  0  0  0  0  0  0  0  0
   -0.4170    0.3858    2.9541 N   0  0  0  0  0  0  0  0  0  0  0  0
   -1.3850    0.5669    2.7398 H   0  0  0  0  0  0  0  0  0  0  0  0
    0.0265    0.5600    4.3358 C   0  0  0  0  0  0  0  0  0  0  0  0
    0.8964    1.2200    4.3632 H   0  0  0  0  0  0  0  0  0  0  0  0
   -0.7726    0.9946    4.9382 H   0  0  0  0  0  0  0  0  0  0  0  0
    0.3119   -0.4069    4.7547 H   0  0  0  0  0  0  0  0  0  0  0  0
  5  6  2  0  0  0  0
  5  7  1  0  0  0  0
  2  3  1  0  0  0  0
  2  4  1  0  0  0  0
  2  5  1  0  0  0  0
  1  2  1  0  0  0  0
 24 25  2  0  0  0  0
 24 26  1  0  0  0  0
 20 21  1  0  0  0  0
 20 22  1  0  0  0  0
 20 23  1  0  0  0  0
 17 18  1  0  0  0  0
 17 19  1  0  0  0  0
 17 20  1  0  0  0  0
 13 14  1  0  0  0  0
 13 15  1  0  0  0  0
 13 16  1  0  0  0  0
 11 12  1  0  0  0  0
 11 13  1  0  0  0  0
 11 17  1  0  0  0  0
  9 10  1  0  0  0  0
  9 11  1  0  0  0  0
  9 24  1  0  0  0  0
  7  8  1  0  0  0  0
  7  9  1  0  0  0  0
 28 29  1  0  0  0  0
 28 30  1  0  0  0  0
 28 31  1  0  0  0  0
 26 27  1  0  0  0  0
 26 28  1  0  0  0  0
M  END
$$$$
default_name
  -OEChem-02102213163D

 31 30  0     1  0  0  0  0  0999 V2000
   -3.0760   -3.6390    1.5496 H   0  0  0  0  0  0  0  0  0  0  0  0
   -3.0940   -2.6290    1.1426 C   0  0  0  0  0  0  0  0  0  0  0  0
   -3.7160   -1.9930    1.7706 H   0  0  0  0  0  0  0  0  0  0  0  0
   -3.4880   -2.6500    0.1286 H   0  0  0  0  0  0  0  0  0  0  0  0
   -1.6860   -2.0850    1.1196 C   0  0  0  0  0  0  0  0  0  0  0  0
   -0.7540   -2.7700    1.5226 O   0  0  0  0  0  0  0  0  0  0  0  0
   -1.5320   -0.8490    0.6496 N   0  0  0  0  0  0  0  0  0  0  0  0
   -2.3500   -0.3360    0.3566 H   0  0  0  0  0  0  0  0  0  0  0  0
   -0.2470   -0.1410    0.5576 C   0  0  1  0  0  0  0  0  0  0  0  0
    0.4239   -0.7541   -0.0450 H   0  0  0  0  0  0  0  0  0  0  0  0
   -0.4317    1.2160   -0.1683 C   0  0  1  0  0  0  0  0  0  0  0  0
    0.2792    1.9166    0.2738 H   0  0  0  0  0  0  0  0  0  0  0  0
   -0.1236    1.1239   -1.6751 C   0  0  0  0  0  0  0  0  0  0  0  0
   -0.8566    0.4913   -2.1789 H   0  0  0  0  0  0  0  0  0  0  0  0
   -0.1396    2.1150   -2.1257 H   0  0  0  0  0  0  0  0  0  0  0  0
    0.8704    0.7033   -1.8312 H   0  0  0  0  0  0  0  0  0  0  0  0
   -1.8483    1.7845    0.0717 C   0  0  0  0  0  0  0  0  0  0  0  0
   -2.0986    1.7247    1.1318 H   0  0  0  0  0  0  0  0  0  0  0  0
   -1.8597    2.8336   -0.2237 H   0  0  0  0  0  0  0  0  0  0  0  0
   -2.9442    1.0709   -0.7313 C   0  0  0  0  0  0  0  0  0  0  0  0
   -3.0503    0.0383   -0.3994 H   0  0  0  0  0  0  0  0  0  0  0  0
   -3.8940    1.5837   -0.5779 H   0  0  0  0  0  0  0  0  0  0  0  0
   -2.6996    1.0888   -1.7939 H   0  0  0  0  0  0  0  0  0  0  0  0
    0.3833   -0.0008    1.9525 C   0  0  0  0  0  0  0  0  0  0  0  0
    1.5803   -0.2304    2.1189 O   0  0  0  0  0  0  0  0  0  0  0  0
   -0.4170    0.3858    2.9541 N   0  0  0  0  0  0  0  0  0  0  0  0
   -1.3850    0.5669    2.7398 H   0  0  0  0  0  0  0  0  0  0  0  0
    0.0265    0.5600    4.3358 C   0  0  0  0  0  0  0  0  0  0  0  0
    0.8964    1.2200    4.3632 H   0  0  0  0  0  0  0  0  0  0  0  0
   -0.7726    0.9946    4.9382 H   0  0  0  0  0  0  0  0  0  0  0  0
    0.3119   -0.4069    4.7547 H   0  0  0  0  0  0  0  0  0  0  0  0
  5  6  2  0  0  0  0
  5  7  1  0  0  0  0
  2  3  1  0  0  0  0
  2  4  1  0  0  0  0
  2  5  1  0  0  0  0
  1  2  1  0  0  0  0
 24 25  2  0  0  0  0
 24 26  1  0  0  0  0
 20 21  1  0  0  0  0
 20 22  1  0  0  0  0
 20 23  1  0  0  0  0
 17 18  1  0  0  0  0
 17 19  1  0  0  0  0
 17 20  1  0  0  0  0
 13 14  1  0  0  0  0
 13 15  1  0  0  0  0
 13 16  1  0  0  0  0
 11 12  1  0  0  0  0
 11 13  1  0  0  0  0
 11 17  1  0  0  0  0
  9 10  1  0  0  0  0
  9 11  1  0  0  0  0
  9 24  1  0  0  0  0
  7  8  1  0  0  0  0
  7  9  1  0  0  0  0
 28 29  1  0  0  0  0
 28 30  1  0  0  0  0
 28 31  1  0  0  0  0
 26 27  1  0  0  0  0
 26 28  1  0  0  0  0
M  END
$$$$
default_name
  -OEChem-02102213163D

 31 30  0     1  0  0  0  0  0999 V2000
   -3.0760   -3.6390    1.5496 H   0  0  0  0  0  0  0  0  0  0  0  0
   -3.0940   -2.6290    1.1426 C   0  0  0  0  0  0  0  0  0  0  0  0
   -3.7160   -1.9930    1.7706 H   0  0  0  0  0  0  0  0  0  0  0  0
   -3.4880   -2.6500    0.1286 H   0  0  0  0  0  0  0  0  0  0  0  0
   -1.6860   -2.0850    1.1196 C   0  0  0  0  0  0  0  0  0  0  0  0
   -0.7540   -2.7700    1.5226 O   0  0  0  0  0  0  0  0  0  0  0  0
   -1.5320   -0.8490    0.6496 N   0  0  0  0  0  0  0  0  0  0  0  0
   -2.3500   -0.3360    0.3566 H   0  0  0  0  0  0  0  0  0  0  0  0
   -0.2470   -0.1410    0.5576 C   0  0  1  0  0  0  0  0  0  0  0  0
    0.4239   -0.7541   -0.0450 H   0  0  0  0  0  0  0  0  0  0  0  0
   -0.4317    1.2160   -0.1683 C   0  0  1  0  0  0  0  0  0  0  0  0
    0.2792    1.9166    0.2738 H   0  0  0  0  0  0  0  0  0  0  0  0
   -0.1236    1.1239   -1.6751 C   0  0  0  0  0  0  0  0  0  0  0  0
   -0.8566    0.4913   -2.1789 H   0  0  0  0  0  0  0  0  0  0  0  0
   -0.1396    2.1150   -2.1257 H   0  0  0  0  0  0  0  0  0  0  0  0
    0.8704    0.7033   -1.8312 H   0  0  0  0  0  0  0  0  0  0  0  0
   -1.8483    1.7845    0.0717 C   0  0  0  0  0  0  0  0  0  0  0  0
   -1.9983    1.9729    1.1356 H   0  0  0  0  0  0  0  0  0  0  0  0
   -1.9406    2.7317   -0.4596 H   0  0  0  0  0  0  0  0  0  0  0  0
   -2.9739    0.8683   -0.4270 C   0  0  0  0  0  0  0  0  0  0  0  0
   -2.9961   -0.0575    0.1476 H   0  0  0  0  0  0  0  0  0  0  0  0
   -3.9312    1.3755   -0.3043 H   0  0  0  0  0  0  0  0  0  0  0  0
   -2.8276    0.6385   -1.4830 H   0  0  0  0  0  0  0  0  0  0  0  0
    0.3833   -0.0008    1.9525 C   0  0  0  0  0  0  0  0  0  0  0  0
    1.5803   -0.2304    2.1189 O   0  0  0  0  0  0  0  0  0  0  0  0
   -0.4170    0.3858    2.9541 N   0  0  0  0  0  0  0  0  0  0  0  0
   -1.3850    0.5669    2.7398 H   0  0  0  0  0  0  0  0  0  0  0  0
    0.0265    0.5600    4.3358 C   0  0  0  0  0  0  0  0  0  0  0  0
    0.8964    1.2200    4.3632 H   0  0  0  0  0  0  0  0  0  0  0  0
   -0.7726    0.9946    4.9382 H   0  0  0  0  0  0  0  0  0  0  0  0
    0.3119   -0.4069    4.7547 H   0  0  0  0  0  0  0  0  0  0  0  0
  5  6  2  0  0  0  0
  5  7  1  0  0  0  0
  2  3  1  0  0  0  0
  2  4  1  0  0  0  0
  2  5  1  0  0  0  0
  1  2  1  0  0  0  0
 24 25  2  0  0  0  0
 24 26  1  0  0  0  0
 20 21  1  0  0  0  0
 20 22  1  0  0  0  0
 20 23  1  0  0  0  0
 17 18  1  0  0  0  0
 17 19  1  0  0  0  0
 17 20  1  0  0  0  0
 13 14  1  0  0  0  0
 13 15  1  0  0  0  0
 13 16  1  0  0  0  0
 11 12  1  0  0  0  0
 11 13  1  0  0  0  0
 11 17  1  0  0  0  0
  9 10  1  0  0  0  0
  9 11  1  0  0  0  0
  9 24  1  0  0  0  0
  7  8  1  0  0  0  0
  7  9  1  0  0  0  0
 28 29  1  0  0  0  0
 28 30  1  0  0  0  0
 28 31  1  0  0  0  0
 26 27  1  0  0  0  0
 26 28  1  0  0  0  0
M  END
$$$$
default_name
  -OEChem-02102213163D

 31 30  0     1  0  0  0  0  0999 V2000
   -3.0760   -3.6390    1.5496 H   0  0  0  0  0  0  0  0  0  0  0  0
   -3.0940   -2.6290    1.1426 C   0  0  0  0  0  0  0  0  0  0  0  0
   -3.7160   -1.9930    1.7706 H   0  0  0  0  0  0  0  0  0  0  0  0
   -3.4880   -2.6500    0.1286 H   0  0  0  0  0  0  0  0  0  0  0  0
   -1.6860   -2.0850    1.1196 C   0  0  0  0  0  0  0  0  0  0  0  0
   -0.7540   -2.7700    1.5226 O   0  0  0  0  0  0  0  0  0  0  0  0
   -1.5320   -0.8490    0.6496 N   0  0  0  0  0  0  0  0  0  0  0  0
   -2.3500   -0.3360    0.3566 H   0  0  0  0  0  0  0  0  0  0  0  0
   -0.2470   -0.1410    0.5576 C   0  0  1  0  0  0  0  0  0  0  0  0
    0.4239   -0.7541   -0.0450 H   0  0  0  0  0  0  0  0  0  0  0  0
   -0.4317    1.2160   -0.1683 C   0  0  1  0  0  0  0  0  0  0  0  0
    0.2792    1.9166    0.2738 H   0  0  0  0  0  0  0  0  0  0  0  0
   -0.1236    1.1239   -1.6751 C   0  0  0  0  0  0  0  0  0  0  0  0
   -0.8566    0.4913   -2.1789 H   0  0  0  0  0  0  0  0  0  0  0  0
   -0.1396    2.1150   -2.1257 H   0  0  0  0  0  0  0  0  0  0  0  0
    0.8704    0.7033   -1.8312 H   0  0  0  0  0  0  0  0  0  0  0  0
   -1.8483    1.7845    0.0717 C   0  0  0  0  0  0  0  0  0  0  0  0
   -1.9111    2.2175    1.0710 H   0  0  0  0  0  0  0  0  0  0  0  0
   -2.0371    2.5741   -0.6556 H   0  0  0  0  0  0  0  0  0  0  0  0
   -2.9655    0.7437   -0.0821 C   0  0  0  0  0  0  0  0  0  0  0  0
   -2.8878   -0.0181    0.6934 H   0  0  0  0  0  0  0  0  0  0  0  0
   -3.9327    1.2378    0.0130 H   0  0  0  0  0  0  0  0  0  0  0  0
   -2.9036    0.2722   -1.0636 H   0  0  0  0  0  0  0  0  0  0  0  0
    0.3833   -0.0008    1.9525 C   0  0  0  0  0  0  0  0  0  0  0  0
    1.5803   -0.2304    2.1189 O   0  0  0  0  0  0  0  0  0  0  0  0
   -0.4170    0.3858    2.9541 N   0  0  0  0  0  0  0  0  0  0  0  0
   -1.3850    0.5669    2.7398 H   0  0  0  0  0  0  0  0  0  0  0  0
    0.0265    0.5600    4.3358 C   0  0  0  0  0  0  0  0  0  0  0  0
    0.8964    1.2200    4.3632 H   0  0  0  0  0  0  0  0  0  0  0  0
   -0.7726    0.9946    4.9382 H   0  0  0  0  0  0  0  0  0  0  0  0
    0.3119   -0.4069    4.7547 H   0  0  0  0  0  0  0  0  0  0  0  0
  5  6  2  0  0  0  0
  5  7  1  0  0  0  0
  2  3  1  0  0  0  0
  2  4  1  0  0  0  0
  2  5  1  0  0  0  0
  1  2  1  0  0  0  0
 24 25  2  0  0  0  0
 24 26  1  0  0  0  0
 20 21  1  0  0  0  0
 20 22  1  0  0  0  0
 20 23  1  0  0  0  0
 17 18  1  0  0  0  0
 17 19  1  0  0  0  0
 17 20  1  0  0  0  0
 13 14  1  0  0  0  0
 13 15  1  0  0  0  0
 13 16  1  0  0  0  0
 11 12  1  0  0  0  0
 11 13  1  0  0  0  0
 11 17  1  0  0  0  0
  9 10  1  0  0  0  0
  9 11  1  0  0  0  0
  9 24  1  0  0  0  0
  7  8  1  0  0  0  0
  7  9  1  0  0  0  0
 28 29  1  0  0  0  0
 28 30  1  0  0  0  0
 28 31  1  0  0  0  0
 26 27  1  0  0  0  0
 26 28  1  0  0  0  0
M  END
$$$$
default_name
  -OEChem-02102213163D

 31 30  0     1  0  0  0  0  0999 V2000
   -3.0760   -3.6390    1.5496 H   0  0  0  0  0  0  0  0  0  0  0  0
   -3.0940   -2.6290    1.1426 C   0  0  0  0  0  0  0  0  0  0  0  0
   -3.7160   -1.9930    1.7706 H   0  0  0  0  0  0  0  0  0  0  0  0
   -3.4880   -2.6500    0.1286 H   0  0  0  0  0  0  0  0  0  0  0  0
   -1.6860   -2.0850    1.1196 C   0  0  0  0  0  0  0  0  0  0  0  0
   -0.7540   -2.7700    1.5226 O   0  0  0  0  0  0  0  0  0  0  0  0
   -1.5320   -0.8490    0.6496 N   0  0  0  0  0  0  0  0  0  0  0  0
   -2.3500   -0.3360    0.3566 H   0  0  0  0  0  0  0  0  0  0  0  0
   -0.2470   -0.1410    0.5576 C   0  0  1  0  0  0  0  0  0  0  0  0
    0.4239   -0.7541   -0.0450 H   0  0  0  0  0  0  0  0  0  0  0  0
   -0.4317    1.2160   -0.1683 C   0  0  1  0  0  0  0  0  0  0  0  0
    0.2792    1.9166    0.2738 H   0  0  0  0  0  0  0  0  0  0  0  0
   -0.1236    1.1239   -1.6751 C   0  0  0  0  0  0  0  0  0  0  0  0
   -0.8566    0.4913   -2.1789 H   0  0  0  0  0  0  0  0  0  0  0  0
   -0.1396    2.1150   -2.1257 H   0  0  0  0  0  0  0  0  0  0  0  0
    0.8704    0.7033   -1.8312 H   0  0  0  0  0  0  0  0  0  0  0  0
   -1.8483    1.7845    0.0717 C   0  0  0  0  0  0  0  0  0  0  0  0
   -1.8428    2.4420    0.9421 H   0  0  0  0  0  0  0  0  0  0  0  0
   -2.1426    2.3714   -0.7983 H   0  0  0  0  0  0  0  0  0  0  0  0
   -2.9195    0.7055    0.2798 C   0  0  0  0  0  0  0  0  0  0  0  0
   -2.7327    0.1539    1.2010 H   0  0  0  0  0  0  0  0  0  0  0  0
   -3.8984    1.1800    0.3522 H   0  0  0  0  0  0  0  0  0  0  0  0
   -2.9222    0.0149   -0.5643 H   0  0  0  0  0  0  0  0  0  0  0  0
    0.3833   -0.0008    1.9525 C   0  0  0  0  0  0  0  0  0  0  0  0
    1.5803   -0.2304    2.1189 O   0  0  0  0  0  0  0  0  0  0  0  0
   -0.4170    0.3858    2.9541 N   0  0  0  0  0  0  0  0  0  0  0  0
   -1.3850    0.5669    2.7398 H   0  0  0  0  0  0  0  0  0  0  0  0
    0.0265    0.5600    4.3358 C   0  0  0  0  0  0  0  0  0  0  0  0
    0.8964    1.2200    4.3632 H   0  0  0  0  0  0  0  0  0  0  0  0
   -0.7726    0.9946    4.9382 H   0  0  0  0  0  0  0  0  0  0  0  0
    0.3119   -0.4069    4.7547 H   0  0  0  0  0  0  0  0  0  0  0  0
  5  6  2  0  0  0  0
  5  7  1  0  0  0  0
  2  3  1  0  0  0  0
  2  4  1  0  0  0  0
  2  5  1  0  0  0  0
  1  2  1  0  0  0  0
 24 25  2  0  0  0  0
 24 26  1  0  0  0  0
 20 21  1  0  0  0  0
 20 22  1  0  0  0  0
 20 23  1  0  0  0  0
 17 18  1  0  0  0  0
 17 19  1  0  0  0  0
 17 20  1  0  0  0  0
 13 14  1  0  0  0  0
 13 15  1  0  0  0  0
 13 16  1  0  0  0  0
 11 12  1  0  0  0  0
 11 13  1  0  0  0  0
 11 17  1  0  0  0  0
  9 10  1  0  0  0  0
  9 11  1  0  0  0  0
  9 24  1  0  0  0  0
  7  8  1  0  0  0  0
  7  9  1  0  0  0  0
 28 29  1  0  0  0  0
 28 30  1  0  0  0  0
 28 31  1  0  0  0  0
 26 27  1  0  0  0  0
 26 28  1  0  0  0  0
M  END
$$$$
default_name
  -OEChem-02102213163D

 31 30  0     1  0  0  0  0  0999 V2000
   -3.0760   -3.6390    1.5496 H   0  0  0  0  0  0  0  0  0  0  0  0
   -3.0940   -2.6290    1.1426 C   0  0  0  0  0  0  0  0  0  0  0  0
   -3.7160   -1.9930    1.7706 H   0  0  0  0  0  0  0  0  0  0  0  0
   -3.4880   -2.6500    0.1286 H   0  0  0  0  0  0  0  0  0  0  0  0
   -1.6860   -2.0850    1.1196 C   0  0  0  0  0  0  0  0  0  0  0  0
   -0.7540   -2.7700    1.5226 O   0  0  0  0  0  0  0  0  0  0  0  0
   -1.5320   -0.8490    0.6496 N   0  0  0  0  0  0  0  0  0  0  0  0
   -2.3500   -0.3360    0.3566 H   0  0  0  0  0  0  0  0  0  0  0  0
   -0.2470   -0.1410    0.5576 C   0  0  1  0  0  0  0  0  0  0  0  0
    0.4239   -0.7541   -0.0450 H   0  0  0  0  0  0  0  0  0  0  0  0
   -0.4317    1.2160   -0.1683 C   0  0  1  0  0  0  0  0  0  0  0  0
    0.2792    1.9166    0.2738 H   0  0  0  0  0  0  0  0  0  0  0  0
   -0.1236    1.1239   -1.6751 C   0  0  0  0  0  0  0  0  0  0  0  0
   -0.8566    0.4913   -2.1789 H   0  0  0  0  0  0  0  0  0  0  0  0
   -0.1396    2.1150   -2.1257 H   0  0  0  0  0  0  0  0  0  0  0  0
    0.8704    0.7033   -1.8312 H   0  0  0  0  0  0  0  0  0  0  0  0
   -1.8483    1.7845    0.0717 C   0  0  0  0  0  0  0  0  0  0  0  0
   -1.7982    2.6310    0.7579 H   0  0  0  0  0  0  0  0  0  0  0  0
   -2.2500    2.1375   -0.8780 H   0  0  0  0  0  0  0  0  0  0  0  0
   -2.8391    0.7562    0.6340 C   0  0  0  0  0  0  0  0  0  0  0  0
   -2.5415    0.4467    1.6357 H   0  0  0  0  0  0  0  0  0  0  0  0
   -3.8306    1.2060    0.6904 H   0  0  0  0  0  0  0  0  0  0  0  0
   -2.8824   -0.1160   -0.0192 H   0  0  0  0  0  0  0  0  0  0  0  0
    0.3833   -0.0008    1.9525 C   0  0  0  0  0  0  0  0  0  0  0  0
    1.5803   -0.2304    2.1189 O   0  0  0  0  0  0  0  0  0  0  0  0
   -0.4170    0.3858    2.9541 N   0  0  0  0  0  0  0  0  0  0  0  0
   -1.3850    0.5669    2.7398 H   0  0  0  0  0  0  0  0  0  0  0  0
    0.0265    0.5600    4.3358 C   0  0  0  0  0  0  0  0  0  0  0  0
    0.8964    1.2200    4.3632 H   0  0  0  0  0  0  0  0  0  0  0  0
   -0.7726    0.9946    4.9382 H   0  0  0  0  0  0  0  0  0  0  0  0
    0.3119   -0.4069    4.7547 H   0  0  0  0  0  0  0  0  0  0  0  0
  5  6  2  0  0  0  0
  5  7  1  0  0  0  0
  2  3  1  0  0  0  0
  2  4  1  0  0  0  0
  2  5  1  0  0  0  0
  1  2  1  0  0  0  0
 24 25  2  0  0  0  0
 24 26  1  0  0  0  0
 20 21  1  0  0  0  0
 20 22  1  0  0  0  0
 20 23  1  0  0  0  0
 17 18  1  0  0  0  0
 17 19  1  0  0  0  0
 17 20  1  0  0  0  0
 13 14  1  0  0  0  0
 13 15  1  0  0  0  0
 13 16  1  0  0  0  0
 11 12  1  0  0  0  0
 11 13  1  0  0  0  0
 11 17  1  0  0  0  0
  9 10  1  0  0  0  0
  9 11  1  0  0  0  0
  9 24  1  0  0  0  0
  7  8  1  0  0  0  0
  7  9  1  0  0  0  0
 28 29  1  0  0  0  0
 28 30  1  0  0  0  0
 28 31  1  0  0  0  0
 26 27  1  0  0  0  0
 26 28  1  0  0  0  0
M  END
$$$$
default_name
  -OEChem-02102213163D

 31 30  0     1  0  0  0  0  0999 V2000
   -3.0760   -3.6390    1.5496 H   0  0  0  0  0  0  0  0  0  0  0  0
   -3.0940   -2.6290    1.1426 C   0  0  0  0  0  0  0  0  0  0  0  0
   -3.7160   -1.9930    1.7706 H   0  0  0  0  0  0  0  0  0  0  0  0
   -3.4880   -2.6500    0.1286 H   0  0  0  0  0  0  0  0  0  0  0  0
   -1.6860   -2.0850    1.1196 C   0  0  0  0  0  0  0  0  0  0  0  0
   -0.7540   -2.7700    1.5226 O   0  0  0  0  0  0  0  0  0  0  0  0
   -1.5320   -0.8490    0.6496 N   0  0  0  0  0  0  0  0  0  0  0  0
   -2.3500   -0.3360    0.3566 H   0  0  0  0  0  0  0  0  0  0  0  0
   -0.2470   -0.1410    0.5576 C   0  0  1  0  0  0  0  0  0  0  0  0
    0.4239   -0.7541   -0.0450 H   0  0  0  0  0  0  0  0  0  0  0  0
   -0.4317    1.2160   -0.1683 C   0  0  1  0  0  0  0  0  0  0  0  0
    0.2792    1.9166    0.2738 H   0  0  0  0  0  0  0  0  0  0  0  0
   -0.1236    1.1239   -1.6751 C   0  0  0  0  0  0  0  0  0  0  0  0
   -0.8566    0.4913   -2.1789 H   0  0  0  0  0  0  0  0  0  0  0  0
   -0.1396    2.1150   -2.1257 H   0  0  0  0  0  0  0  0  0  0  0  0
    0.8704    0.7033   -1.8312 H   0  0  0  0  0  0  0  0  0  0  0  0
   -1.8483    1.7845    0.0717 C   0  0  0  0  0  0  0  0  0  0  0  0
   -1.7802    2.7717    0.5309 H   0  0  0  0  0  0  0  0  0  0  0  0
   -2.3519    1.8884   -0.8893 H   0  0  0  0  0  0  0  0  0  0  0  0
   -2.7297    0.8926    0.9565 C   0  0  0  0  0  0  0  0  0  0  0  0
   -2.3272    0.8403    1.9679 H   0  0  0  0  0  0  0  0  0  0  0  0
   -3.7340    1.3141    1.0044 H   0  0  0  0  0  0  0  0  0  0  0  0
   -2.7867   -0.1114    0.5346 H   0  0  0  0  0  0  0  0  0  0  0  0
    0.3833   -0.0008    1.9525 C   0  0  0  0  0  0  0  0  0  0  0  0
    1.5803   -0.2304    2.1189 O   0  0  0  0  0  0  0  0  0  0  0  0
   -0.4170    0.3858    2.9541 N   0  0  0  0  0  0  0  0  0  0  0  0
   -1.3850    0.5669    2.7398 H   0  0  0  0  0  0  0  0  0  0  0  0
    0.0265    0.5600    4.3358 C   0  0  0  0  0  0  0  0  0  0  0  0
    0.8964    1.2200    4.3632 H   0  0  0  0  0  0  0  0  0  0  0  0
   -0.7726    0.9946    4.9382 H   0  0  0  0  0  0  0  0  0  0  0  0
    0.3119   -0.4069    4.7547 H   0  0  0  0  0  0  0  0  0  0  0  0
  5  6  2  0  0  0  0
  5  7  1  0  0  0  0
  2  3  1  0  0  0  0
  2  4  1  0  0  0  0
  2  5  1  0  0  0  0
  1  2  1  0  0  0  0
 24 25  2  0  0  0  0
 24 26  1  0  0  0  0
 20 21  1  0  0  0  0
 20 22  1  0  0  0  0
 20 23  1  0  0  0  0
 17 18  1  0  0  0  0
 17 19  1  0  0  0  0
 17 20  1  0  0  0  0
 13 14  1  0  0  0  0
 13 15  1  0  0  0  0
 13 16  1  0  0  0  0
 11 12  1  0  0  0  0
 11 13  1  0  0  0  0
 11 17  1  0  0  0  0
  9 10  1  0  0  0  0
  9 11  1  0  0  0  0
  9 24  1  0  0  0  0
  7  8  1  0  0  0  0
  7  9  1  0  0  0  0
 28 29  1  0  0  0  0
 28 30  1  0  0  0  0
 28 31  1  0  0  0  0
 26 27  1  0  0  0  0
 26 28  1  0  0  0  0
M  END
$$$$
default_name
  -OEChem-02102213163D

 31 30  0     1  0  0  0  0  0999 V2000
   -3.0760   -3.6390    1.5496 H   0  0  0  0  0  0  0  0  0  0  0  0
   -3.0940   -2.6290    1.1426 C   0  0  0  0  0  0  0  0  0  0  0  0
   -3.7160   -1.9930    1.7706 H   0  0  0  0  0  0  0  0  0  0  0  0
   -3.4880   -2.6500    0.1286 H   0  0  0  0  0  0  0  0  0  0  0  0
   -1.6860   -2.0850    1.1196 C   0  0  0  0  0  0  0  0  0  0  0  0
   -0.7540   -2.7700    1.5226 O   0  0  0  0  0  0  0  0  0  0  0  0
   -1.5320   -0.8490    0.6496 N   0  0  0  0  0  0  0  0  0  0  0  0
   -2.3500   -0.3360    0.3566 H   0  0  0  0  0  0  0  0  0  0  0  0
   -0.2470   -0.1410    0.5576 C   0  0  1  0  0  0  0  0  0  0  0  0
    0.4239   -0.7541   -0.0450 H   0  0  0  0  0  0  0  0  0  0  0  0
   -0.4317    1.2160   -0.1683 C   0  0  1  0  0  0  0  0  0  0  0  0
    0.2792    1.9166    0.2738 H   0  0  0  0  0  0  0  0  0  0  0  0
   -0.1236    1.1239   -1.6751 C   0  0  0  0  0  0  0  0  0  0  0  0
   -0.8566    0.4913   -2.1789 H   0  0  0  0  0  0  0  0  0  0  0  0
   -0.1396    2.1150   -2.1257 H   0  0  0  0  0  0  0  0  0  0  0  0
    0.8704    0.7033   -1.8312 H   0  0  0  0  0  0  0  0  0  0  0  0
   -1.8483    1.7845    0.0717 C   0  0  0  0  0  0  0  0  0  0  0  0
   -1.7901    2.8544    0.2765 H   0  0  0  0  0  0  0  0  0  0  0  0
   -2.4414    1.6409   -0.8313 H   0  0  0  0  0  0  0  0  0  0  0  0
   -2.5988    1.1052    1.2252 C   0  0  0  0  0  0  0  0  0  0  0  0
   -2.1044    1.3080    2.1750 H   0  0  0  0  0  0  0  0  0  0  0  0
   -3.6152    1.4969    1.2728 H   0  0  0  0  0  0  0  0  0  0  0  0
   -2.6418    0.0282    1.0593 H   0  0  0  0  0  0  0  0  0  0  0  0
    0.3833   -0.0008    1.9525 C   0  0  0  0  0  0  0  0  0  0  0  0
    1.5803   -0.2304    2.1189 O   0  0  0  0  0  0  0  0  0  0  0  0
   -0.4170    0.3858    2.9541 N   0  0  0  0  0  0  0  0  0  0  0  0
   -1.3850    0.5669    2.7398 H   0  0  0  0  0  0  0  0  0  0  0  0
    0.0265    0.5600    4.3358 C   0  0  0  0  0  0  0  0  0  0  0  0
    0.8964    1.2200    4.3632 H   0  0  0  0  0  0  0  0  0  0  0  0
   -0.7726    0.9946    4.9382 H   0  0  0  0  0  0  0  0  0  0  0  0
    0.3119   -0.4069    4.7547 H   0  0  0  0  0  0  0  0  0  0  0  0
  5  6  2  0  0  0  0
  5  7  1  0  0  0  0
  2  3  1  0  0  0  0
  2  4  1  0  0  0  0
  2  5  1  0  0  0  0
  1  2  1  0  0  0  0
 24 25  2  0  0  0  0
 24 26  1  0  0  0  0
 20 21  1  0  0  0  0
 20 22  1  0  0  0  0
 20 23  1  0  0  0  0
 17 18  1  0  0  0  0
 17 19  1  0  0  0  0
 17 20  1  0  0  0  0
 13 14  1  0  0  0  0
 13 15  1  0  0  0  0
 13 16  1  0  0  0  0
 11 12  1  0  0  0  0
 11 13  1  0  0  0  0
 11 17  1  0  0  0  0
  9 10  1  0  0  0  0
  9 11  1  0  0  0  0
  9 24  1  0  0  0  0
  7  8  1  0  0  0  0
  7  9  1  0  0  0  0
 28 29  1  0  0  0  0
 28 30  1  0  0  0  0
 28 31  1  0  0  0  0
 26 27  1  0  0  0  0
 26 28  1  0  0  0  0
M  END
$$$$
default_name
  -OEChem-02102213163D

 31 30  0     1  0  0  0  0  0999 V2000
   -3.0760   -3.6390    1.5496 H   0  0  0  0  0  0  0  0  0  0  0  0
   -3.0940   -2.6290    1.1426 C   0  0  0  0  0  0  0  0  0  0  0  0
   -3.7160   -1.9930    1.7706 H   0  0  0  0  0  0  0  0  0  0  0  0
   -3.4880   -2.6500    0.1286 H   0  0  0  0  0  0  0  0  0  0  0  0
   -1.6860   -2.0850    1.1196 C   0  0  0  0  0  0  0  0  0  0  0  0
   -0.7540   -2.7700    1.5226 O   0  0  0  0  0  0  0  0  0  0  0  0
   -1.5320   -0.8490    0.6496 N   0  0  0  0  0  0  0  0  0  0  0  0
   -2.3500   -0.3360    0.3566 H   0  0  0  0  0  0  0  0  0  0  0  0
   -0.2470   -0.1410    0.5576 C   0  0  1  0  0  0  0  0  0  0  0  0
    0.4239   -0.7541   -0.0450 H   0  0  0  0  0  0  0  0  0  0  0  0
   -0.4317    1.2160   -0.1683 C   0  0  1  0  0  0  0  0  0  0  0  0
    0.2792    1.9166    0.2738 H   0  0  0  0  0  0  0  0  0  0  0  0
   -0.1236    1.1239   -1.6751 C   0  0  0  0  0  0  0  0  0  0  0  0
   -0.8566    0.4913   -2.1789 H   0  0  0  0  0  0  0  0  0  0  0  0
   -0.1396    2.1150   -2.1257 H   0  0  0  0  0  0  0  0  0  0  0  0
    0.8704    0.7033   -1.8312 H   0  0  0  0  0  0  0  0  0  0  0  0
   -1.8483    1.7845    0.0717 C   0  0  0  0  0  0  0  0  0  0  0  0
   -1.8272    2.8735    0.0121 H   0  0  0  0  0  0  0  0  0  0  0  0
   -2.5124    1.4121   -0.7082 H   0  0  0  0  0  0  0  0  0  0  0  0
   -2.4554    1.3796    1.4218 C   0  0  0  0  0  0  0  0  0  0  0  0
   -1.8883    1.8179    2.2428 H   0  0  0  0  0  0  0  0  0  0  0  0
   -3.4821    1.7420    1.4774 H   0  0  0  0  0  0  0  0  0  0  0  0
   -2.4574    0.2934    1.5192 H   0  0  0  0  0  0  0  0  0  0  0  0
    0.3833   -0.0008    1.9525 C   0  0  0  0  0  0  0  0  0  0  0  0
    1.5803   -0.2304    2.1189 O   0  0  0  0  0  0  0  0  0  0  0  0
   -0.4170    0.3858    2.9541 N   0  0  0  0  0  0  0  0  0  0  0  0
   -1.3850    0.5669    2.7398 H   0  0  0  0  0  0  0  0  0  0  0  0
    0.0265    0.5600    4.3358 C   0  0  0  0  0  0  0  0  0  0  0  0
    0.8964    1.2200    4.3632 H   0  0  0  0  0  0  0  0  0  0  0  0
   -0.7726    0.9946    4.9382 H   0  0  0  0  0  0  0  0  0  0  0  0
    0.3119   -0.4069    4.7547 H   0  0  0  0  0  0  0  0  0  0  0  0
  5  6  2  0  0  0  0
  5  7  1  0  0  0  0
  2  3  1  0  0  0  0
  2  4  1  0  0  0  0
  2  5  1  0  0  0  0
  1  2  1  0  0  0  0
 24 25  2  0  0  0  0
 24 26  1  0  0  0  0
 20 21  1  0  0  0  0
 20 22  1  0  0  0  0
 20 23  1  0  0  0  0
 17 18  1  0  0  0  0
 17 19  1  0  0  0  0
 17 20  1  0  0  0  0
 13 14  1  0  0  0  0
 13 15  1  0  0  0  0
 13 16  1  0  0  0  0
 11 12  1  0  0  0  0
 11 13  1  0  0  0  0
 11 17  1  0  0  0  0
  9 10  1  0  0  0  0
  9 11  1  0  0  0  0
  9 24  1  0  0  0  0
  7  8  1  0  0  0  0
  7  9  1  0  0  0  0
 28 29  1  0  0  0  0
 28 30  1  0  0  0  0
 28 31  1  0  0  0  0
 26 27  1  0  0  0  0
 26 28  1  0  0  0  0
M  END
$$$$
default_name
  -OEChem-02102213163D

 31 30  0     1  0  0  0  0  0999 V2000
   -3.0760   -3.6390    1.5496 H   0  0  0  0  0  0  0  0  0  0  0  0
   -3.0940   -2.6290    1.1426 C   0  0  0  0  0  0  0  0  0  0  0  0
   -3.7160   -1.9930    1.7706 H   0  0  0  0  0  0  0  0  0  0  0  0
   -3.4880   -2.6500    0.1286 H   0  0  0  0  0  0  0  0  0  0  0  0
   -1.6860   -2.0850    1.1196 C   0  0  0  0  0  0  0  0  0  0  0  0
   -0.7540   -2.7700    1.5226 O   0  0  0  0  0  0  0  0  0  0  0  0
   -1.5320   -0.8490    0.6496 N   0  0  0  0  0  0  0  0  0  0  0  0
   -2.3500   -0.3360    0.3566 H   0  0  0  0  0  0  0  0  0  0  0  0
   -0.2470   -0.1410    0.5576 C   0  0  1  0  0  0  0  0  0  0  0  0
    0.4239   -0.7541   -0.0450 H   0  0  0  0  0  0  0  0  0  0  0  0
   -0.4317    1.2160   -0.1683 C   0  0  1  0  0  0  0  0  0  0  0  0
    0.2792    1.9166    0.2738 H   0  0  0  0  0  0  0  0  0  0  0  0
   -0.1236    1.1239   -1.6751 C   0  0  0  0  0  0  0  0  0  0  0  0
   -0.8566    0.4913   -2.1789 H   0  0  0  0  0  0  0  0  0  0  0  0
   -0.1396    2.1150   -2.1257 H   0  0  0  0  0  0  0  0  0  0  0  0
    0.8704    0.7033   -1.8312 H   0  0  0  0  0  0  0  0  0  0  0  0
   -1.8483    1.7845    0.0717 C   0  0  0  0  0  0  0  0  0  0  0  0
   -1.8890    2.8278   -0.2443 H   0  0  0  0  0  0  0  0  0  0  0  0
   -2.5600    1.2174   -0.5281 H   0  0  0  0  0  0  0  0  0  0  0  0
   -2.3091    1.6971    1.5330 C   0  0  0  0  0  0  0  0  0  0  0  0
   -1.6936    2.3351    2.1668 H   0  0  0  0  0  0  0  0  0  0  0  0
   -3.3440    2.0326    1.6042 H   0  0  0  0  0  0  0  0  0  0  0  0
   -2.2461    0.6661    1.8829 H   0  0  0  0  0  0  0  0  0  0  0  0
    0.3833   -0.0008    1.9525 C   0  0  0  0  0  0  0  0  0  0  0  0
    1.5803   -0.2304    2.1189 O   0  0  0  0  0  0  0  0  0  0  0  0
   -0.4170    0.3858    2.9541 N   0  0  0  0  0  0  0  0  0  0  0  0
   -1.3850    0.5669    2.7398 H   0  0  0  0  0  0  0  0  0  0  0  0
    0.0265    0.5600    4.3358 C   0  0  0  0  0  0  0  0  0  0  0  0
    0.8964    1.2200    4.3632 H   0  0  0  0  0  0  0  0  0  0  0  0
   -0.7726    0.9946    4.9382 H   0  0  0  0  0  0  0  0  0  0  0  0
    0.3119   -0.4069    4.7547 H   0  0  0  0  0  0  0  0  0  0  0  0
  5  6  2  0  0  0  0
  5  7  1  0  0  0  0
  2  3  1  0  0  0  0
  2  4  1  0  0  0  0
  2  5  1  0  0  0  0
  1  2  1  0  0  0  0
 24 25  2  0  0  0  0
 24 26  1  0  0  0  0
 20 21  1  0  0  0  0
 20 22  1  0  0  0  0
 20 23  1  0  0  0  0
 17 18  1  0  0  0  0
 17 19  1  0  0  0  0
 17 20  1  0  0  0  0
 13 14  1  0  0  0  0
 13 15  1  0  0  0  0
 13 16  1  0  0  0  0
 11 12  1  0  0  0  0
 11 13  1  0  0  0  0
 11 17  1  0  0  0  0
  9 10  1  0  0  0  0
  9 11  1  0  0  0  0
  9 24  1  0  0  0  0
  7  8  1  0  0  0  0
  7  9  1  0  0  0  0
 28 29  1  0  0  0  0
 28 30  1  0  0  0  0
 28 31  1  0  0  0  0
 26 27  1  0  0  0  0
 26 28  1  0  0  0  0
M  END
$$$$
default_name
  -OEChem-02102213163D

 31 30  0     1  0  0  0  0  0999 V2000
   -3.0760   -3.6390    1.5496 H   0  0  0  0  0  0  0  0  0  0  0  0
   -3.0940   -2.6290    1.1426 C   0  0  0  0  0  0  0  0  0  0  0  0
   -3.7160   -1.9930    1.7706 H   0  0  0  0  0  0  0  0  0  0  0  0
   -3.4880   -2.6500    0.1286 H   0  0  0  0  0  0  0  0  0  0  0  0
   -1.6860   -2.0850    1.1196 C   0  0  0  0  0  0  0  0  0  0  0  0
   -0.7540   -2.7700    1.5226 O   0  0  0  0  0  0  0  0  0  0  0  0
   -1.5320   -0.8490    0.6496 N   0  0  0  0  0  0  0  0  0  0  0  0
   -2.3500   -0.3360    0.3566 H   0  0  0  0  0  0  0  0  0  0  0  0
   -0.2470   -0.1410    0.5576 C   0  0  1  0  0  0  0  0  0  0  0  0
    0.4239   -0.7541   -0.0450 H   0  0  0  0  0  0  0  0  0  0  0  0
   -0.4317    1.2160   -0.1683 C   0  0  1  0  0  0  0  0  0  0  0  0
    0.2792    1.9166    0.2738 H   0  0  0  0  0  0  0  0  0  0  0  0
   -0.1236    1.1239   -1.6751 C   0  0  0  0  0  0  0  0  0  0  0  0
   -0.8566    0.4913   -2.1789 H   0  0  0  0  0  0  0  0  0  0  0  0
   -0.1396    2.1150   -2.1257 H   0  0  0  0  0  0  0  0  0  0  0  0
    0.8704    0.7033   -1.8312 H   0  0  0  0  0  0  0  0  0  0  0  0
   -1.8483    1.7845    0.0717 C   0  0  0  0  0  0  0  0  0  0  0  0
   -1.9713    2.7203   -0.4752 H   0  0  0  0  0  0  0  0  0  0  0  0
   -2.5810    1.0702   -0.3035 H   0  0  0  0  0  0  0  0  0  0  0  0
   -2.1700    2.0360    1.5511 C   0  0  0  0  0  0  0  0  0  0  0  0
   -1.5335    2.8245    1.9521 H   0  0  0  0  0  0  0  0  0  0  0  0
   -3.2102    2.3489    1.6446 H   0  0  0  0  0  0  0  0  0  0  0  0
   -2.0224    1.1209    2.1257 H   0  0  0  0  0  0  0  0  0  0  0  0
    0.3833   -0.0008    1.9525 C   0  0  0  0  0  0  0  0  0  0  0  0
    1.5803   -0.2304    2.1189 O   0  0  0  0  0  0  0  0  0  0  0  0
   -0.4170    0.3858    2.9541 N   0  0  0  0  0  0  0  0  0  0  0  0
   -1.3850    0.5669    2.7398 H   0  0  0  0  0  0  0  0  0  0  0  0
    0.0265    0.5600    4.3358 C   0  0  0  0  0  0  0  0  0  0  0  0
    0.8964    1.2200    4.3632 H   0  0  0  0  0  0  0  0  0  0  0  0
   -0.7726    0.9946    4.9382 H   0  0  0  0  0  0  0  0  0  0  0  0
    0.3119   -0.4069    4.7547 H   0  0  0  0  0  0  0  0  0  0  0  0
  5  6  2  0  0  0  0
  5  7  1  0  0  0  0
  2  3  1  0  0  0  0
  2  4  1  0  0  0  0
  2  5  1  0  0  0  0
  1  2  1  0  0  0  0
 24 25  2  0  0  0  0
 24 26  1  0  0  0  0
 20 21  1  0  0  0  0
 20 22  1  0  0  0  0
 20 23  1  0  0  0  0
 17 18  1  0  0  0  0
 17 19  1  0  0  0  0
 17 20  1  0  0  0  0
 13 14  1  0  0  0  0
 13 15  1  0  0  0  0
 13 16  1  0  0  0  0
 11 12  1  0  0  0  0
 11 13  1  0  0  0  0
 11 17  1  0  0  0  0
  9 10  1  0  0  0  0
  9 11  1  0  0  0  0
  9 24  1  0  0  0  0
  7  8  1  0  0  0  0
  7  9  1  0  0  0  0
 28 29  1  0  0  0  0
 28 30  1  0  0  0  0
 28 31  1  0  0  0  0
 26 27  1  0  0  0  0
 26 28  1  0  0  0  0
M  END
$$$$
default_name
  -OEChem-02102213163D

 31 30  0     1  0  0  0  0  0999 V2000
   -3.0760   -3.6390    1.5496 H   0  0  0  0  0  0  0  0  0  0  0  0
   -3.0940   -2.6290    1.1426 C   0  0  0  0  0  0  0  0  0  0  0  0
   -3.7160   -1.9930    1.7706 H   0  0  0  0  0  0  0  0  0  0  0  0
   -3.4880   -2.6500    0.1286 H   0  0  0  0  0  0  0  0  0  0  0  0
   -1.6860   -2.0850    1.1196 C   0  0  0  0  0  0  0  0  0  0  0  0
   -0.7540   -2.7700    1.5226 O   0  0  0  0  0  0  0  0  0  0  0  0
   -1.5320   -0.8490    0.6496 N   0  0  0  0  0  0  0  0  0  0  0  0
   -2.3500   -0.3360    0.3566 H   0  0  0  0  0  0  0  0  0  0  0  0
   -0.2470   -0.1410    0.5576 C   0  0  1  0  0  0  0  0  0  0  0  0
    0.4239   -0.7541   -0.0450 H   0  0  0  0  0  0  0  0  0  0  0  0
   -0.4317    1.2160   -0.1683 C   0  0  1  0  0  0  0  0  0  0  0  0
    0.2792    1.9166    0.2738 H   0  0  0  0  0  0  0  0  0  0  0  0
   -0.1236    1.1239   -1.6751 C   0  0  0  0  0  0  0  0  0  0  0  0
   -0.8566    0.4913   -2.1789 H   0  0  0  0  0  0  0  0  0  0  0  0
   -0.1396    2.1150   -2.1257 H   0  0  0  0  0  0  0  0  0  0  0  0
    0.8704    0.7033   -1.8312 H   0  0  0  0  0  0  0  0  0  0  0  0
   -1.8483    1.7845    0.0717 C   0  0  0  0  0  0  0  0  0  0  0  0
   -2.0684    2.5583   -0.6649 H   0  0  0  0  0  0  0  0  0  0  0  0
   -2.5740    0.9804   -0.0495 H   0  0  0  0  0  0  0  0  0  0  0  0
   -2.0476    2.3732    1.4750 C   0  0  0  0  0  0  0  0  0  0  0  0
   -1.4190    3.2528    1.6133 H   0  0  0  0  0  0  0  0  0  0  0  0
   -3.0898    2.6695    1.5958 H   0  0  0  0  0  0  0  0  0  0  0  0
   -1.8015    1.6268    2.2310 H   0  0  0  0  0  0  0  0  0  0  0  0
    0.3833   -0.0008    1.9525 C   0  0  0  0  0  0  0  0  0  0  0  0
    1.5803   -0.2304    2.1189 O   0  0  0  0  0  0  0  0  0  0  0  0
   -0.4170    0.3858    2.9541 N   0  0  0  0  0  0  0  0  0  0  0  0
   -1.3850    0.5669    2.7398 H   0  0  0  0  0  0  0  0  0  0  0  0
    0.0265    0.5600    4.3358 C   0  0  0  0  0  0  0  0  0  0  0  0
    0.8964    1.2200    4.3632 H   0  0  0  0  0  0  0  0  0  0  0  0
   -0.7726    0.9946    4.9382 H   0  0  0  0  0  0  0  0  0  0  0  0
    0.3119   -0.4069    4.7547 H   0  0  0  0  0  0  0  0  0  0  0  0
  5  6  2  0  0  0  0
  5  7  1  0  0  0  0
  2  3  1  0  0  0  0
  2  4  1  0  0  0  0
  2  5  1  0  0  0  0
  1  2  1  0  0  0  0
 24 25  2  0  0  0  0
 24 26  1  0  0  0  0
 20 21  1  0  0  0  0
 20 22  1  0  0  0  0
 20 23  1  0  0  0  0
 17 18  1  0  0  0  0
 17 19  1  0  0  0  0
 17 20  1  0  0  0  0
 13 14  1  0  0  0  0
 13 15  1  0  0  0  0
 13 16  1  0  0  0  0
 11 12  1  0  0  0  0
 11 13  1  0  0  0  0
 11 17  1  0  0  0  0
  9 10  1  0  0  0  0
  9 11  1  0  0  0  0
  9 24  1  0  0  0  0
  7  8  1  0  0  0  0
  7  9  1  0  0  0  0
 28 29  1  0  0  0  0
 28 30  1  0  0  0  0
 28 31  1  0  0  0  0
 26 27  1  0  0  0  0
 26 28  1  0  0  0  0
M  END
$$$$
default_name
  -OEChem-02102213163D

 31 30  0     1  0  0  0  0  0999 V2000
   -3.0760   -3.6390    1.5496 H   0  0  0  0  0  0  0  0  0  0  0  0
   -3.0940   -2.6290    1.1426 C   0  0  0  0  0  0  0  0  0  0  0  0
   -3.7160   -1.9930    1.7706 H   0  0  0  0  0  0  0  0  0  0  0  0
   -3.4880   -2.6500    0.1286 H   0  0  0  0  0  0  0  0  0  0  0  0
   -1.6860   -2.0850    1.1196 C   0  0  0  0  0  0  0  0  0  0  0  0
   -0.7540   -2.7700    1.5226 O   0  0  0  0  0  0  0  0  0  0  0  0
   -1.5320   -0.8490    0.6496 N   0  0  0  0  0  0  0  0  0  0  0  0
   -2.3500   -0.3360    0.3566 H   0  0  0  0  0  0  0  0  0  0  0  0
   -0.2470   -0.1410    0.5576 C   0  0  1  0  0  0  0  0  0  0  0  0
    0.4239   -0.7541   -0.0450 H   0  0  0  0  0  0  0  0  0  0  0  0
   -0.4317    1.2160   -0.1683 C   0  0  1  0  0  0  0  0  0  0  0  0
    0.2792    1.9166    0.2738 H   0  0  0  0  0  0  0  0  0  0  0  0
   -0.1236    1.1239   -1.6751 C   0  0  0  0  0  0  0  0  0  0  0  0
   -0.8566    0.4913   -2.1789 H   0  0  0  0  0  0  0  0  0  0  0  0
   -0.1396    2.1150   -2.1257 H   0  0  0  0  0  0  0  0  0  0  0  0
    0.8704    0.7033   -1.8312 H   0  0  0  0  0  0  0  0  0  0  0  0
   -1.8483    1.7845    0.0717 C   0  0  0  0  0  0  0  0  0  0  0  0
   -2.1738    2.3530   -0.8005 H   0  0  0  0  0  0  0  0  0  0  0  0
   -2.5395    0.9543    0.2164 H   0  0  0  0  0  0  0  0  0  0  0  0
   -1.9501    2.6858    1.3097 C   0  0  0  0  0  0  0  0  0  0  0  0
   -1.3580    3.5906    1.1736 H   0  0  0  0  0  0  0  0  0  0  0  0
   -2.9911    2.9723    1.4611 H   0  0  0  0  0  0  0  0  0  0  0  0
   -1.5985    2.1494    2.1917 H   0  0  0  0  0  0  0  0  0  0  0  0
    0.3833   -0.0008    1.9525 C   0  0  0  0  0  0  0  0  0  0  0  0
    1.5803   -0.2304    2.1189 O   0  0  0  0  0  0  0  0  0  0  0  0
   -0.4170    0.3858    2.9541 N   0  0  0  0  0  0  0  0  0  0  0  0
   -1.3850    0.5669    2.7398 H   0  0  0  0  0  0  0  0  0  0  0  0
    0.0265    0.5600    4.3358 C   0  0  0  0  0  0  0  0  0  0  0  0
    0.8964    1.2200    4.3632 H   0  0  0  0  0  0  0  0  0  0  0  0
   -0.7726    0.9946    4.9382 H   0  0  0  0  0  0  0  0  0  0  0  0
    0.3119   -0.4069    4.7547 H   0  0  0  0  0  0  0  0  0  0  0  0
  5  6  2  0  0  0  0
  5  7  1  0  0  0  0
  2  3  1  0  0  0  0
  2  4  1  0  0  0  0
  2  5  1  0  0  0  0
  1  2  1  0  0  0  0
 24 25  2  0  0  0  0
 24 26  1  0  0  0  0
 20 21  1  0  0  0  0
 20 22  1  0  0  0  0
 20 23  1  0  0  0  0
 17 18  1  0  0  0  0
 17 19  1  0  0  0  0
 17 20  1  0  0  0  0
 13 14  1  0  0  0  0
 13 15  1  0  0  0  0
 13 16  1  0  0  0  0
 11 12  1  0  0  0  0
 11 13  1  0  0  0  0
 11 17  1  0  0  0  0
  9 10  1  0  0  0  0
  9 11  1  0  0  0  0
  9 24  1  0  0  0  0
  7  8  1  0  0  0  0
  7  9  1  0  0  0  0
 28 29  1  0  0  0  0
 28 30  1  0  0  0  0
 28 31  1  0  0  0  0
 26 27  1  0  0  0  0
 26 28  1  0  0  0  0
M  END
$$$$
default_name
  -OEChem-02102213163D

 31 30  0     1  0  0  0  0  0999 V2000
   -3.0760   -3.6390    1.5496 H   0  0  0  0  0  0  0  0  0  0  0  0
   -3.0940   -2.6290    1.1426 C   0  0  0  0  0  0  0  0  0  0  0  0
   -3.7160   -1.9930    1.7706 H   0  0  0  0  0  0  0  0  0  0  0  0
   -3.4880   -2.6500    0.1286 H   0  0  0  0  0  0  0  0  0  0  0  0
   -1.6860   -2.0850    1.1196 C   0  0  0  0  0  0  0  0  0  0  0  0
   -0.7540   -2.7700    1.5226 O   0  0  0  0  0  0  0  0  0  0  0  0
   -1.5320   -0.8490    0.6496 N   0  0  0  0  0  0  0  0  0  0  0  0
   -2.3500   -0.3360    0.3566 H   0  0  0  0  0  0  0  0  0  0  0  0
   -0.2470   -0.1410    0.5576 C   0  0  1  0  0  0  0  0  0  0  0  0
    0.4239   -0.7541   -0.0450 H   0  0  0  0  0  0  0  0  0  0  0  0
   -0.4317    1.2160   -0.1683 C   0  0  1  0  0  0  0  0  0  0  0  0
    0.2792    1.9166    0.2738 H   0  0  0  0  0  0  0  0  0  0  0  0
   -0.1236    1.1239   -1.6751 C   0  0  0  0  0  0  0  0  0  0  0  0
   -0.8566    0.4913   -2.1789 H   0  0  0  0  0  0  0  0  0  0  0  0
   -0.1396    2.1150   -2.1257 H   0  0  0  0  0  0  0  0  0  0  0  0
    0.8704    0.7033   -1.8312 H   0  0  0  0  0  0  0  0  0  0  0  0
   -1.8483    1.7845    0.0717 C   0  0  0  0  0  0  0  0  0  0  0  0
   -2.2803    2.1183   -0.8726 H   0  0  0  0  0  0  0  0  0  0  0  0
   -2.4797    0.9935    0.4761 H   0  0  0  0  0  0  0  0  0  0  0  0
   -1.8843    2.9525    1.0666 C   0  0  0  0  0  0  0  0  0  0  0  0
   -1.3544    3.8151    0.6629 H   0  0  0  0  0  0  0  0  0  0  0  0
   -2.9207    3.2369    1.2498 H   0  0  0  0  0  0  0  0  0  0  0  0
   -1.4271    2.6529    2.0103 H   0  0  0  0  0  0  0  0  0  0  0  0
    0.3833   -0.0008    1.9525 C   0  0  0  0  0  0  0  0  0  0  0  0
    1.5803   -0.2304    2.1189 O   0  0  0  0  0  0  0  0  0  0  0  0
   -0.4170    0.3858    2.9541 N   0  0  0  0  0  0  0  0  0  0  0  0
   -1.3850    0.5669    2.7398 H   0  0  0  0  0  0  0  0  0  0  0  0
    0.0265    0.5600    4.3358 C   0  0  0  0  0  0  0  0  0  0  0  0
    0.8964    1.2200    4.3632 H   0  0  0  0  0  0  0  0  0  0  0  0
   -0.7726    0.9946    4.9382 H   0  0  0  0  0  0  0  0  0  0  0  0
    0.3119   -0.4069    4.7547 H   0  0  0  0  0  0  0  0  0  0  0  0
  5  6  2  0  0  0  0
  5  7  1  0  0  0  0
  2  3  1  0  0  0  0
  2  4  1  0  0  0  0
  2  5  1  0  0  0  0
  1  2  1  0  0  0  0
 24 25  2  0  0  0  0
 24 26  1  0  0  0  0
 20 21  1  0  0  0  0
 20 22  1  0  0  0  0
 20 23  1  0  0  0  0
 17 18  1  0  0  0  0
 17 19  1  0  0  0  0
 17 20  1  0  0  0  0
 13 14  1  0  0  0  0
 13 15  1  0  0  0  0
 13 16  1  0  0  0  0
 11 12  1  0  0  0  0
 11 13  1  0  0  0  0
 11 17  1  0  0  0  0
  9 10  1  0  0  0  0
  9 11  1  0  0  0  0
  9 24  1  0  0  0  0
  7  8  1  0  0  0  0
  7  9  1  0  0  0  0
 28 29  1  0  0  0  0
 28 30  1  0  0  0  0
 28 31  1  0  0  0  0
 26 27  1  0  0  0  0
 26 28  1  0  0  0  0
M  END
$$$$
default_name
  -OEChem-02102213163D

 31 30  0     1  0  0  0  0  0999 V2000
   -3.0760   -3.6390    1.5496 H   0  0  0  0  0  0  0  0  0  0  0  0
   -3.0940   -2.6290    1.1426 C   0  0  0  0  0  0  0  0  0  0  0  0
   -3.7160   -1.9930    1.7706 H   0  0  0  0  0  0  0  0  0  0  0  0
   -3.4880   -2.6500    0.1286 H   0  0  0  0  0  0  0  0  0  0  0  0
   -1.6860   -2.0850    1.1196 C   0  0  0  0  0  0  0  0  0  0  0  0
   -0.7540   -2.7700    1.5226 O   0  0  0  0  0  0  0  0  0  0  0  0
   -1.5320   -0.8490    0.6496 N   0  0  0  0  0  0  0  0  0  0  0  0
   -2.3500   -0.3360    0.3566 H   0  0  0  0  0  0  0  0  0  0  0  0
   -0.2470   -0.1410    0.5576 C   0  0  1  0  0  0  0  0  0  0  0  0
    0.4239   -0.7541   -0.0450 H   0  0  0  0  0  0  0  0  0  0  0  0
   -0.4317    1.2160   -0.1683 C   0  0  1  0  0  0  0  0  0  0  0  0
    0.2792    1.9166    0.2738 H   0  0  0  0  0  0  0  0  0  0  0  0
   -0.1236    1.1239   -1.6751 C   0  0  0  0  0  0  0  0  0  0  0  0
   -0.8566    0.4913   -2.1789 H   0  0  0  0  0  0  0  0  0  0  0  0
   -0.1396    2.1150   -2.1257 H   0  0  0  0  0  0  0  0  0  0  0  0
    0.8704    0.7033   -1.8312 H   0  0  0  0  0  0  0  0  0  0  0  0
   -1.8483    1.7845    0.0717 C   0  0  0  0  0  0  0  0  0  0  0  0
   -2.3806    1.8701   -0.8765 H   0  0  0  0  0  0  0  0  0  0  0  0
   -2.3988    1.0954    0.7120 H   0  0  0  0  0  0  0  0  0  0  0  0
   -1.8545    3.1551    0.7623 C   0  0  0  0  0  0  0  0  0  0  0  0
   -1.4087    3.9108    0.1159 H   0  0  0  0  0  0  0  0  0  0  0  0
   -2.8835    3.4451    0.9762 H   0  0  0  0  0  0  0  0  0  0  0  0
   -1.2991    3.1032    1.6994 H   0  0  0  0  0  0  0  0  0  0  0  0
    0.3833   -0.0008    1.9525 C   0  0  0  0  0  0  0  0  0  0  0  0
    1.5803   -0.2304    2.1189 O   0  0  0  0  0  0  0  0  0  0  0  0
   -0.4170    0.3858    2.9541 N   0  0  0  0  0  0  0  0  0  0  0  0
   -1.3850    0.5669    2.7398 H   0  0  0  0  0  0  0  0  0  0  0  0
    0.0265    0.5600    4.3358 C   0  0  0  0  0  0  0  0  0  0  0  0
    0.8964    1.2200    4.3632 H   0  0  0  0  0  0  0  0  0  0  0  0
   -0.7726    0.9946    4.9382 H   0  0  0  0  0  0  0  0  0  0  0  0
    0.3119   -0.4069    4.7547 H   0  0  0  0  0  0  0  0  0  0  0  0
  5  6  2  0  0  0  0
  5  7  1  0  0  0  0
  2  3  1  0  0  0  0
  2  4  1  0  0  0  0
  2  5  1  0  0  0  0
  1  2  1  0  0  0  0
 24 25  2  0  0  0  0
 24 26  1  0  0  0  0
 20 21  1  0  0  0  0
 20 22  1  0  0  0  0
 20 23  1  0  0  0  0
 17 18  1  0  0  0  0
 17 19  1  0  0  0  0
 17 20  1  0  0  0  0
 13 14  1  0  0  0  0
 13 15  1  0  0  0  0
 13 16  1  0  0  0  0
 11 12  1  0  0  0  0
 11 13  1  0  0  0  0
 11 17  1  0  0  0  0
  9 10  1  0  0  0  0
  9 11  1  0  0  0  0
  9 24  1  0  0  0  0
  7  8  1  0  0  0  0
  7  9  1  0  0  0  0
 28 29  1  0  0  0  0
 28 30  1  0  0  0  0
 28 31  1  0  0  0  0
 26 27  1  0  0  0  0
 26 28  1  0  0  0  0
M  END
$$$$
default_name
  -OEChem-02102213163D

 31 30  0     1  0  0  0  0  0999 V2000
   -3.0760   -3.6390    1.5496 H   0  0  0  0  0  0  0  0  0  0  0  0
   -3.0940   -2.6290    1.1426 C   0  0  0  0  0  0  0  0  0  0  0  0
   -3.7160   -1.9930    1.7706 H   0  0  0  0  0  0  0  0  0  0  0  0
   -3.4880   -2.6500    0.1286 H   0  0  0  0  0  0  0  0  0  0  0  0
   -1.6860   -2.0850    1.1196 C   0  0  0  0  0  0  0  0  0  0  0  0
   -0.7540   -2.7700    1.5226 O   0  0  0  0  0  0  0  0  0  0  0  0
   -1.5320   -0.8490    0.6496 N   0  0  0  0  0  0  0  0  0  0  0  0
   -2.3500   -0.3360    0.3566 H   0  0  0  0  0  0  0  0  0  0  0  0
   -0.2470   -0.1410    0.5576 C   0  0  1  0  0  0  0  0  0  0  0  0
    0.4239   -0.7541   -0.0450 H   0  0  0  0  0  0  0  0  0  0  0  0
   -0.4317    1.2160   -0.1683 C   0  0  1  0  0  0  0  0  0  0  0  0
    0.2792    1.9166    0.2738 H   0  0  0  0  0  0  0  0  0  0  0  0
   -0.1236    1.1239   -1.6751 C   0  0  0  0  0  0  0  0  0  0  0  0
   -0.8566    0.4913   -2.1789 H   0  0  0  0  0  0  0  0  0  0  0  0
   -0.1396    2.1150   -2.1257 H   0  0  0  0  0  0  0  0  0  0  0  0
    0.8704    0.7033   -1.8312 H   0  0  0  0  0  0  0  0  0  0  0  0
   -1.8483    1.7845    0.0717 C   0  0  0  0  0  0  0  0  0  0  0  0
   -2.4678    1.6254   -0.8119 H   0  0  0  0  0  0  0  0  0  0  0  0
   -2.3023    1.2531    0.9080 H   0  0  0  0  0  0  0  0  0  0  0  0
   -1.8629    3.2797    0.4174 C   0  0  0  0  0  0  0  0  0  0  0  0
   -1.5170    3.8714   -0.4299 H   0  0  0  0  0  0  0  0  0  0  0  0
   -2.8820    3.5828    0.6589 H   0  0  0  0  0  0  0  0  0  0  0  0
   -1.2231    3.4695    1.2799 H   0  0  0  0  0  0  0  0  0  0  0  0
    0.3833   -0.0008    1.9525 C   0  0  0  0  0  0  0  0  0  0  0  0
    1.5803   -0.2304    2.1189 O   0  0  0  0  0  0  0  0  0  0  0  0
   -0.4170    0.3858    2.9541 N   0  0  0  0  0  0  0  0  0  0  0  0
   -1.3850    0.5669    2.7398 H   0  0  0  0  0  0  0  0  0  0  0  0
    0.0265    0.5600    4.3358 C   0  0  0  0  0  0  0  0  0  0  0  0
    0.8964    1.2200    4.3632 H   0  0  0  0  0  0  0  0  0  0  0  0
   -0.7726    0.9946    4.9382 H   0  0  0  0  0  0  0  0  0  0  0  0
    0.3119   -0.4069    4.7547 H   0  0  0  0  0  0  0  0  0  0  0  0
  5  6  2  0  0  0  0
  5  7  1  0  0  0  0
  2  3  1  0  0  0  0
  2  4  1  0  0  0  0
  2  5  1  0  0  0  0
  1  2  1  0  0  0  0
 24 25  2  0  0  0  0
 24 26  1  0  0  0  0
 20 21  1  0  0  0  0
 20 22  1  0  0  0  0
 20 23  1  0  0  0  0
 17 18  1  0  0  0  0
 17 19  1  0  0  0  0
 17 20  1  0  0  0  0
 13 14  1  0  0  0  0
 13 15  1  0  0  0  0
 13 16  1  0  0  0  0
 11 12  1  0  0  0  0
 11 13  1  0  0  0  0
 11 17  1  0  0  0  0
  9 10  1  0  0  0  0
  9 11  1  0  0  0  0
  9 24  1  0  0  0  0
  7  8  1  0  0  0  0
  7  9  1  0  0  0  0
 28 29  1  0  0  0  0
 28 30  1  0  0  0  0
 28 31  1  0  0  0  0
 26 27  1  0  0  0  0
 26 28  1  0  0  0  0
M  END
$$$$
default_name
  -OEChem-02102213163D

 31 30  0     1  0  0  0  0  0999 V2000
   -3.0760   -3.6390    1.5496 H   0  0  0  0  0  0  0  0  0  0  0  0
   -3.0940   -2.6290    1.1426 C   0  0  0  0  0  0  0  0  0  0  0  0
   -3.7160   -1.9930    1.7706 H   0  0  0  0  0  0  0  0  0  0  0  0
   -3.4880   -2.6500    0.1286 H   0  0  0  0  0  0  0  0  0  0  0  0
   -1.6860   -2.0850    1.1196 C   0  0  0  0  0  0  0  0  0  0  0  0
   -0.7540   -2.7700    1.5226 O   0  0  0  0  0  0  0  0  0  0  0  0
   -1.5320   -0.8490    0.6496 N   0  0  0  0  0  0  0  0  0  0  0  0
   -2.3500   -0.3360    0.3566 H   0  0  0  0  0  0  0  0  0  0  0  0
   -0.2470   -0.1410    0.5576 C   0  0  1  0  0  0  0  0  0  0  0  0
    0.4239   -0.7541   -0.0450 H   0  0  0  0  0  0  0  0  0  0  0  0
   -0.4317    1.2160   -0.1683 C   0  0  1  0  0  0  0  0  0  0  0  0
    0.2792    1.9166    0.2738 H   0  0  0  0  0  0  0  0  0  0  0  0
   -0.1236    1.1239   -1.6751 C   0  0  0  0  0  0  0  0  0  0  0  0
   -0.8566    0.4913   -2.1789 H   0  0  0  0  0  0  0  0  0  0  0  0
   -0.1396    2.1150   -2.1257 H   0  0  0  0  0  0  0  0  0  0  0  0
    0.8704    0.7033   -1.8312 H   0  0  0  0  0  0  0  0  0  0  0  0
   -1.8483    1.7845    0.0717 C   0  0  0  0  0  0  0  0  0  0  0  0
   -2.5361    1.4010   -0.6830 H   0  0  0  0  0  0  0  0  0  0  0  0
   -2.1968    1.4557    1.0507 H   0  0  0  0  0  0  0  0  0  0  0  0
   -1.9089    3.3179    0.0556 C   0  0  0  0  0  0  0  0  0  0  0  0
   -1.6720    3.6994   -0.9375 H   0  0  0  0  0  0  0  0  0  0  0  0
   -2.9163    3.6407    0.3197 H   0  0  0  0  0  0  0  0  0  0  0  0
   -1.2044    3.7268    0.7807 H   0  0  0  0  0  0  0  0  0  0  0  0
    0.3833   -0.0008    1.9525 C   0  0  0  0  0  0  0  0  0  0  0  0
    1.5803   -0.2304    2.1189 O   0  0  0  0  0  0  0  0  0  0  0  0
   -0.4170    0.3858    2.9541 N   0  0  0  0  0  0  0  0  0  0  0  0
   -1.3850    0.5669    2.7398 H   0  0  0  0  0  0  0  0  0  0  0  0
    0.0265    0.5600    4.3358 C   0  0  0  0  0  0  0  0  0  0  0  0
    0.8964    1.2200    4.3632 H   0  0  0  0  0  0  0  0  0  0  0  0
   -0.7726    0.9946    4.9382 H   0  0  0  0  0  0  0  0  0  0  0  0
    0.3119   -0.4069    4.7547 H   0  0  0  0  0  0  0  0  0  0  0  0
  5  6  2  0  0  0  0
  5  7  1  0  0  0  0
  2  3  1  0  0  0  0
  2  4  1  0  0  0  0
  2  5  1  0  0  0  0
  1  2  1  0  0  0  0
 24 25  2  0  0  0  0
 24 26  1  0  0  0  0
 20 21  1  0  0  0  0
 20 22  1  0  0  0  0
 20 23  1  0  0  0  0
 17 18  1  0  0  0  0
 17 19  1  0  0  0  0
 17 20  1  0  0  0  0
 13 14  1  0  0  0  0
 13 15  1  0  0  0  0
 13 16  1  0  0  0  0
 11 12  1  0  0  0  0
 11 13  1  0  0  0  0
 11 17  1  0  0  0  0
  9 10  1  0  0  0  0
  9 11  1  0  0  0  0
  9 24  1  0  0  0  0
  7  8  1  0  0  0  0
  7  9  1  0  0  0  0
 28 29  1  0  0  0  0
 28 30  1  0  0  0  0
 28 31  1  0  0  0  0
 26 27  1  0  0  0  0
 26 28  1  0  0  0  0
M  END
$$$$
default_name
  -OEChem-02102213163D

 31 30  0     1  0  0  0  0  0999 V2000
   -3.0760   -3.6390    1.5496 H   0  0  0  0  0  0  0  0  0  0  0  0
   -3.0940   -2.6290    1.1426 C   0  0  0  0  0  0  0  0  0  0  0  0
   -3.7160   -1.9930    1.7706 H   0  0  0  0  0  0  0  0  0  0  0  0
   -3.4880   -2.6500    0.1286 H   0  0  0  0  0  0  0  0  0  0  0  0
   -1.6860   -2.0850    1.1196 C   0  0  0  0  0  0  0  0  0  0  0  0
   -0.7540   -2.7700    1.5226 O   0  0  0  0  0  0  0  0  0  0  0  0
   -1.5320   -0.8490    0.6496 N   0  0  0  0  0  0  0  0  0  0  0  0
   -2.3500   -0.3360    0.3566 H   0  0  0  0  0  0  0  0  0  0  0  0
   -0.2470   -0.1410    0.5576 C   0  0  1  0  0  0  0  0  0  0  0  0
    0.4239   -0.7541   -0.0450 H   0  0  0  0  0  0  0  0  0  0  0  0
   -0.4317    1.2160   -0.1683 C   0  0  1  0  0  0  0  0  0  0  0  0
    0.2792    1.9166    0.2738 H   0  0  0  0  0  0  0  0  0  0  0  0
   -0.1236    1.1239   -1.6751 C   0  0  0  0  0  0  0  0  0  0  0  0
   -0.8566    0.4913   -2.1789 H   0  0  0  0  0  0  0  0  0  0  0  0
   -0.1396    2.1150   -2.1257 H   0  0  0  0  0  0  0  0  0  0  0  0
    0.8704    0.7033   -1.8312 H   0  0  0  0  0  0  0  0  0  0  0  0
   -1.8483    1.7845    0.0717 C   0  0  0  0  0  0  0  0  0  0  0  0
   -2.5807    1.2120   -0.4988 H   0  0  0  0  0  0  0  0  0  0  0  0
   -2.0894    1.6896    1.1304 H   0  0  0  0  0  0  0  0  0  0  0  0
   -1.9893    3.2672   -0.2987 C   0  0  0  0  0  0  0  0  0  0  0  0
   -1.8632    3.4066   -1.3722 H   0  0  0  0  0  0  0  0  0  0  0  0
   -2.9840    3.6146   -0.0185 H   0  0  0  0  0  0  0  0  0  0  0  0
   -1.2443    3.8577    0.2356 H   0  0  0  0  0  0  0  0  0  0  0  0
    0.3833   -0.0008    1.9525 C   0  0  0  0  0  0  0  0  0  0  0  0
    1.5803   -0.2304    2.1189 O   0  0  0  0  0  0  0  0  0  0  0  0
   -0.4170    0.3858    2.9541 N   0  0  0  0  0  0  0  0  0  0  0  0
   -1.3850    0.5669    2.7398 H   0  0  0  0  0  0  0  0  0  0  0  0
    0.0265    0.5600    4.3358 C   0  0  0  0  0  0  0  0  0  0  0  0
    0.8964    1.2200    4.3632 H   0  0  0  0  0  0  0  0  0  0  0  0
   -0.7726    0.9946    4.9382 H   0  0  0  0  0  0  0  0  0  0  0  0
    0.3119   -0.4069    4.7547 H   0  0  0  0  0  0  0  0  0  0  0  0
  5  6  2  0  0  0  0
  5  7  1  0  0  0  0
  2  3  1  0  0  0  0
  2  4  1  0  0  0  0
  2  5  1  0  0  0  0
  1  2  1  0  0  0  0
 24 25  2  0  0  0  0
 24 26  1  0  0  0  0
 20 21  1  0  0  0  0
 20 22  1  0  0  0  0
 20 23  1  0  0  0  0
 17 18  1  0  0  0  0
 17 19  1  0  0  0  0
 17 20  1  0  0  0  0
 13 14  1  0  0  0  0
 13 15  1  0  0  0  0
 13 16  1  0  0  0  0
 11 12  1  0  0  0  0
 11 13  1  0  0  0  0
 11 17  1  0  0  0  0
  9 10  1  0  0  0  0
  9 11  1  0  0  0  0
  9 24  1  0  0  0  0
  7  8  1  0  0  0  0
  7  9  1  0  0  0  0
 28 29  1  0  0  0  0
 28 30  1  0  0  0  0
 28 31  1  0  0  0  0
 26 27  1  0  0  0  0
 26 28  1  0  0  0  0
M  END
$$$$
default_name
  -OEChem-02102213163D

 31 30  0     1  0  0  0  0  0999 V2000
   -3.0760   -3.6390    1.5496 H   0  0  0  0  0  0  0  0  0  0  0  0
   -3.0940   -2.6290    1.1426 C   0  0  0  0  0  0  0  0  0  0  0  0
   -3.7160   -1.9930    1.7706 H   0  0  0  0  0  0  0  0  0  0  0  0
   -3.4880   -2.6500    0.1286 H   0  0  0  0  0  0  0  0  0  0  0  0
   -1.6860   -2.0850    1.1196 C   0  0  0  0  0  0  0  0  0  0  0  0
   -0.7540   -2.7700    1.5226 O   0  0  0  0  0  0  0  0  0  0  0  0
   -1.5320   -0.8490    0.6496 N   0  0  0  0  0  0  0  0  0  0  0  0
   -2.3500   -0.3360    0.3566 H   0  0  0  0  0  0  0  0  0  0  0  0
   -0.2470   -0.1410    0.5576 C   0  0  1  0  0  0  0  0  0  0  0  0
    0.4239   -0.7541   -0.0450 H   0  0  0  0  0  0  0  0  0  0  0  0
   -0.4317    1.2160   -0.1683 C   0  0  1  0  0  0  0  0  0  0  0  0
    0.4388    1.8298    0.0710 H   0  0  0  0  0  0  0  0  0  0  0  0
   -0.4891    1.0608   -1.7001 C   0  0  0  0  0  0  0  0  0  0  0  0
   -1.3870    0.5162   -1.9974 H   0  0  0  0  0  0  0  0  0  0  0  0
   -0.4909    2.0384   -2.1795 H   0  0  0  0  0  0  0  0  0  0  0  0
    0.3864    0.5169   -2.0566 H   0  0  0  0  0  0  0  0  0  0  0  0
   -1.6789    1.9608    0.3582 C   0  0  0  0  0  0  0  0  0  0  0  0
   -2.5666    1.3411    0.2243 H   0  0  0  0  0  0  0  0  0  0  0  0
   -1.5509    2.1492    1.4241 H   0  0  0  0  0  0  0  0  0  0  0  0
   -1.9209    3.3159   -0.3204 C   0  0  0  0  0  0  0  0  0  0  0  0
   -2.1618    3.1782   -1.3743 H   0  0  0  0  0  0  0  0  0  0  0  0
   -2.7596    3.8160    0.1644 H   0  0  0  0  0  0  0  0  0  0  0  0
   -1.0334    3.9430   -0.2283 H   0  0  0  0  0  0  0  0  0  0  0  0
    0.3833   -0.0008    1.9525 C   0  0  0  0  0  0  0  0  0  0  0  0
    1.5803   -0.2304    2.1189 O   0  0  0  0  0  0  0  0  0  0  0  0
   -0.4170    0.3858    2.9541 N   0  0  0  0  0  0  0  0  0  0  0  0
   -1.3850    0.5669    2.7398 H   0  0  0  0  0  0  0  0  0  0  0  0
    0.0265    0.5600    4.3358 C   0  0  0  0  0  0  0  0  0  0  0  0
    0.8964    1.2200    4.3632 H   0  0  0  0  0  0  0  0  0  0  0  0
   -0.7726    0.9946    4.9382 H   0  0  0  0  0  0  0  0  0  0  0  0
    0.3119   -0.4069    4.7547 H   0  0  0  0  0  0  0  0  0  0  0  0
  5  6  2  0  0  0  0
  5  7  1  0  0  0  0
  2  3  1  0  0  0  0
  2  4  1  0  0  0  0
  2  5  1  0  0  0  0
  1  2  1  0  0  0  0
 24 25  2  0  0  0  0
 24 26  1  0  0  0  0
 20 21  1  0  0  0  0
 20 22  1  0  0  0  0
 20 23  1  0  0  0  0
 17 18  1  0  0  0  0
 17 19  1  0  0  0  0
 17 20  1  0  0  0  0
 13 14  1  0  0  0  0
 13 15  1  0  0  0  0
 13 16  1  0  0  0  0
 11 12  1  0  0  0  0
 11 13  1  0  0  0  0
 11 17  1  0  0  0  0
  9 10  1  0  0  0  0
  9 11  1  0  0  0  0
  9 24  1  0  0  0  0
  7  8  1  0  0  0  0
  7  9  1  0  0  0  0
 28 29  1  0  0  0  0
 28 30  1  0  0  0  0
 28 31  1  0  0  0  0
 26 27  1  0  0  0  0
 26 28  1  0  0  0  0
M  END
$$$$
default_name
  -OEChem-02102213163D

 31 30  0     1  0  0  0  0  0999 V2000
   -3.0760   -3.6390    1.5496 H   0  0  0  0  0  0  0  0  0  0  0  0
   -3.0940   -2.6290    1.1426 C   0  0  0  0  0  0  0  0  0  0  0  0
   -3.7160   -1.9930    1.7706 H   0  0  0  0  0  0  0  0  0  0  0  0
   -3.4880   -2.6500    0.1286 H   0  0  0  0  0  0  0  0  0  0  0  0
   -1.6860   -2.0850    1.1196 C   0  0  0  0  0  0  0  0  0  0  0  0
   -0.7540   -2.7700    1.5226 O   0  0  0  0  0  0  0  0  0  0  0  0
   -1.5320   -0.8490    0.6496 N   0  0  0  0  0  0  0  0  0  0  0  0
   -2.3500   -0.3360    0.3566 H   0  0  0  0  0  0  0  0  0  0  0  0
   -0.2470   -0.1410    0.5576 C   0  0  1  0  0  0  0  0  0  0  0  0
    0.4239   -0.7541   -0.0450 H   0  0  0  0  0  0  0  0  0  0  0  0
   -0.4317    1.2160   -0.1683 C   0  0  1  0  0  0  0  0  0  0  0  0
    0.4388    1.8298    0.0710 H   0  0  0  0  0  0  0  0  0  0  0  0
   -0.4891    1.0608   -1.7001 C   0  0  0  0  0  0  0  0  0  0  0  0
   -1.3870    0.5162   -1.9974 H   0  0  0  0  0  0  0  0  0  0  0  0
   -0.4909    2.0384   -2.1795 H   0  0  0  0  0  0  0  0  0  0  0  0
    0.3864    0.5169   -2.0566 H   0  0  0  0  0  0  0  0  0  0  0  0
   -1.6789    1.9608    0.3582 C   0  0  0  0  0  0  0  0  0  0  0  0
   -2.5086    1.2621    0.4734 H   0  0  0  0  0  0  0  0  0  0  0  0
   -1.4485    2.3825    1.3365 H   0  0  0  0  0  0  0  0  0  0  0  0
   -2.1338    3.1168   -0.5430 C   0  0  0  0  0  0  0  0  0  0  0  0
   -2.4794    2.7385   -1.5048 H   0  0  0  0  0  0  0  0  0  0  0  0
   -2.9573    3.6450   -0.0620 H   0  0  0  0  0  0  0  0  0  0  0  0
   -1.3098    3.8137   -0.7002 H   0  0  0  0  0  0  0  0  0  0  0  0
    0.3833   -0.0008    1.9525 C   0  0  0  0  0  0  0  0  0  0  0  0
    1.5803   -0.2304    2.1189 O   0  0  0  0  0  0  0  0  0  0  0  0
   -0.4170    0.3858    2.9541 N   0  0  0  0  0  0  0  0  0  0  0  0
   -1.3850    0.5669    2.7398 H   0  0  0  0  0  0  0  0  0  0  0  0
    0.0265    0.5600    4.3358 C   0  0  0  0  0  0  0  0  0  0  0  0
    0.8964    1.2200    4.3632 H   0  0  0  0  0  0  0  0  0  0  0  0
   -0.7726    0.9946    4.9382 H   0  0  0  0  0  0  0  0  0  0  0  0
    0.3119   -0.4069    4.7547 H   0  0  0  0  0  0  0  0  0  0  0  0
  5  6  2  0  0  0  0
  5  7  1  0  0  0  0
  2  3  1  0  0  0  0
  2  4  1  0  0  0  0
  2  5  1  0  0  0  0
  1  2  1  0  0  0  0
 24 25  2  0  0  0  0
 24 26  1  0  0  0  0
 20 21  1  0  0  0  0
 20 22  1  0  0  0  0
 20 23  1  0  0  0  0
 17 18  1  0  0  0  0
 17 19  1  0  0  0  0
 17 20  1  0  0  0  0
 13 14  1  0  0  0  0
 13 15  1  0  0  0  0
 13 16  1  0  0  0  0
 11 12  1  0  0  0  0
 11 13  1  0  0  0  0
 11 17  1  0  0  0  0
  9 10  1  0  0  0  0
  9 11  1  0  0  0  0
  9 24  1  0  0  0  0
  7  8  1  0  0  0  0
  7  9  1  0  0  0  0
 28 29  1  0  0  0  0
 28 30  1  0  0  0  0
 28 31  1  0  0  0  0
 26 27  1  0  0  0  0
 26 28  1  0  0  0  0
M  END
$$$$
default_name
  -OEChem-02102213163D

 31 30  0     1  0  0  0  0  0999 V2000
   -3.0760   -3.6390    1.5496 H   0  0  0  0  0  0  0  0  0  0  0  0
   -3.0940   -2.6290    1.1426 C   0  0  0  0  0  0  0  0  0  0  0  0
   -3.7160   -1.9930    1.7706 H   0  0  0  0  0  0  0  0  0  0  0  0
   -3.4880   -2.6500    0.1286 H   0  0  0  0  0  0  0  0  0  0  0  0
   -1.6860   -2.0850    1.1196 C   0  0  0  0  0  0  0  0  0  0  0  0
   -0.7540   -2.7700    1.5226 O   0  0  0  0  0  0  0  0  0  0  0  0
   -1.5320   -0.8490    0.6496 N   0  0  0  0  0  0  0  0  0  0  0  0
   -2.3500   -0.3360    0.3566 H   0  0  0  0  0  0  0  0  0  0  0  0
   -0.2470   -0.1410    0.5576 C   0  0  1  0  0  0  0  0  0  0  0  0
    0.4239   -0.7541   -0.0450 H   0  0  0  0  0  0  0  0  0  0  0  0
   -0.4317    1.2160   -0.1683 C   0  0  1  0  0  0  0  0  0  0  0  0
    0.4388    1.8298    0.0710 H   0  0  0  0  0  0  0  0  0  0  0  0
   -0.4891    1.0608   -1.7001 C   0  0  0  0  0  0  0  0  0  0  0  0
   -1.3870    0.5162   -1.9974 H   0  0  0  0  0  0  0  0  0  0  0  0
   -0.4909    2.0384   -2.1795 H   0  0  0  0  0  0  0  0  0  0  0  0
    0.3864    0.5169   -2.0566 H   0  0  0  0  0  0  0  0  0  0  0  0
   -1.6789    1.9608    0.3582 C   0  0  0  0  0  0  0  0  0  0  0  0
   -2.4146    1.2429    0.7233 H   0  0  0  0  0  0  0  0  0  0  0  0
   -1.3811    2.5986    1.1904 H   0  0  0  0  0  0  0  0  0  0  0  0
   -2.3496    2.8592   -0.6899 C   0  0  0  0  0  0  0  0  0  0  0  0
   -2.7638    2.2586   -1.4995 H   0  0  0  0  0  0  0  0  0  0  0  0
   -3.1615    3.4150   -0.2202 H   0  0  0  0  0  0  0  0  0  0  0  0
   -1.6243    3.5659   -1.0946 H   0  0  0  0  0  0  0  0  0  0  0  0
    0.3833   -0.0008    1.9525 C   0  0  0  0  0  0  0  0  0  0  0  0
    1.5803   -0.2304    2.1189 O   0  0  0  0  0  0  0  0  0  0  0  0
   -0.4170    0.3858    2.9541 N   0  0  0  0  0  0  0  0  0  0  0  0
   -1.3850    0.5669    2.7398 H   0  0  0  0  0  0  0  0  0  0  0  0
    0.0265    0.5600    4.3358 C   0  0  0  0  0  0  0  0  0  0  0  0
    0.8964    1.2200    4.3632 H   0  0  0  0  0  0  0  0  0  0  0  0
   -0.7726    0.9946    4.9382 H   0  0  0  0  0  0  0  0  0  0  0  0
    0.3119   -0.4069    4.7547 H   0  0  0  0  0  0  0  0  0  0  0  0
  5  6  2  0  0  0  0
  5  7  1  0  0  0  0
  2  3  1  0  0  0  0
  2  4  1  0  0  0  0
  2  5  1  0  0  0  0
  1  2  1  0  0  0  0
 24 25  2  0  0  0  0
 24 26  1  0  0  0  0
 20 21  1  0  0  0  0
 20 22  1  0  0  0  0
 20 23  1  0  0  0  0
 17 18  1  0  0  0  0
 17 19  1  0  0  0  0
 17 20  1  0  0  0  0
 13 14  1  0  0  0  0
 13 15  1  0  0  0  0
 13 16  1  0  0  0  0
 11 12  1  0  0  0  0
 11 13  1  0  0  0  0
 11 17  1  0  0  0  0
  9 10  1  0  0  0  0
  9 11  1  0  0  0  0
  9 24  1  0  0  0  0
  7  8  1  0  0  0  0
  7  9  1  0  0  0  0
 28 29  1  0  0  0  0
 28 30  1  0  0  0  0
 28 31  1  0  0  0  0
 26 27  1  0  0  0  0
 26 28  1  0  0  0  0
M  END
$$$$
default_name
  -OEChem-02102213163D

 31 30  0     1  0  0  0  0  0999 V2000
   -3.0760   -3.6390    1.5496 H   0  0  0  0  0  0  0  0  0  0  0  0
   -3.0940   -2.6290    1.1426 C   0  0  0  0  0  0  0  0  0  0  0  0
   -3.7160   -1.9930    1.7706 H   0  0  0  0  0  0  0  0  0  0  0  0
   -3.4880   -2.6500    0.1286 H   0  0  0  0  0  0  0  0  0  0  0  0
   -1.6860   -2.0850    1.1196 C   0  0  0  0  0  0  0  0  0  0  0  0
   -0.7540   -2.7700    1.5226 O   0  0  0  0  0  0  0  0  0  0  0  0
   -1.5320   -0.8490    0.6496 N   0  0  0  0  0  0  0  0  0  0  0  0
   -2.3500   -0.3360    0.3566 H   0  0  0  0  0  0  0  0  0  0  0  0
   -0.2470   -0.1410    0.5576 C   0  0  1  0  0  0  0  0  0  0  0  0
    0.4239   -0.7541   -0.0450 H   0  0  0  0  0  0  0  0  0  0  0  0
   -0.4317    1.2160   -0.1683 C   0  0  1  0  0  0  0  0  0  0  0  0
    0.4388    1.8298    0.0710 H   0  0  0  0  0  0  0  0  0  0  0  0
   -0.4891    1.0608   -1.7001 C   0  0  0  0  0  0  0  0  0  0  0  0
   -1.3870    0.5162   -1.9974 H   0  0  0  0  0  0  0  0  0  0  0  0
   -0.4909    2.0384   -2.1795 H   0  0  0  0  0  0  0  0  0  0  0  0
    0.3864    0.5169   -2.0566 H   0  0  0  0  0  0  0  0  0  0  0  0
   -1.6789    1.9608    0.3582 C   0  0  0  0  0  0  0  0  0  0  0  0
   -2.2909    1.2849    0.9570 H   0  0  0  0  0  0  0  0  0  0  0  0
   -1.3533    2.7828    0.9957 H   0  0  0  0  0  0  0  0  0  0  0  0
   -2.5537    2.5606   -0.7510 C   0  0  0  0  0  0  0  0  0  0  0  0
   -2.9955    1.7710   -1.3585 H   0  0  0  0  0  0  0  0  0  0  0  0
   -3.3582    3.1418   -0.2996 H   0  0  0  0  0  0  0  0  0  0  0  0
   -1.9554    3.2163   -1.3845 H   0  0  0  0  0  0  0  0  0  0  0  0
    0.3833   -0.0008    1.9525 C   0  0  0  0  0  0  0  0  0  0  0  0
    1.5803   -0.2304    2.1189 O   0  0  0  0  0  0  0  0  0  0  0  0
   -0.4170    0.3858    2.9541 N   0  0  0  0  0  0  0  0  0  0  0  0
   -1.3850    0.5669    2.7398 H   0  0  0  0  0  0  0  0  0  0  0  0
    0.0265    0.5600    4.3358 C   0  0  0  0  0  0  0  0  0  0  0  0
    0.8964    1.2200    4.3632 H   0  0  0  0  0  0  0  0  0  0  0  0
   -0.7726    0.9946    4.9382 H   0  0  0  0  0  0  0  0  0  0  0  0
    0.3119   -0.4069    4.7547 H   0  0  0  0  0  0  0  0  0  0  0  0
  5  6  2  0  0  0  0
  5  7  1  0  0  0  0
  2  3  1  0  0  0  0
  2  4  1  0  0  0  0
  2  5  1  0  0  0  0
  1  2  1  0  0  0  0
 24 25  2  0  0  0  0
 24 26  1  0  0  0  0
 20 21  1  0  0  0  0
 20 22  1  0  0  0  0
 20 23  1  0  0  0  0
 17 18  1  0  0  0  0
 17 19  1  0  0  0  0
 17 20  1  0  0  0  0
 13 14  1  0  0  0  0
 13 15  1  0  0  0  0
 13 16  1  0  0  0  0
 11 12  1  0  0  0  0
 11 13  1  0  0  0  0
 11 17  1  0  0  0  0
  9 10  1  0  0  0  0
  9 11  1  0  0  0  0
  9 24  1  0  0  0  0
  7  8  1  0  0  0  0
  7  9  1  0  0  0  0
 28 29  1  0  0  0  0
 28 30  1  0  0  0  0
 28 31  1  0  0  0  0
 26 27  1  0  0  0  0
 26 28  1  0  0  0  0
M  END
$$$$
default_name
  -OEChem-02102213163D

 31 30  0     1  0  0  0  0  0999 V2000
   -3.0760   -3.6390    1.5496 H   0  0  0  0  0  0  0  0  0  0  0  0
   -3.0940   -2.6290    1.1426 C   0  0  0  0  0  0  0  0  0  0  0  0
   -3.7160   -1.9930    1.7706 H   0  0  0  0  0  0  0  0  0  0  0  0
   -3.4880   -2.6500    0.1286 H   0  0  0  0  0  0  0  0  0  0  0  0
   -1.6860   -2.0850    1.1196 C   0  0  0  0  0  0  0  0  0  0  0  0
   -0.7540   -2.7700    1.5226 O   0  0  0  0  0  0  0  0  0  0  0  0
   -1.5320   -0.8490    0.6496 N   0  0  0  0  0  0  0  0  0  0  0  0
   -2.3500   -0.3360    0.3566 H   0  0  0  0  0  0  0  0  0  0  0  0
   -0.2470   -0.1410    0.5576 C   0  0  1  0  0  0  0  0  0  0  0  0
    0.4239   -0.7541   -0.0450 H   0  0  0  0  0  0  0  0  0  0  0  0
   -0.4317    1.2160   -0.1683 C   0  0  1  0  0  0  0  0  0  0  0  0
    0.4388    1.8298    0.0710 H   0  0  0  0  0  0  0  0  0  0  0  0
   -0.4891    1.0608   -1.7001 C   0  0  0  0  0  0  0  0  0  0  0  0
   -1.3870    0.5162   -1.9974 H   0  0  0  0  0  0  0  0  0  0  0  0
   -0.4909    2.0384   -2.1795 H   0  0  0  0  0  0  0  0  0  0  0  0
    0.3864    0.5169   -2.0566 H   0  0  0  0  0  0  0  0  0  0  0  0
   -1.6789    1.9608    0.3582 C   0  0  0  0  0  0  0  0  0  0  0  0
   -2.1459    1.3852    1.1584 H   0  0  0  0  0  0  0  0  0  0  0  0
   -1.3670    2.9224    0.7657 H   0  0  0  0  0  0  0  0  0  0  0  0
   -2.7322    2.2415   -0.7222 C   0  0  0  0  0  0  0  0  0  0  0  0
   -3.1587    1.3091   -1.0916 H   0  0  0  0  0  0  0  0  0  0  0  0
   -3.5339    2.8440   -0.2947 H   0  0  0  0  0  0  0  0  0  0  0  0
   -2.2806    2.7890   -1.5502 H   0  0  0  0  0  0  0  0  0  0  0  0
    0.3833   -0.0008    1.9525 C   0  0  0  0  0  0  0  0  0  0  0  0
    1.5803   -0.2304    2.1189 O   0  0  0  0  0  0  0  0  0  0  0  0
   -0.4170    0.3858    2.9541 N   0  0  0  0  0  0  0  0  0  0  0  0
   -1.3850    0.5669    2.7398 H   0  0  0  0  0  0  0  0  0  0  0  0
    0.0265    0.5600    4.3358 C   0  0  0  0  0  0  0  0  0  0  0  0
    0.8964    1.2200    4.3632 H   0  0  0  0  0  0  0  0  0  0  0  0
   -0.7726    0.9946    4.9382 H   0  0  0  0  0  0  0  0  0  0  0  0
    0.3119   -0.4069    4.7547 H   0  0  0  0  0  0  0  0  0  0  0  0
  5  6  2  0  0  0  0
  5  7  1  0  0  0  0
  2  3  1  0  0  0  0
  2  4  1  0  0  0  0
  2  5  1  0  0  0  0
  1  2  1  0  0  0  0
 24 25  2  0  0  0  0
 24 26  1  0  0  0  0
 20 21  1  0  0  0  0
 20 22  1  0  0  0  0
 20 23  1  0  0  0  0
 17 18  1  0  0  0  0
 17 19  1  0  0  0  0
 17 20  1  0  0  0  0
 13 14  1  0  0  0  0
 13 15  1  0  0  0  0
 13 16  1  0  0  0  0
 11 12  1  0  0  0  0
 11 13  1  0  0  0  0
 11 17  1  0  0  0  0
  9 10  1  0  0  0  0
  9 11  1  0  0  0  0
  9 24  1  0  0  0  0
  7  8  1  0  0  0  0
  7  9  1  0  0  0  0
 28 29  1  0  0  0  0
 28 30  1  0  0  0  0
 28 31  1  0  0  0  0
 26 27  1  0  0  0  0
 26 28  1  0  0  0  0
M  END
$$$$
default_name
  -OEChem-02102213163D

 31 30  0     1  0  0  0  0  0999 V2000
   -3.0760   -3.6390    1.5496 H   0  0  0  0  0  0  0  0  0  0  0  0
   -3.0940   -2.6290    1.1426 C   0  0  0  0  0  0  0  0  0  0  0  0
   -3.7160   -1.9930    1.7706 H   0  0  0  0  0  0  0  0  0  0  0  0
   -3.4880   -2.6500    0.1286 H   0  0  0  0  0  0  0  0  0  0  0  0
   -1.6860   -2.0850    1.1196 C   0  0  0  0  0  0  0  0  0  0  0  0
   -0.7540   -2.7700    1.5226 O   0  0  0  0  0  0  0  0  0  0  0  0
   -1.5320   -0.8490    0.6496 N   0  0  0  0  0  0  0  0  0  0  0  0
   -2.3500   -0.3360    0.3566 H   0  0  0  0  0  0  0  0  0  0  0  0
   -0.2470   -0.1410    0.5576 C   0  0  1  0  0  0  0  0  0  0  0  0
    0.4239   -0.7541   -0.0450 H   0  0  0  0  0  0  0  0  0  0  0  0
   -0.4317    1.2160   -0.1683 C   0  0  1  0  0  0  0  0  0  0  0  0
    0.4388    1.8298    0.0710 H   0  0  0  0  0  0  0  0  0  0  0  0
   -0.4891    1.0608   -1.7001 C   0  0  0  0  0  0  0  0  0  0  0  0
   -1.3870    0.5162   -1.9974 H   0  0  0  0  0  0  0  0  0  0  0  0
   -0.4909    2.0384   -2.1795 H   0  0  0  0  0  0  0  0  0  0  0  0
    0.3864    0.5169   -2.0566 H   0  0  0  0  0  0  0  0  0  0  0  0
   -1.6789    1.9608    0.3582 C   0  0  0  0  0  0  0  0  0  0  0  0
   -1.9897    1.5369    1.3140 H   0  0  0  0  0  0  0  0  0  0  0  0
   -1.4213    3.0080    0.5161 H   0  0  0  0  0  0  0  0  0  0  0  0
   -2.8728    1.9235   -0.6054 C   0  0  0  0  0  0  0  0  0  0  0  0
   -3.2423    0.9042   -0.7170 H   0  0  0  0  0  0  0  0  0  0  0  0
   -3.6768    2.5419   -0.2058 H   0  0  0  0  0  0  0  0  0  0  0  0
   -2.5776    2.3129   -1.5804 H   0  0  0  0  0  0  0  0  0  0  0  0
    0.3833   -0.0008    1.9525 C   0  0  0  0  0  0  0  0  0  0  0  0
    1.5803   -0.2304    2.1189 O   0  0  0  0  0  0  0  0  0  0  0  0
   -0.4170    0.3858    2.9541 N   0  0  0  0  0  0  0  0  0  0  0  0
   -1.3850    0.5669    2.7398 H   0  0  0  0  0  0  0  0  0  0  0  0
    0.0265    0.5600    4.3358 C   0  0  0  0  0  0  0  0  0  0  0  0
    0.8964    1.2200    4.3632 H   0  0  0  0  0  0  0  0  0  0  0  0
   -0.7726    0.9946    4.9382 H   0  0  0  0  0  0  0  0  0  0  0  0
    0.3119   -0.4069    4.7547 H   0  0  0  0  0  0  0  0  0  0  0  0
  5  6  2  0  0  0  0
  5  7  1  0  0  0  0
  2  3  1  0  0  0  0
  2  4  1  0  0  0  0
  2  5  1  0  0  0  0
  1  2  1  0  0  0  0
 24 25  2  0  0  0  0
 24 26  1  0  0  0  0
 20 21  1  0  0  0  0
 20 22  1  0  0  0  0
 20 23  1  0  0  0  0
 17 18  1  0  0  0  0
 17 19  1  0  0  0  0
 17 20  1  0  0  0  0
 13 14  1  0  0  0  0
 13 15  1  0  0  0  0
 13 16  1  0  0  0  0
 11 12  1  0  0  0  0
 11 13  1  0  0  0  0
 11 17  1  0  0  0  0
  9 10  1  0  0  0  0
  9 11  1  0  0  0  0
  9 24  1  0  0  0  0
  7  8  1  0  0  0  0
  7  9  1  0  0  0  0
 28 29  1  0  0  0  0
 28 30  1  0  0  0  0
 28 31  1  0  0  0  0
 26 27  1  0  0  0  0
 26 28  1  0  0  0  0
M  END
$$$$
default_name
  -OEChem-02102213163D

 31 30  0     1  0  0  0  0  0999 V2000
   -3.0760   -3.6390    1.5496 H   0  0  0  0  0  0  0  0  0  0  0  0
   -3.0940   -2.6290    1.1426 C   0  0  0  0  0  0  0  0  0  0  0  0
   -3.7160   -1.9930    1.7706 H   0  0  0  0  0  0  0  0  0  0  0  0
   -3.4880   -2.6500    0.1286 H   0  0  0  0  0  0  0  0  0  0  0  0
   -1.6860   -2.0850    1.1196 C   0  0  0  0  0  0  0  0  0  0  0  0
   -0.7540   -2.7700    1.5226 O   0  0  0  0  0  0  0  0  0  0  0  0
   -1.5320   -0.8490    0.6496 N   0  0  0  0  0  0  0  0  0  0  0  0
   -2.3500   -0.3360    0.3566 H   0  0  0  0  0  0  0  0  0  0  0  0
   -0.2470   -0.1410    0.5576 C   0  0  1  0  0  0  0  0  0  0  0  0
    0.4239   -0.7541   -0.0450 H   0  0  0  0  0  0  0  0  0  0  0  0
   -0.4317    1.2160   -0.1683 C   0  0  1  0  0  0  0  0  0  0  0  0
    0.4388    1.8298    0.0710 H   0  0  0  0  0  0  0  0  0  0  0  0
   -0.4891    1.0608   -1.7001 C   0  0  0  0  0  0  0  0  0  0  0  0
   -1.3870    0.5162   -1.9974 H   0  0  0  0  0  0  0  0  0  0  0  0
   -0.4909    2.0384   -2.1795 H   0  0  0  0  0  0  0  0  0  0  0  0
    0.3864    0.5169   -2.0566 H   0  0  0  0  0  0  0  0  0  0  0  0
   -1.6789    1.9608    0.3582 C   0  0  0  0  0  0  0  0  0  0  0  0
   -1.8327    1.7297    1.4131 H   0  0  0  0  0  0  0  0  0  0  0  0
   -1.5123    3.0338    0.2638 H   0  0  0  0  0  0  0  0  0  0  0  0
   -2.9660    1.6283   -0.4087 C   0  0  0  0  0  0  0  0  0  0  0  0
   -3.2406    0.5841   -0.2601 H   0  0  0  0  0  0  0  0  0  0  0  0
   -3.7771    2.2560   -0.0389 H   0  0  0  0  0  0  0  0  0  0  0  0
   -2.8264    1.8205   -1.4730 H   0  0  0  0  0  0  0  0  0  0  0  0
    0.3833   -0.0008    1.9525 C   0  0  0  0  0  0  0  0  0  0  0  0
    1.5803   -0.2304    2.1189 O   0  0  0  0  0  0  0  0  0  0  0  0
   -0.4170    0.3858    2.9541 N   0  0  0  0  0  0  0  0  0  0  0  0
   -1.3850    0.5669    2.7398 H   0  0  0  0  0  0  0  0  0  0  0  0
    0.0265    0.5600    4.3358 C   0  0  0  0  0  0  0  0  0  0  0  0
    0.8964    1.2200    4.3632 H   0  0  0  0  0  0  0  0  0  0  0  0
   -0.7726    0.9946    4.9382 H   0  0  0  0  0  0  0  0  0  0  0  0
    0.3119   -0.4069    4.7547 H   0  0  0  0  0  0  0  0  0  0  0  0
  5  6  2  0  0  0  0
  5  7  1  0  0  0  0
  2  3  1  0  0  0  0
  2  4  1  0  0  0  0
  2  5  1  0  0  0  0
  1  2  1  0  0  0  0
 24 25  2  0  0  0  0
 24 26  1  0  0  0  0
 20 21  1  0  0  0  0
 20 22  1  0  0  0  0
 20 23  1  0  0  0  0
 17 18  1  0  0  0  0
 17 19  1  0  0  0  0
 17 20  1  0  0  0  0
 13 14  1  0  0  0  0
 13 15  1  0  0  0  0
 13 16  1  0  0  0  0
 11 12  1  0  0  0  0
 11 13  1  0  0  0  0
 11 17  1  0  0  0  0
  9 10  1  0  0  0  0
  9 11  1  0  0  0  0
  9 24  1  0  0  0  0
  7  8  1  0  0  0  0
  7  9  1  0  0  0  0
 28 29  1  0  0  0  0
 28 30  1  0  0  0  0
 28 31  1  0  0  0  0
 26 27  1  0  0  0  0
 26 28  1  0  0  0  0
M  END
$$$$
default_name
  -OEChem-02102213163D

 31 30  0     1  0  0  0  0  0999 V2000
   -3.0760   -3.6390    1.5496 H   0  0  0  0  0  0  0  0  0  0  0  0
   -3.0940   -2.6290    1.1426 C   0  0  0  0  0  0  0  0  0  0  0  0
   -3.7160   -1.9930    1.7706 H   0  0  0  0  0  0  0  0  0  0  0  0
   -3.4880   -2.6500    0.1286 H   0  0  0  0  0  0  0  0  0  0  0  0
   -1.6860   -2.0850    1.1196 C   0  0  0  0  0  0  0  0  0  0  0  0
   -0.7540   -2.7700    1.5226 O   0  0  0  0  0  0  0  0  0  0  0  0
   -1.5320   -0.8490    0.6496 N   0  0  0  0  0  0  0  0  0  0  0  0
   -2.3500   -0.3360    0.3566 H   0  0  0  0  0  0  0  0  0  0  0  0
   -0.2470   -0.1410    0.5576 C   0  0  1  0  0  0  0  0  0  0  0  0
    0.4239   -0.7541   -0.0450 H   0  0  0  0  0  0  0  0  0  0  0  0
   -0.4317    1.2160   -0.1683 C   0  0  1  0  0  0  0  0  0  0  0  0
    0.4388    1.8298    0.0710 H   0  0  0  0  0  0  0  0  0  0  0  0
   -0.4891    1.0608   -1.7001 C   0  0  0  0  0  0  0  0  0  0  0  0
   -1.3870    0.5162   -1.9974 H   0  0  0  0  0  0  0  0  0  0  0  0
   -0.4909    2.0384   -2.1795 H   0  0  0  0  0  0  0  0  0  0  0  0
    0.3864    0.5169   -2.0566 H   0  0  0  0  0  0  0  0  0  0  0  0
   -1.6789    1.9608    0.3582 C   0  0  0  0  0  0  0  0  0  0  0  0
   -1.6857    1.9506    1.4489 H   0  0  0  0  0  0  0  0  0  0  0  0
   -1.6340    2.9980    0.0262 H   0  0  0  0  0  0  0  0  0  0  0  0
   -3.0055    1.3760   -0.1453 C   0  0  0  0  0  0  0  0  0  0  0  0
   -3.1538    0.3705    0.2479 H   0  0  0  0  0  0  0  0  0  0  0  0
   -3.8280    2.0059    0.1945 H   0  0  0  0  0  0  0  0  0  0  0  0
   -3.0098    1.3454   -1.2354 H   0  0  0  0  0  0  0  0  0  0  0  0
    0.3833   -0.0008    1.9525 C   0  0  0  0  0  0  0  0  0  0  0  0
    1.5803   -0.2304    2.1189 O   0  0  0  0  0  0  0  0  0  0  0  0
   -0.4170    0.3858    2.9541 N   0  0  0  0  0  0  0  0  0  0  0  0
   -1.3850    0.5669    2.7398 H   0  0  0  0  0  0  0  0  0  0  0  0
    0.0265    0.5600    4.3358 C   0  0  0  0  0  0  0  0  0  0  0  0
    0.8964    1.2200    4.3632 H   0  0  0  0  0  0  0  0  0  0  0  0
   -0.7726    0.9946    4.9382 H   0  0  0  0  0  0  0  0  0  0  0  0
    0.3119   -0.4069    4.7547 H   0  0  0  0  0  0  0  0  0  0  0  0
  5  6  2  0  0  0  0
  5  7  1  0  0  0  0
  2  3  1  0  0  0  0
  2  4  1  0  0  0  0
  2  5  1  0  0  0  0
  1  2  1  0  0  0  0
 24 25  2  0  0  0  0
 24 26  1  0  0  0  0
 20 21  1  0  0  0  0
 20 22  1  0  0  0  0
 20 23  1  0  0  0  0
 17 18  1  0  0  0  0
 17 19  1  0  0  0  0
 17 20  1  0  0  0  0
 13 14  1  0  0  0  0
 13 15  1  0  0  0  0
 13 16  1  0  0  0  0
 11 12  1  0  0  0  0
 11 13  1  0  0  0  0
 11 17  1  0  0  0  0
  9 10  1  0  0  0  0
  9 11  1  0  0  0  0
  9 24  1  0  0  0  0
  7  8  1  0  0  0  0
  7  9  1  0  0  0  0
 28 29  1  0  0  0  0
 28 30  1  0  0  0  0
 28 31  1  0  0  0  0
 26 27  1  0  0  0  0
 26 28  1  0  0  0  0
M  END
$$$$
default_name
  -OEChem-02102213163D

 31 30  0     1  0  0  0  0  0999 V2000
   -3.0760   -3.6390    1.5496 H   0  0  0  0  0  0  0  0  0  0  0  0
   -3.0940   -2.6290    1.1426 C   0  0  0  0  0  0  0  0  0  0  0  0
   -3.7160   -1.9930    1.7706 H   0  0  0  0  0  0  0  0  0  0  0  0
   -3.4880   -2.6500    0.1286 H   0  0  0  0  0  0  0  0  0  0  0  0
   -1.6860   -2.0850    1.1196 C   0  0  0  0  0  0  0  0  0  0  0  0
   -0.7540   -2.7700    1.5226 O   0  0  0  0  0  0  0  0  0  0  0  0
   -1.5320   -0.8490    0.6496 N   0  0  0  0  0  0  0  0  0  0  0  0
   -2.3500   -0.3360    0.3566 H   0  0  0  0  0  0  0  0  0  0  0  0
   -0.2470   -0.1410    0.5576 C   0  0  1  0  0  0  0  0  0  0  0  0
    0.4239   -0.7541   -0.0450 H   0  0  0  0  0  0  0  0  0  0  0  0
   -0.4317    1.2160   -0.1683 C   0  0  1  0  0  0  0  0  0  0  0  0
    0.4388    1.8298    0.0710 H   0  0  0  0  0  0  0  0  0  0  0  0
   -0.4891    1.0608   -1.7001 C   0  0  0  0  0  0  0  0  0  0  0  0
   -1.3870    0.5162   -1.9974 H   0  0  0  0  0  0  0  0  0  0  0  0
   -0.4909    2.0384   -2.1795 H   0  0  0  0  0  0  0  0  0  0  0  0
    0.3864    0.5169   -2.0566 H   0  0  0  0  0  0  0  0  0  0  0  0
   -1.6789    1.9608    0.3582 C   0  0  0  0  0  0  0  0  0  0  0  0
   -1.5587    2.1843    1.4190 H   0  0  0  0  0  0  0  0  0  0  0  0
   -1.7781    2.9030   -0.1807 H   0  0  0  0  0  0  0  0  0  0  0  0
   -2.9885    1.1839    0.1667 C   0  0  0  0  0  0  0  0  0  0  0  0
   -2.9876    0.2779    0.7724 H   0  0  0  0  0  0  0  0  0  0  0  0
   -3.8259    1.8086    0.4785 H   0  0  0  0  0  0  0  0  0  0  0  0
   -3.1155    0.9199   -0.8838 H   0  0  0  0  0  0  0  0  0  0  0  0
    0.3833   -0.0008    1.9525 C   0  0  0  0  0  0  0  0  0  0  0  0
    1.5803   -0.2304    2.1189 O   0  0  0  0  0  0  0  0  0  0  0  0
   -0.4170    0.3858    2.9541 N   0  0  0  0  0  0  0  0  0  0  0  0
   -1.3850    0.5669    2.7398 H   0  0  0  0  0  0  0  0  0  0  0  0
    0.0265    0.5600    4.3358 C   0  0  0  0  0  0  0  0  0  0  0  0
    0.8964    1.2200    4.3632 H   0  0  0  0  0  0  0  0  0  0  0  0
   -0.7726    0.9946    4.9382 H   0  0  0  0  0  0  0  0  0  0  0  0
    0.3119   -0.4069    4.7547 H   0  0  0  0  0  0  0  0  0  0  0  0
  5  6  2  0  0  0  0
  5  7  1  0  0  0  0
  2  3  1  0  0  0  0
  2  4  1  0  0  0  0
  2  5  1  0  0  0  0
  1  2  1  0  0  0  0
 24 25  2  0  0  0  0
 24 26  1  0  0  0  0
 20 21  1  0  0  0  0
 20 22  1  0  0  0  0
 20 23  1  0  0  0  0
 17 18  1  0  0  0  0
 17 19  1  0  0  0  0
 17 20  1  0  0  0  0
 13 14  1  0  0  0  0
 13 15  1  0  0  0  0
 13 16  1  0  0  0  0
 11 12  1  0  0  0  0
 11 13  1  0  0  0  0
 11 17  1  0  0  0  0
  9 10  1  0  0  0  0
  9 11  1  0  0  0  0
  9 24  1  0  0  0  0
  7  8  1  0  0  0  0
  7  9  1  0  0  0  0
 28 29  1  0  0  0  0
 28 30  1  0  0  0  0
 28 31  1  0  0  0  0
 26 27  1  0  0  0  0
 26 28  1  0  0  0  0
M  END
$$$$
default_name
  -OEChem-02102213163D

 31 30  0     1  0  0  0  0  0999 V2000
   -3.0760   -3.6390    1.5496 H   0  0  0  0  0  0  0  0  0  0  0  0
   -3.0940   -2.6290    1.1426 C   0  0  0  0  0  0  0  0  0  0  0  0
   -3.7160   -1.9930    1.7706 H   0  0  0  0  0  0  0  0  0  0  0  0
   -3.4880   -2.6500    0.1286 H   0  0  0  0  0  0  0  0  0  0  0  0
   -1.6860   -2.0850    1.1196 C   0  0  0  0  0  0  0  0  0  0  0  0
   -0.7540   -2.7700    1.5226 O   0  0  0  0  0  0  0  0  0  0  0  0
   -1.5320   -0.8490    0.6496 N   0  0  0  0  0  0  0  0  0  0  0  0
   -2.3500   -0.3360    0.3566 H   0  0  0  0  0  0  0  0  0  0  0  0
   -0.2470   -0.1410    0.5576 C   0  0  1  0  0  0  0  0  0  0  0  0
    0.4239   -0.7541   -0.0450 H   0  0  0  0  0  0  0  0  0  0  0  0
   -0.4317    1.2160   -0.1683 C   0  0  1  0  0  0  0  0  0  0  0  0
    0.4388    1.8298    0.0710 H   0  0  0  0  0  0  0  0  0  0  0  0
   -0.4891    1.0608   -1.7001 C   0  0  0  0  0  0  0  0  0  0  0  0
   -1.3870    0.5162   -1.9974 H   0  0  0  0  0  0  0  0  0  0  0  0
   -0.4909    2.0384   -2.1795 H   0  0  0  0  0  0  0  0  0  0  0  0
    0.3864    0.5169   -2.0566 H   0  0  0  0  0  0  0  0  0  0  0  0
   -1.6789    1.9608    0.3582 C   0  0  0  0  0  0  0  0  0  0  0  0
   -1.4604    2.4150    1.3255 H   0  0  0  0  0  0  0  0  0  0  0  0
   -1.9347    2.7553   -0.3428 H   0  0  0  0  0  0  0  0  0  0  0  0
   -2.9163    1.0651    0.5061 C   0  0  0  0  0  0  0  0  0  0  0  0
   -2.7536    0.3128    1.2776 H   0  0  0  0  0  0  0  0  0  0  0  0
   -3.7711    1.6775    0.7938 H   0  0  0  0  0  0  0  0  0  0  0  0
   -3.1361    0.5731   -0.4421 H   0  0  0  0  0  0  0  0  0  0  0  0
    0.3833   -0.0008    1.9525 C   0  0  0  0  0  0  0  0  0  0  0  0
    1.5803   -0.2304    2.1189 O   0  0  0  0  0  0  0  0  0  0  0  0
   -0.4170    0.3858    2.9541 N   0  0  0  0  0  0  0  0  0  0  0  0
   -1.3850    0.5669    2.7398 H   0  0  0  0  0  0  0  0  0  0  0  0
    0.0265    0.5600    4.3358 C   0  0  0  0  0  0  0  0  0  0  0  0
    0.8964    1.2200    4.3632 H   0  0  0  0  0  0  0  0  0  0  0  0
   -0.7726    0.9946    4.9382 H   0  0  0  0  0  0  0  0  0  0  0  0
    0.3119   -0.4069    4.7547 H   0  0  0  0  0  0  0  0  0  0  0  0
  5  6  2  0  0  0  0
  5  7  1  0  0  0  0
  2  3  1  0  0  0  0
  2  4  1  0  0  0  0
  2  5  1  0  0  0  0
  1  2  1  0  0  0  0
 24 25  2  0  0  0  0
 24 26  1  0  0  0  0
 20 21  1  0  0  0  0
 20 22  1  0  0  0  0
 20 23  1  0  0  0  0
 17 18  1  0  0  0  0
 17 19  1  0  0  0  0
 17 20  1  0  0  0  0
 13 14  1  0  0  0  0
 13 15  1  0  0  0  0
 13 16  1  0  0  0  0
 11 12  1  0  0  0  0
 11 13  1  0  0  0  0
 11 17  1  0  0  0  0
  9 10  1  0  0  0  0
  9 11  1  0  0  0  0
  9 24  1  0  0  0  0
  7  8  1  0  0  0  0
  7  9  1  0  0  0  0
 28 29  1  0  0  0  0
 28 30  1  0  0  0  0
 28 31  1  0  0  0  0
 26 27  1  0  0  0  0
 26 28  1  0  0  0  0
M  END
$$$$
default_name
  -OEChem-02102213163D

 31 30  0     1  0  0  0  0  0999 V2000
   -3.0760   -3.6390    1.5496 H   0  0  0  0  0  0  0  0  0  0  0  0
   -3.0940   -2.6290    1.1426 C   0  0  0  0  0  0  0  0  0  0  0  0
   -3.7160   -1.9930    1.7706 H   0  0  0  0  0  0  0  0  0  0  0  0
   -3.4880   -2.6500    0.1286 H   0  0  0  0  0  0  0  0  0  0  0  0
   -1.6860   -2.0850    1.1196 C   0  0  0  0  0  0  0  0  0  0  0  0
   -0.7540   -2.7700    1.5226 O   0  0  0  0  0  0  0  0  0  0  0  0
   -1.5320   -0.8490    0.6496 N   0  0  0  0  0  0  0  0  0  0  0  0
   -2.3500   -0.3360    0.3566 H   0  0  0  0  0  0  0  0  0  0  0  0
   -0.2470   -0.1410    0.5576 C   0  0  1  0  0  0  0  0  0  0  0  0
    0.4239   -0.7541   -0.0450 H   0  0  0  0  0  0  0  0  0  0  0  0
   -0.4317    1.2160   -0.1683 C   0  0  1  0  0  0  0  0  0  0  0  0
    0.4388    1.8298    0.0710 H   0  0  0  0  0  0  0  0  0  0  0  0
   -0.4891    1.0608   -1.7001 C   0  0  0  0  0  0  0  0  0  0  0  0
   -1.3870    0.5162   -1.9974 H   0  0  0  0  0  0  0  0  0  0  0  0
   -0.4909    2.0384   -2.1795 H   0  0  0  0  0  0  0  0  0  0  0  0
    0.3864    0.5169   -2.0566 H   0  0  0  0  0  0  0  0  0  0  0  0
   -1.6789    1.9608    0.3582 C   0  0  0  0  0  0  0  0  0  0  0  0
   -1.3974    2.6270    1.1747 H   0  0  0  0  0  0  0  0  0  0  0  0
   -2.0931    2.5650   -0.4489 H   0  0  0  0  0  0  0  0  0  0  0  0
   -2.7936    1.0275    0.8497 C   0  0  0  0  0  0  0  0  0  0  0  0
   -2.4675    0.4726    1.7292 H   0  0  0  0  0  0  0  0  0  0  0  0
   -3.6672    1.6216    1.1189 H   0  0  0  0  0  0  0  0  0  0  0  0
   -3.0704    0.3285    0.0597 H   0  0  0  0  0  0  0  0  0  0  0  0
    0.3833   -0.0008    1.9525 C   0  0  0  0  0  0  0  0  0  0  0  0
    1.5803   -0.2304    2.1189 O   0  0  0  0  0  0  0  0  0  0  0  0
   -0.4170    0.3858    2.9541 N   0  0  0  0  0  0  0  0  0  0  0  0
   -1.3850    0.5669    2.7398 H   0  0  0  0  0  0  0  0  0  0  0  0
    0.0265    0.5600    4.3358 C   0  0  0  0  0  0  0  0  0  0  0  0
    0.8964    1.2200    4.3632 H   0  0  0  0  0  0  0  0  0  0  0  0
   -0.7726    0.9946    4.9382 H   0  0  0  0  0  0  0  0  0  0  0  0
    0.3119   -0.4069    4.7547 H   0  0  0  0  0  0  0  0  0  0  0  0
  5  6  2  0  0  0  0
  5  7  1  0  0  0  0
  2  3  1  0  0  0  0
  2  4  1  0  0  0  0
  2  5  1  0  0  0  0
  1  2  1  0  0  0  0
 24 25  2  0  0  0  0
 24 26  1  0  0  0  0
 20 21  1  0  0  0  0
 20 22  1  0  0  0  0
 20 23  1  0  0  0  0
 17 18  1  0  0  0  0
 17 19  1  0  0  0  0
 17 20  1  0  0  0  0
 13 14  1  0  0  0  0
 13 15  1  0  0  0  0
 13 16  1  0  0  0  0
 11 12  1  0  0  0  0
 11 13  1  0  0  0  0
 11 17  1  0  0  0  0
  9 10  1  0  0  0  0
  9 11  1  0  0  0  0
  9 24  1  0  0  0  0
  7  8  1  0  0  0  0
  7  9  1  0  0  0  0
 28 29  1  0  0  0  0
 28 30  1  0  0  0  0
 28 31  1  0  0  0  0
 26 27  1  0  0  0  0
 26 28  1  0  0  0  0
M  END
$$$$
default_name
  -OEChem-02102213163D

 31 30  0     1  0  0  0  0  0999 V2000
   -3.0760   -3.6390    1.5496 H   0  0  0  0  0  0  0  0  0  0  0  0
   -3.0940   -2.6290    1.1426 C   0  0  0  0  0  0  0  0  0  0  0  0
   -3.7160   -1.9930    1.7706 H   0  0  0  0  0  0  0  0  0  0  0  0
   -3.4880   -2.6500    0.1286 H   0  0  0  0  0  0  0  0  0  0  0  0
   -1.6860   -2.0850    1.1196 C   0  0  0  0  0  0  0  0  0  0  0  0
   -0.7540   -2.7700    1.5226 O   0  0  0  0  0  0  0  0  0  0  0  0
   -1.5320   -0.8490    0.6496 N   0  0  0  0  0  0  0  0  0  0  0  0
   -2.3500   -0.3360    0.3566 H   0  0  0  0  0  0  0  0  0  0  0  0
   -0.2470   -0.1410    0.5576 C   0  0  1  0  0  0  0  0  0  0  0  0
    0.4239   -0.7541   -0.0450 H   0  0  0  0  0  0  0  0  0  0  0  0
   -0.4317    1.2160   -0.1683 C   0  0  1  0  0  0  0  0  0  0  0  0
    0.4388    1.8298    0.0710 H   0  0  0  0  0  0  0  0  0  0  0  0
   -0.4891    1.0608   -1.7001 C   0  0  0  0  0  0  0  0  0  0  0  0
   -1.3870    0.5162   -1.9974 H   0  0  0  0  0  0  0  0  0  0  0  0
   -0.4909    2.0384   -2.1795 H   0  0  0  0  0  0  0  0  0  0  0  0
    0.3864    0.5169   -2.0566 H   0  0  0  0  0  0  0  0  0  0  0  0
   -1.6789    1.9608    0.3582 C   0  0  0  0  0  0  0  0  0  0  0  0
   -1.3741    2.8059    0.9769 H   0  0  0  0  0  0  0  0  0  0  0  0
   -2.2427    2.3451   -0.4919 H   0  0  0  0  0  0  0  0  0  0  0  0
   -2.6290    1.0738    1.1742 C   0  0  0  0  0  0  0  0  0  0  0  0
   -2.1490    0.7465    2.0962 H   0  0  0  0  0  0  0  0  0  0  0  0
   -3.5214    1.6447    1.4317 H   0  0  0  0  0  0  0  0  0  0  0  0
   -2.9227    0.2029    0.5872 H   0  0  0  0  0  0  0  0  0  0  0  0
    0.3833   -0.0008    1.9525 C   0  0  0  0  0  0  0  0  0  0  0  0
    1.5803   -0.2304    2.1189 O   0  0  0  0  0  0  0  0  0  0  0  0
   -0.4170    0.3858    2.9541 N   0  0  0  0  0  0  0  0  0  0  0  0
   -1.3850    0.5669    2.7398 H   0  0  0  0  0  0  0  0  0  0  0  0
    0.0265    0.5600    4.3358 C   0  0  0  0  0  0  0  0  0  0  0  0
    0.8964    1.2200    4.3632 H   0  0  0  0  0  0  0  0  0  0  0  0
   -0.7726    0.9946    4.9382 H   0  0  0  0  0  0  0  0  0  0  0  0
    0.3119   -0.4069    4.7547 H   0  0  0  0  0  0  0  0  0  0  0  0
  5  6  2  0  0  0  0
  5  7  1  0  0  0  0
  2  3  1  0  0  0  0
  2  4  1  0  0  0  0
  2  5  1  0  0  0  0
  1  2  1  0  0  0  0
 24 25  2  0  0  0  0
 24 26  1  0  0  0  0
 20 21  1  0  0  0  0
 20 22  1  0  0  0  0
 20 23  1  0  0  0  0
 17 18  1  0  0  0  0
 17 19  1  0  0  0  0
 17 20  1  0  0  0  0
 13 14  1  0  0  0  0
 13 15  1  0  0  0  0
 13 16  1  0  0  0  0
 11 12  1  0  0  0  0
 11 13  1  0  0  0  0
 11 17  1  0  0  0  0
  9 10  1  0  0  0  0
  9 11  1  0  0  0  0
  9 24  1  0  0  0  0
  7  8  1  0  0  0  0
  7  9  1  0  0  0  0
 28 29  1  0  0  0  0
 28 30  1  0  0  0  0
 28 31  1  0  0  0  0
 26 27  1  0  0  0  0
 26 28  1  0  0  0  0
M  END
$$$$
default_name
  -OEChem-02102213163D

 31 30  0     1  0  0  0  0  0999 V2000
   -3.0760   -3.6390    1.5496 H   0  0  0  0  0  0  0  0  0  0  0  0
   -3.0940   -2.6290    1.1426 C   0  0  0  0  0  0  0  0  0  0  0  0
   -3.7160   -1.9930    1.7706 H   0  0  0  0  0  0  0  0  0  0  0  0
   -3.4880   -2.6500    0.1286 H   0  0  0  0  0  0  0  0  0  0  0  0
   -1.6860   -2.0850    1.1196 C   0  0  0  0  0  0  0  0  0  0  0  0
   -0.7540   -2.7700    1.5226 O   0  0  0  0  0  0  0  0  0  0  0  0
   -1.5320   -0.8490    0.6496 N   0  0  0  0  0  0  0  0  0  0  0  0
   -2.3500   -0.3360    0.3566 H   0  0  0  0  0  0  0  0  0  0  0  0
   -0.2470   -0.1410    0.5576 C   0  0  1  0  0  0  0  0  0  0  0  0
    0.4239   -0.7541   -0.0450 H   0  0  0  0  0  0  0  0  0  0  0  0
   -0.4317    1.2160   -0.1683 C   0  0  1  0  0  0  0  0  0  0  0  0
    0.4388    1.8298    0.0710 H   0  0  0  0  0  0  0  0  0  0  0  0
   -0.4891    1.0608   -1.7001 C   0  0  0  0  0  0  0  0  0  0  0  0
   -1.3870    0.5162   -1.9974 H   0  0  0  0  0  0  0  0  0  0  0  0
   -0.4909    2.0384   -2.1795 H   0  0  0  0  0  0  0  0  0  0  0  0
    0.3864    0.5169   -2.0566 H   0  0  0  0  0  0  0  0  0  0  0  0
   -1.6789    1.9608    0.3582 C   0  0  0  0  0  0  0  0  0  0  0  0
   -1.3921    2.9393    0.7456 H   0  0  0  0  0  0  0  0  0  0  0  0
   -2.3730    2.1105   -0.4688 H   0  0  0  0  0  0  0  0  0  0  0  0
   -2.4336    1.2009    1.4574 C   0  0  0  0  0  0  0  0  0  0  0  0
   -1.8197    1.1159    2.3538 H   0  0  0  0  0  0  0  0  0  0  0  0
   -3.3436    1.7452    1.7108 H   0  0  0  0  0  0  0  0  0  0  0  0
   -2.7032    0.2048    1.1045 H   0  0  0  0  0  0  0  0  0  0  0  0
    0.3833   -0.0008    1.9525 C   0  0  0  0  0  0  0  0  0  0  0  0
    1.5803   -0.2304    2.1189 O   0  0  0  0  0  0  0  0  0  0  0  0
   -0.4170    0.3858    2.9541 N   0  0  0  0  0  0  0  0  0  0  0  0
   -1.3850    0.5669    2.7398 H   0  0  0  0  0  0  0  0  0  0  0  0
    0.0265    0.5600    4.3358 C   0  0  0  0  0  0  0  0  0  0  0  0
    0.8964    1.2200    4.3632 H   0  0  0  0  0  0  0  0  0  0  0  0
   -0.7726    0.9946    4.9382 H   0  0  0  0  0  0  0  0  0  0  0  0
    0.3119   -0.4069    4.7547 H   0  0  0  0  0  0  0  0  0  0  0  0
  5  6  2  0  0  0  0
  5  7  1  0  0  0  0
  2  3  1  0  0  0  0
  2  4  1  0  0  0  0
  2  5  1  0  0  0  0
  1  2  1  0  0  0  0
 24 25  2  0  0  0  0
 24 26  1  0  0  0  0
 20 21  1  0  0  0  0
 20 22  1  0  0  0  0
 20 23  1  0  0  0  0
 17 18  1  0  0  0  0
 17 19  1  0  0  0  0
 17 20  1  0  0  0  0
 13 14  1  0  0  0  0
 13 15  1  0  0  0  0
 13 16  1  0  0  0  0
 11 12  1  0  0  0  0
 11 13  1  0  0  0  0
 11 17  1  0  0  0  0
  9 10  1  0  0  0  0
  9 11  1  0  0  0  0
  9 24  1  0  0  0  0
  7  8  1  0  0  0  0
  7  9  1  0  0  0  0
 28 29  1  0  0  0  0
 28 30  1  0  0  0  0
 28 31  1  0  0  0  0
 26 27  1  0  0  0  0
 26 28  1  0  0  0  0
M  END
$$$$
default_name
  -OEChem-02102213163D

 31 30  0     1  0  0  0  0  0999 V2000
   -3.0760   -3.6390    1.5496 H   0  0  0  0  0  0  0  0  0  0  0  0
   -3.0940   -2.6290    1.1426 C   0  0  0  0  0  0  0  0  0  0  0  0
   -3.7160   -1.9930    1.7706 H   0  0  0  0  0  0  0  0  0  0  0  0
   -3.4880   -2.6500    0.1286 H   0  0  0  0  0  0  0  0  0  0  0  0
   -1.6860   -2.0850    1.1196 C   0  0  0  0  0  0  0  0  0  0  0  0
   -0.7540   -2.7700    1.5226 O   0  0  0  0  0  0  0  0  0  0  0  0
   -1.5320   -0.8490    0.6496 N   0  0  0  0  0  0  0  0  0  0  0  0
   -2.3500   -0.3360    0.3566 H   0  0  0  0  0  0  0  0  0  0  0  0
   -0.2470   -0.1410    0.5576 C   0  0  1  0  0  0  0  0  0  0  0  0
    0.4239   -0.7541   -0.0450 H   0  0  0  0  0  0  0  0  0  0  0  0
   -0.4317    1.2160   -0.1683 C   0  0  1  0  0  0  0  0  0  0  0  0
    0.4388    1.8298    0.0710 H   0  0  0  0  0  0  0  0  0  0  0  0
   -0.4891    1.0608   -1.7001 C   0  0  0  0  0  0  0  0  0  0  0  0
   -1.3870    0.5162   -1.9974 H   0  0  0  0  0  0  0  0  0  0  0  0
   -0.4909    2.0384   -2.1795 H   0  0  0  0  0  0  0  0  0  0  0  0
    0.3864    0.5169   -2.0566 H   0  0  0  0  0  0  0  0  0  0  0  0
   -1.6789    1.9608    0.3582 C   0  0  0  0  0  0  0  0  0  0  0  0
   -1.4500    3.0183    0.4965 H   0  0  0  0  0  0  0  0  0  0  0  0
   -2.4754    1.8771   -0.3812 H   0  0  0  0  0  0  0  0  0  0  0  0
   -2.2207    1.4000    1.6800 C   0  0  0  0  0  0  0  0  0  0  0  0
   -1.5020    1.5555    2.4844 H   0  0  0  0  0  0  0  0  0  0  0  0
   -3.1459    1.9162    1.9372 H   0  0  0  0  0  0  0  0  0  0  0  0
   -2.4268    0.3341    1.5764 H   0  0  0  0  0  0  0  0  0  0  0  0
    0.3833   -0.0008    1.9525 C   0  0  0  0  0  0  0  0  0  0  0  0
    1.5803   -0.2304    2.1189 O   0  0  0  0  0  0  0  0  0  0  0  0
   -0.4170    0.3858    2.9541 N   0  0  0  0  0  0  0  0  0  0  0  0
   -1.3850    0.5669    2.7398 H   0  0  0  0  0  0  0  0  0  0  0  0
    0.0265    0.5600    4.3358 C   0  0  0  0  0  0  0  0  0  0  0  0
    0.8964    1.2200    4.3632 H   0  0  0  0  0  0  0  0  0  0  0  0
   -0.7726    0.9946    4.9382 H   0  0  0  0  0  0  0  0  0  0  0  0
    0.3119   -0.4069    4.7547 H   0  0  0  0  0  0  0  0  0  0  0  0
  5  6  2  0  0  0  0
  5  7  1  0  0  0  0
  2  3  1  0  0  0  0
  2  4  1  0  0  0  0
  2  5  1  0  0  0  0
  1  2  1  0  0  0  0
 24 25  2  0  0  0  0
 24 26  1  0  0  0  0
 20 21  1  0  0  0  0
 20 22  1  0  0  0  0
 20 23  1  0  0  0  0
 17 18  1  0  0  0  0
 17 19  1  0  0  0  0
 17 20  1  0  0  0  0
 13 14  1  0  0  0  0
 13 15  1  0  0  0  0
 13 16  1  0  0  0  0
 11 12  1  0  0  0  0
 11 13  1  0  0  0  0
 11 17  1  0  0  0  0
  9 10  1  0  0  0  0
  9 11  1  0  0  0  0
  9 24  1  0  0  0  0
  7  8  1  0  0  0  0
  7  9  1  0  0  0  0
 28 29  1  0  0  0  0
 28 30  1  0  0  0  0
 28 31  1  0  0  0  0
 26 27  1  0  0  0  0
 26 28  1  0  0  0  0
M  END
$$$$
default_name
  -OEChem-02102213163D

 31 30  0     1  0  0  0  0  0999 V2000
   -3.0760   -3.6390    1.5496 H   0  0  0  0  0  0  0  0  0  0  0  0
   -3.0940   -2.6290    1.1426 C   0  0  0  0  0  0  0  0  0  0  0  0
   -3.7160   -1.9930    1.7706 H   0  0  0  0  0  0  0  0  0  0  0  0
   -3.4880   -2.6500    0.1286 H   0  0  0  0  0  0  0  0  0  0  0  0
   -1.6860   -2.0850    1.1196 C   0  0  0  0  0  0  0  0  0  0  0  0
   -0.7540   -2.7700    1.5226 O   0  0  0  0  0  0  0  0  0  0  0  0
   -1.5320   -0.8490    0.6496 N   0  0  0  0  0  0  0  0  0  0  0  0
   -2.3500   -0.3360    0.3566 H   0  0  0  0  0  0  0  0  0  0  0  0
   -0.2470   -0.1410    0.5576 C   0  0  1  0  0  0  0  0  0  0  0  0
    0.4239   -0.7541   -0.0450 H   0  0  0  0  0  0  0  0  0  0  0  0
   -0.4317    1.2160   -0.1683 C   0  0  1  0  0  0  0  0  0  0  0  0
    0.4388    1.8298    0.0710 H   0  0  0  0  0  0  0  0  0  0  0  0
   -0.4891    1.0608   -1.7001 C   0  0  0  0  0  0  0  0  0  0  0  0
   -1.3870    0.5162   -1.9974 H   0  0  0  0  0  0  0  0  0  0  0  0
   -0.4909    2.0384   -2.1795 H   0  0  0  0  0  0  0  0  0  0  0  0
    0.3864    0.5169   -2.0566 H   0  0  0  0  0  0  0  0  0  0  0  0
   -1.6789    1.9608    0.3582 C   0  0  0  0  0  0  0  0  0  0  0  0
   -1.5441    3.0375    0.2466 H   0  0  0  0  0  0  0  0  0  0  0  0
   -2.5428    1.6611   -0.2351 H   0  0  0  0  0  0  0  0  0  0  0  0
   -2.0048    1.6576    1.8269 C   0  0  0  0  0  0  0  0  0  0  0  0
   -1.2176    2.0355    2.4790 H   0  0  0  0  0  0  0  0  0  0  0  0
   -2.9417    2.1462    2.0955 H   0  0  0  0  0  0  0  0  0  0  0  0
   -2.1123    0.5820    1.9708 H   0  0  0  0  0  0  0  0  0  0  0  0
    0.3833   -0.0008    1.9525 C   0  0  0  0  0  0  0  0  0  0  0  0
    1.5803   -0.2304    2.1189 O   0  0  0  0  0  0  0  0  0  0  0  0
   -0.4170    0.3858    2.9541 N   0  0  0  0  0  0  0  0  0  0  0  0
   -1.3850    0.5669    2.7398 H   0  0  0  0  0  0  0  0  0  0  0  0
    0.0265    0.5600    4.3358 C   0  0  0  0  0  0  0  0  0  0  0  0
    0.8964    1.2200    4.3632 H   0  0  0  0  0  0  0  0  0  0  0  0
   -0.7726    0.9946    4.9382 H   0  0  0  0  0  0  0  0  0  0  0  0
    0.3119   -0.4069    4.7547 H   0  0  0  0  0  0  0  0  0  0  0  0
  5  6  2  0  0  0  0
  5  7  1  0  0  0  0
  2  3  1  0  0  0  0
  2  4  1  0  0  0  0
  2  5  1  0  0  0  0
  1  2  1  0  0  0  0
 24 25  2  0  0  0  0
 24 26  1  0  0  0  0
 20 21  1  0  0  0  0
 20 22  1  0  0  0  0
 20 23  1  0  0  0  0
 17 18  1  0  0  0  0
 17 19  1  0  0  0  0
 17 20  1  0  0  0  0
 13 14  1  0  0  0  0
 13 15  1  0  0  0  0
 13 16  1  0  0  0  0
 11 12  1  0  0  0  0
 11 13  1  0  0  0  0
 11 17  1  0  0  0  0
  9 10  1  0  0  0  0
  9 11  1  0  0  0  0
  9 24  1  0  0  0  0
  7  8  1  0  0  0  0
  7  9  1  0  0  0  0
 28 29  1  0  0  0  0
 28 30  1  0  0  0  0
 28 31  1  0  0  0  0
 26 27  1  0  0  0  0
 26 28  1  0  0  0  0
M  END
$$$$
default_name
  -OEChem-02102213163D

 31 30  0     1  0  0  0  0  0999 V2000
   -3.0760   -3.6390    1.5496 H   0  0  0  0  0  0  0  0  0  0  0  0
   -3.0940   -2.6290    1.1426 C   0  0  0  0  0  0  0  0  0  0  0  0
   -3.7160   -1.9930    1.7706 H   0  0  0  0  0  0  0  0  0  0  0  0
   -3.4880   -2.6500    0.1286 H   0  0  0  0  0  0  0  0  0  0  0  0
   -1.6860   -2.0850    1.1196 C   0  0  0  0  0  0  0  0  0  0  0  0
   -0.7540   -2.7700    1.5226 O   0  0  0  0  0  0  0  0  0  0  0  0
   -1.5320   -0.8490    0.6496 N   0  0  0  0  0  0  0  0  0  0  0  0
   -2.3500   -0.3360    0.3566 H   0  0  0  0  0  0  0  0  0  0  0  0
   -0.2470   -0.1410    0.5576 C   0  0  1  0  0  0  0  0  0  0  0  0
    0.4239   -0.7541   -0.0450 H   0  0  0  0  0  0  0  0  0  0  0  0
   -0.4317    1.2160   -0.1683 C   0  0  1  0  0  0  0  0  0  0  0  0
    0.4388    1.8298    0.0710 H   0  0  0  0  0  0  0  0  0  0  0  0
   -0.4891    1.0608   -1.7001 C   0  0  0  0  0  0  0  0  0  0  0  0
   -1.3870    0.5162   -1.9974 H   0  0  0  0  0  0  0  0  0  0  0  0
   -0.4909    2.0384   -2.1795 H   0  0  0  0  0  0  0  0  0  0  0  0
    0.3864    0.5169   -2.0566 H   0  0  0  0  0  0  0  0  0  0  0  0
   -1.6789    1.9608    0.3582 C   0  0  0  0  0  0  0  0  0  0  0  0
   -1.6678    2.9955    0.0130 H   0  0  0  0  0  0  0  0  0  0  0  0
   -2.5706    1.4769   -0.0404 H   0  0  0  0  0  0  0  0  0  0  0  0
   -1.8007    1.9562    1.8880 C   0  0  0  0  0  0  0  0  0  0  0  0
   -0.9859    2.5230    2.3381 H   0  0  0  0  0  0  0  0  0  0  0  0
   -2.7451    2.4194    2.1748 H   0  0  0  0  0  0  0  0  0  0  0  0
   -1.7812    0.9315    2.2607 H   0  0  0  0  0  0  0  0  0  0  0  0
    0.3833   -0.0008    1.9525 C   0  0  0  0  0  0  0  0  0  0  0  0
    1.5803   -0.2304    2.1189 O   0  0  0  0  0  0  0  0  0  0  0  0
   -0.4170    0.3858    2.9541 N   0  0  0  0  0  0  0  0  0  0  0  0
   -1.3850    0.5669    2.7398 H   0  0  0  0  0  0  0  0  0  0  0  0
    0.0265    0.5600    4.3358 C   0  0  0  0  0  0  0  0  0  0  0  0
    0.8964    1.2200    4.3632 H   0  0  0  0  0  0  0  0  0  0  0  0
   -0.7726    0.9946    4.9382 H   0  0  0  0  0  0  0  0  0  0  0  0
    0.3119   -0.4069    4.7547 H   0  0  0  0  0  0  0  0  0  0  0  0
  5  6  2  0  0  0  0
  5  7  1  0  0  0  0
  2  3  1  0  0  0  0
  2  4  1  0  0  0  0
  2  5  1  0  0  0  0
  1  2  1  0  0  0  0
 24 25  2  0  0  0  0
 24 26  1  0  0  0  0
 20 21  1  0  0  0  0
 20 22  1  0  0  0  0
 20 23  1  0  0  0  0
 17 18  1  0  0  0  0
 17 19  1  0  0  0  0
 17 20  1  0  0  0  0
 13 14  1  0  0  0  0
 13 15  1  0  0  0  0
 13 16  1  0  0  0  0
 11 12  1  0  0  0  0
 11 13  1  0  0  0  0
 11 17  1  0  0  0  0
  9 10  1  0  0  0  0
  9 11  1  0  0  0  0
  9 24  1  0  0  0  0
  7  8  1  0  0  0  0
  7  9  1  0  0  0  0
 28 29  1  0  0  0  0
 28 30  1  0  0  0  0
 28 31  1  0  0  0  0
 26 27  1  0  0  0  0
 26 28  1  0  0  0  0
M  END
$$$$
default_name
  -OEChem-02102213163D

 31 30  0     1  0  0  0  0  0999 V2000
   -3.0760   -3.6390    1.5496 H   0  0  0  0  0  0  0  0  0  0  0  0
   -3.0940   -2.6290    1.1426 C   0  0  0  0  0  0  0  0  0  0  0  0
   -3.7160   -1.9930    1.7706 H   0  0  0  0  0  0  0  0  0  0  0  0
   -3.4880   -2.6500    0.1286 H   0  0  0  0  0  0  0  0  0  0  0  0
   -1.6860   -2.0850    1.1196 C   0  0  0  0  0  0  0  0  0  0  0  0
   -0.7540   -2.7700    1.5226 O   0  0  0  0  0  0  0  0  0  0  0  0
   -1.5320   -0.8490    0.6496 N   0  0  0  0  0  0  0  0  0  0  0  0
   -2.3500   -0.3360    0.3566 H   0  0  0  0  0  0  0  0  0  0  0  0
   -0.2470   -0.1410    0.5576 C   0  0  1  0  0  0  0  0  0  0  0  0
    0.4239   -0.7541   -0.0450 H   0  0  0  0  0  0  0  0  0  0  0  0
   -0.4317    1.2160   -0.1683 C   0  0  1  0  0  0  0  0  0  0  0  0
    0.4388    1.8298    0.0710 H   0  0  0  0  0  0  0  0  0  0  0  0
   -0.4891    1.0608   -1.7001 C   0  0  0  0  0  0  0  0  0  0  0  0
   -1.3870    0.5162   -1.9974 H   0  0  0  0  0  0  0  0  0  0  0  0
   -0.4909    2.0384   -2.1795 H   0  0  0  0  0  0  0  0  0  0  0  0
    0.3864    0.5169   -2.0566 H   0  0  0  0  0  0  0  0  0  0  0  0
   -1.6789    1.9608    0.3582 C   0  0  0  0  0  0  0  0  0  0  0  0
   -1.8127    2.8952   -0.1885 H   0  0  0  0  0  0  0  0  0  0  0  0
   -2.5569    1.3373    0.1896 H   0  0  0  0  0  0  0  0  0  0  0  0
   -1.6223    2.2753    1.8592 C   0  0  0  0  0  0  0  0  0  0  0  0
   -0.8227    2.9850    2.0712 H   0  0  0  0  0  0  0  0  0  0  0  0
   -2.5693    2.7172    2.1699 H   0  0  0  0  0  0  0  0  0  0  0  0
   -1.4560    1.3588    2.4264 H   0  0  0  0  0  0  0  0  0  0  0  0
    0.3833   -0.0008    1.9525 C   0  0  0  0  0  0  0  0  0  0  0  0
    1.5803   -0.2304    2.1189 O   0  0  0  0  0  0  0  0  0  0  0  0
   -0.4170    0.3858    2.9541 N   0  0  0  0  0  0  0  0  0  0  0  0
   -1.3850    0.5669    2.7398 H   0  0  0  0  0  0  0  0  0  0  0  0
    0.0265    0.5600    4.3358 C   0  0  0  0  0  0  0  0  0  0  0  0
    0.8964    1.2200    4.3632 H   0  0  0  0  0  0  0  0  0  0  0  0
   -0.7726    0.9946    4.9382 H   0  0  0  0  0  0  0  0  0  0  0  0
    0.3119   -0.4069    4.7547 H   0  0  0  0  0  0  0  0  0  0  0  0
  5  6  2  0  0  0  0
  5  7  1  0  0  0  0
  2  3  1  0  0  0  0
  2  4  1  0  0  0  0
  2  5  1  0  0  0  0
  1  2  1  0  0  0  0
 24 25  2  0  0  0  0
 24 26  1  0  0  0  0
 20 21  1  0  0  0  0
 20 22  1  0  0  0  0
 20 23  1  0  0  0  0
 17 18  1  0  0  0  0
 17 19  1  0  0  0  0
 17 20  1  0  0  0  0
 13 14  1  0  0  0  0
 13 15  1  0  0  0  0
 13 16  1  0  0  0  0
 11 12  1  0  0  0  0
 11 13  1  0  0  0  0
 11 17  1  0  0  0  0
  9 10  1  0  0  0  0
  9 11  1  0  0  0  0
  9 24  1  0  0  0  0
  7  8  1  0  0  0  0
  7  9  1  0  0  0  0
 28 29  1  0  0  0  0
 28 30  1  0  0  0  0
 28 31  1  0  0  0  0
 26 27  1  0  0  0  0
 26 28  1  0  0  0  0
M  END
$$$$
default_name
  -OEChem-02102213163D

 31 30  0     1  0  0  0  0  0999 V2000
   -3.0760   -3.6390    1.5496 H   0  0  0  0  0  0  0  0  0  0  0  0
   -3.0940   -2.6290    1.1426 C   0  0  0  0  0  0  0  0  0  0  0  0
   -3.7160   -1.9930    1.7706 H   0  0  0  0  0  0  0  0  0  0  0  0
   -3.4880   -2.6500    0.1286 H   0  0  0  0  0  0  0  0  0  0  0  0
   -1.6860   -2.0850    1.1196 C   0  0  0  0  0  0  0  0  0  0  0  0
   -0.7540   -2.7700    1.5226 O   0  0  0  0  0  0  0  0  0  0  0  0
   -1.5320   -0.8490    0.6496 N   0  0  0  0  0  0  0  0  0  0  0  0
   -2.3500   -0.3360    0.3566 H   0  0  0  0  0  0  0  0  0  0  0  0
   -0.2470   -0.1410    0.5576 C   0  0  1  0  0  0  0  0  0  0  0  0
    0.4239   -0.7541   -0.0450 H   0  0  0  0  0  0  0  0  0  0  0  0
   -0.4317    1.2160   -0.1683 C   0  0  1  0  0  0  0  0  0  0  0  0
    0.4388    1.8298    0.0710 H   0  0  0  0  0  0  0  0  0  0  0  0
   -0.4891    1.0608   -1.7001 C   0  0  0  0  0  0  0  0  0  0  0  0
   -1.3870    0.5162   -1.9974 H   0  0  0  0  0  0  0  0  0  0  0  0
   -0.4909    2.0384   -2.1795 H   0  0  0  0  0  0  0  0  0  0  0  0
    0.3864    0.5169   -2.0566 H   0  0  0  0  0  0  0  0  0  0  0  0
   -1.6789    1.9608    0.3582 C   0  0  0  0  0  0  0  0  0  0  0  0
   -1.9690    2.7435   -0.3441 H   0  0  0  0  0  0  0  0  0  0  0  0
   -2.5026    1.2516    0.4392 H   0  0  0  0  0  0  0  0  0  0  0  0
   -1.4816    2.5933    1.7425 C   0  0  0  0  0  0  0  0  0  0  0  0
   -0.7391    3.3898    1.6965 H   0  0  0  0  0  0  0  0  0  0  0  0
   -2.4264    3.0193    2.0810 H   0  0  0  0  0  0  0  0  0  0  0  0
   -1.1589    1.8349    2.4566 H   0  0  0  0  0  0  0  0  0  0  0  0
    0.3833   -0.0008    1.9525 C   0  0  0  0  0  0  0  0  0  0  0  0
    1.5803   -0.2304    2.1189 O   0  0  0  0  0  0  0  0  0  0  0  0
   -0.4170    0.3858    2.9541 N   0  0  0  0  0  0  0  0  0  0  0  0
   -1.3850    0.5669    2.7398 H   0  0  0  0  0  0  0  0  0  0  0  0
    0.0265    0.5600    4.3358 C   0  0  0  0  0  0  0  0  0  0  0  0
    0.8964    1.2200    4.3632 H   0  0  0  0  0  0  0  0  0  0  0  0
   -0.7726    0.9946    4.9382 H   0  0  0  0  0  0  0  0  0  0  0  0
    0.3119   -0.4069    4.7547 H   0  0  0  0  0  0  0  0  0  0  0  0
  5  6  2  0  0  0  0
  5  7  1  0  0  0  0
  2  3  1  0  0  0  0
  2  4  1  0  0  0  0
  2  5  1  0  0  0  0
  1  2  1  0  0  0  0
 24 25  2  0  0  0  0
 24 26  1  0  0  0  0
 20 21  1  0  0  0  0
 20 22  1  0  0  0  0
 20 23  1  0  0  0  0
 17 18  1  0  0  0  0
 17 19  1  0  0  0  0
 17 20  1  0  0  0  0
 13 14  1  0  0  0  0
 13 15  1  0  0  0  0
 13 16  1  0  0  0  0
 11 12  1  0  0  0  0
 11 13  1  0  0  0  0
 11 17  1  0  0  0  0
  9 10  1  0  0  0  0
  9 11  1  0  0  0  0
  9 24  1  0  0  0  0
  7  8  1  0  0  0  0
  7  9  1  0  0  0  0
 28 29  1  0  0  0  0
 28 30  1  0  0  0  0
 28 31  1  0  0  0  0
 26 27  1  0  0  0  0
 26 28  1  0  0  0  0
M  END
$$$$
default_name
  -OEChem-02102213163D

 31 30  0     1  0  0  0  0  0999 V2000
   -3.0760   -3.6390    1.5496 H   0  0  0  0  0  0  0  0  0  0  0  0
   -3.0940   -2.6290    1.1426 C   0  0  0  0  0  0  0  0  0  0  0  0
   -3.7160   -1.9930    1.7706 H   0  0  0  0  0  0  0  0  0  0  0  0
   -3.4880   -2.6500    0.1286 H   0  0  0  0  0  0  0  0  0  0  0  0
   -1.6860   -2.0850    1.1196 C   0  0  0  0  0  0  0  0  0  0  0  0
   -0.7540   -2.7700    1.5226 O   0  0  0  0  0  0  0  0  0  0  0  0
   -1.5320   -0.8490    0.6496 N   0  0  0  0  0  0  0  0  0  0  0  0
   -2.3500   -0.3360    0.3566 H   0  0  0  0  0  0  0  0  0  0  0  0
   -0.2470   -0.1410    0.5576 C   0  0  1  0  0  0  0  0  0  0  0  0
    0.4239   -0.7541   -0.0450 H   0  0  0  0  0  0  0  0  0  0  0  0
   -0.4317    1.2160   -0.1683 C   0  0  1  0  0  0  0  0  0  0  0  0
    0.4388    1.8298    0.0710 H   0  0  0  0  0  0  0  0  0  0  0  0
   -0.4891    1.0608   -1.7001 C   0  0  0  0  0  0  0  0  0  0  0  0
   -1.3870    0.5162   -1.9974 H   0  0  0  0  0  0  0  0  0  0  0  0
   -0.4909    2.0384   -2.1795 H   0  0  0  0  0  0  0  0  0  0  0  0
    0.3864    0.5169   -2.0566 H   0  0  0  0  0  0  0  0  0  0  0  0
   -1.6789    1.9608    0.3582 C   0  0  0  0  0  0  0  0  0  0  0  0
   -2.1260    2.5507   -0.4431 H   0  0  0  0  0  0  0  0  0  0  0  0
   -2.4116    1.2258    0.6914 H   0  0  0  0  0  0  0  0  0  0  0  0
   -1.3884    2.8885    1.5457 C   0  0  0  0  0  0  0  0  0  0  0  0
   -0.7408    3.7099    1.2396 H   0  0  0  0  0  0  0  0  0  0  0  0
   -2.3261    3.3052    1.9141 H   0  0  0  0  0  0  0  0  0  0  0  0
   -0.9102    2.3273    2.3492 H   0  0  0  0  0  0  0  0  0  0  0  0
    0.3833   -0.0008    1.9525 C   0  0  0  0  0  0  0  0  0  0  0  0
    1.5803   -0.2304    2.1189 O   0  0  0  0  0  0  0  0  0  0  0  0
   -0.4170    0.3858    2.9541 N   0  0  0  0  0  0  0  0  0  0  0  0
   -1.3850    0.5669    2.7398 H   0  0  0  0  0  0  0  0  0  0  0  0
    0.0265    0.5600    4.3358 C   0  0  0  0  0  0  0  0  0  0  0  0
    0.8964    1.2200    4.3632 H   0  0  0  0  0  0  0  0  0  0  0  0
   -0.7726    0.9946    4.9382 H   0  0  0  0  0  0  0  0  0  0  0  0
    0.3119   -0.4069    4.7547 H   0  0  0  0  0  0  0  0  0  0  0  0
  5  6  2  0  0  0  0
  5  7  1  0  0  0  0
  2  3  1  0  0  0  0
  2  4  1  0  0  0  0
  2  5  1  0  0  0  0
  1  2  1  0  0  0  0
 24 25  2  0  0  0  0
 24 26  1  0  0  0  0
 20 21  1  0  0  0  0
 20 22  1  0  0  0  0
 20 23  1  0  0  0  0
 17 18  1  0  0  0  0
 17 19  1  0  0  0  0
 17 20  1  0  0  0  0
 13 14  1  0  0  0  0
 13 15  1  0  0  0  0
 13 16  1  0  0  0  0
 11 12  1  0  0  0  0
 11 13  1  0  0  0  0
 11 17  1  0  0  0  0
  9 10  1  0  0  0  0
  9 11  1  0  0  0  0
  9 24  1  0  0  0  0
  7  8  1  0  0  0  0
  7  9  1  0  0  0  0
 28 29  1  0  0  0  0
 28 30  1  0  0  0  0
 28 31  1  0  0  0  0
 26 27  1  0  0  0  0
 26 28  1  0  0  0  0
M  END
$$$$
default_name
  -OEChem-02102213163D

 31 30  0     1  0  0  0  0  0999 V2000
   -3.0760   -3.6390    1.5496 H   0  0  0  0  0  0  0  0  0  0  0  0
   -3.0940   -2.6290    1.1426 C   0  0  0  0  0  0  0  0  0  0  0  0
   -3.7160   -1.9930    1.7706 H   0  0  0  0  0  0  0  0  0  0  0  0
   -3.4880   -2.6500    0.1286 H   0  0  0  0  0  0  0  0  0  0  0  0
   -1.6860   -2.0850    1.1196 C   0  0  0  0  0  0  0  0  0  0  0  0
   -0.7540   -2.7700    1.5226 O   0  0  0  0  0  0  0  0  0  0  0  0
   -1.5320   -0.8490    0.6496 N   0  0  0  0  0  0  0  0  0  0  0  0
   -2.3500   -0.3360    0.3566 H   0  0  0  0  0  0  0  0  0  0  0  0
   -0.2470   -0.1410    0.5576 C   0  0  1  0  0  0  0  0  0  0  0  0
    0.4239   -0.7541   -0.0450 H   0  0  0  0  0  0  0  0  0  0  0  0
   -0.4317    1.2160   -0.1683 C   0  0  1  0  0  0  0  0  0  0  0  0
    0.4388    1.8298    0.0710 H   0  0  0  0  0  0  0  0  0  0  0  0
   -0.4891    1.0608   -1.7001 C   0  0  0  0  0  0  0  0  0  0  0  0
   -1.3870    0.5162   -1.9974 H   0  0  0  0  0  0  0  0  0  0  0  0
   -0.4909    2.0384   -2.1795 H   0  0  0  0  0  0  0  0  0  0  0  0
    0.3864    0.5169   -2.0566 H   0  0  0  0  0  0  0  0  0  0  0  0
   -1.6789    1.9608    0.3582 C   0  0  0  0  0  0  0  0  0  0  0  0
   -2.2730    2.3299   -0.4790 H   0  0  0  0  0  0  0  0  0  0  0  0
   -2.2898    1.2617    0.9291 H   0  0  0  0  0  0  0  0  0  0  0  0
   -1.3490    3.1408    1.2823 C   0  0  0  0  0  0  0  0  0  0  0  0
   -0.8277    3.9235    0.7316 H   0  0  0  0  0  0  0  0  0  0  0  0
   -2.2753    3.5553    1.6808 H   0  0  0  0  0  0  0  0  0  0  0  0
   -0.7268    2.8024    2.1116 H   0  0  0  0  0  0  0  0  0  0  0  0
    0.3833   -0.0008    1.9525 C   0  0  0  0  0  0  0  0  0  0  0  0
    1.5803   -0.2304    2.1189 O   0  0  0  0  0  0  0  0  0  0  0  0
   -0.4170    0.3858    2.9541 N   0  0  0  0  0  0  0  0  0  0  0  0
   -1.3850    0.5669    2.7398 H   0  0  0  0  0  0  0  0  0  0  0  0
    0.0265    0.5600    4.3358 C   0  0  0  0  0  0  0  0  0  0  0  0
    0.8964    1.2200    4.3632 H   0  0  0  0  0  0  0  0  0  0  0  0
   -0.7726    0.9946    4.9382 H   0  0  0  0  0  0  0  0  0  0  0  0
    0.3119   -0.4069    4.7547 H   0  0  0  0  0  0  0  0  0  0  0  0
  5  6  2  0  0  0  0
  5  7  1  0  0  0  0
  2  3  1  0  0  0  0
  2  4  1  0  0  0  0
  2  5  1  0  0  0  0
  1  2  1  0  0  0  0
 24 25  2  0  0  0  0
 24 26  1  0  0  0  0
 20 21  1  0  0  0  0
 20 22  1  0  0  0  0
 20 23  1  0  0  0  0
 17 18  1  0  0  0  0
 17 19  1  0  0  0  0
 17 20  1  0  0  0  0
 13 14  1  0  0  0  0
 13 15  1  0  0  0  0
 13 16  1  0  0  0  0
 11 12  1  0  0  0  0
 11 13  1  0  0  0  0
 11 17  1  0  0  0  0
  9 10  1  0  0  0  0
  9 11  1  0  0  0  0
  9 24  1  0  0  0  0
  7  8  1  0  0  0  0
  7  9  1  0  0  0  0
 28 29  1  0  0  0  0
 28 30  1  0  0  0  0
 28 31  1  0  0  0  0
 26 27  1  0  0  0  0
 26 28  1  0  0  0  0
M  END
$$$$
default_name
  -OEChem-02102213163D

 31 30  0     1  0  0  0  0  0999 V2000
   -3.0760   -3.6390    1.5496 H   0  0  0  0  0  0  0  0  0  0  0  0
   -3.0940   -2.6290    1.1426 C   0  0  0  0  0  0  0  0  0  0  0  0
   -3.7160   -1.9930    1.7706 H   0  0  0  0  0  0  0  0  0  0  0  0
   -3.4880   -2.6500    0.1286 H   0  0  0  0  0  0  0  0  0  0  0  0
   -1.6860   -2.0850    1.1196 C   0  0  0  0  0  0  0  0  0  0  0  0
   -0.7540   -2.7700    1.5226 O   0  0  0  0  0  0  0  0  0  0  0  0
   -1.5320   -0.8490    0.6496 N   0  0  0  0  0  0  0  0  0  0  0  0
   -2.3500   -0.3360    0.3566 H   0  0  0  0  0  0  0  0  0  0  0  0
   -0.2470   -0.1410    0.5576 C   0  0  1  0  0  0  0  0  0  0  0  0
    0.4239   -0.7541   -0.0450 H   0  0  0  0  0  0  0  0  0  0  0  0
   -0.4317    1.2160   -0.1683 C   0  0  1  0  0  0  0  0  0  0  0  0
    0.4388    1.8298    0.0710 H   0  0  0  0  0  0  0  0  0  0  0  0
   -0.4891    1.0608   -1.7001 C   0  0  0  0  0  0  0  0  0  0  0  0
   -1.3870    0.5162   -1.9974 H   0  0  0  0  0  0  0  0  0  0  0  0
   -0.4909    2.0384   -2.1795 H   0  0  0  0  0  0  0  0  0  0  0  0
    0.3864    0.5169   -2.0566 H   0  0  0  0  0  0  0  0  0  0  0  0
   -1.6789    1.9608    0.3582 C   0  0  0  0  0  0  0  0  0  0  0  0
   -2.3999    2.0961   -0.4491 H   0  0  0  0  0  0  0  0  0  0  0  0
   -2.1458    1.3566    1.1360 H   0  0  0  0  0  0  0  0  0  0  0  0
   -1.3659    3.3329    0.9703 C   0  0  0  0  0  0  0  0  0  0  0  0
   -0.9938    4.0161    0.2071 H   0  0  0  0  0  0  0  0  0  0  0  0
   -2.2773    3.7526    1.3967 H   0  0  0  0  0  0  0  0  0  0  0  0
   -0.6211    3.2279    1.7600 H   0  0  0  0  0  0  0  0  0  0  0  0
    0.3833   -0.0008    1.9525 C   0  0  0  0  0  0  0  0  0  0  0  0
    1.5803   -0.2304    2.1189 O   0  0  0  0  0  0  0  0  0  0  0  0
   -0.4170    0.3858    2.9541 N   0  0  0  0  0  0  0  0  0  0  0  0
   -1.3850    0.5669    2.7398 H   0  0  0  0  0  0  0  0  0  0  0  0
    0.0265    0.5600    4.3358 C   0  0  0  0  0  0  0  0  0  0  0  0
    0.8964    1.2200    4.3632 H   0  0  0  0  0  0  0  0  0  0  0  0
   -0.7726    0.9946    4.9382 H   0  0  0  0  0  0  0  0  0  0  0  0
    0.3119   -0.4069    4.7547 H   0  0  0  0  0  0  0  0  0  0  0  0
  5  6  2  0  0  0  0
  5  7  1  0  0  0  0
  2  3  1  0  0  0  0
  2  4  1  0  0  0  0
  2  5  1  0  0  0  0
  1  2  1  0  0  0  0
 24 25  2  0  0  0  0
 24 26  1  0  0  0  0
 20 21  1  0  0  0  0
 20 22  1  0  0  0  0
 20 23  1  0  0  0  0
 17 18  1  0  0  0  0
 17 19  1  0  0  0  0
 17 20  1  0  0  0  0
 13 14  1  0  0  0  0
 13 15  1  0  0  0  0
 13 16  1  0  0  0  0
 11 12  1  0  0  0  0
 11 13  1  0  0  0  0
 11 17  1  0  0  0  0
  9 10  1  0  0  0  0
  9 11  1  0  0  0  0
  9 24  1  0  0  0  0
  7  8  1  0  0  0  0
  7  9  1  0  0  0  0
 28 29  1  0  0  0  0
 28 30  1  0  0  0  0
 28 31  1  0  0  0  0
 26 27  1  0  0  0  0
 26 28  1  0  0  0  0
M  END
$$$$
default_name
  -OEChem-02102213163D

 31 30  0     1  0  0  0  0  0999 V2000
   -3.0760   -3.6390    1.5496 H   0  0  0  0  0  0  0  0  0  0  0  0
   -3.0940   -2.6290    1.1426 C   0  0  0  0  0  0  0  0  0  0  0  0
   -3.7160   -1.9930    1.7706 H   0  0  0  0  0  0  0  0  0  0  0  0
   -3.4880   -2.6500    0.1286 H   0  0  0  0  0  0  0  0  0  0  0  0
   -1.6860   -2.0850    1.1196 C   0  0  0  0  0  0  0  0  0  0  0  0
   -0.7540   -2.7700    1.5226 O   0  0  0  0  0  0  0  0  0  0  0  0
   -1.5320   -0.8490    0.6496 N   0  0  0  0  0  0  0  0  0  0  0  0
   -2.3500   -0.3360    0.3566 H   0  0  0  0  0  0  0  0  0  0  0  0
   -0.2470   -0.1410    0.5576 C   0  0  1  0  0  0  0  0  0  0  0  0
    0.4239   -0.7541   -0.0450 H   0  0  0  0  0  0  0  0  0  0  0  0
   -0.4317    1.2160   -0.1683 C   0  0  1  0  0  0  0  0  0  0  0  0
    0.4388    1.8298    0.0710 H   0  0  0  0  0  0  0  0  0  0  0  0
   -0.4891    1.0608   -1.7001 C   0  0  0  0  0  0  0  0  0  0  0  0
   -1.3870    0.5162   -1.9974 H   0  0  0  0  0  0  0  0  0  0  0  0
   -0.4909    2.0384   -2.1795 H   0  0  0  0  0  0  0  0  0  0  0  0
    0.3864    0.5169   -2.0566 H   0  0  0  0  0  0  0  0  0  0  0  0
   -1.6789    1.9608    0.3582 C   0  0  0  0  0  0  0  0  0  0  0  0
   -2.4983    1.8654   -0.3556 H   0  0  0  0  0  0  0  0  0  0  0  0
   -1.9892    1.5043    1.2980 H   0  0  0  0  0  0  0  0  0  0  0  0
   -1.4382    3.4518    0.6310 C   0  0  0  0  0  0  0  0  0  0  0  0
   -1.2279    3.9813   -0.2981 H   0  0  0  0  0  0  0  0  0  0  0  0
   -2.3321    3.8837    1.0814 H   0  0  0  0  0  0  0  0  0  0  0  0
   -0.6004    3.5747    1.3183 H   0  0  0  0  0  0  0  0  0  0  0  0
    0.3833   -0.0008    1.9525 C   0  0  0  0  0  0  0  0  0  0  0  0
    1.5803   -0.2304    2.1189 O   0  0  0  0  0  0  0  0  0  0  0  0
   -0.4170    0.3858    2.9541 N   0  0  0  0  0  0  0  0  0  0  0  0
   -1.3850    0.5669    2.7398 H   0  0  0  0  0  0  0  0  0  0  0  0
    0.0265    0.5600    4.3358 C   0  0  0  0  0  0  0  0  0  0  0  0
    0.8964    1.2200    4.3632 H   0  0  0  0  0  0  0  0  0  0  0  0
   -0.7726    0.9946    4.9382 H   0  0  0  0  0  0  0  0  0  0  0  0
    0.3119   -0.4069    4.7547 H   0  0  0  0  0  0  0  0  0  0  0  0
  5  6  2  0  0  0  0
  5  7  1  0  0  0  0
  2  3  1  0  0  0  0
  2  4  1  0  0  0  0
  2  5  1  0  0  0  0
  1  2  1  0  0  0  0
 24 25  2  0  0  0  0
 24 26  1  0  0  0  0
 20 21  1  0  0  0  0
 20 22  1  0  0  0  0
 20 23  1  0  0  0  0
 17 18  1  0  0  0  0
 17 19  1  0  0  0  0
 17 20  1  0  0  0  0
 13 14  1  0  0  0  0
 13 15  1  0  0  0  0
 13 16  1  0  0  0  0
 11 12  1  0  0  0  0
 11 13  1  0  0  0  0
 11 17  1  0  0  0  0
  9 10  1  0  0  0  0
  9 11  1  0  0  0  0
  9 24  1  0  0  0  0
  7  8  1  0  0  0  0
  7  9  1  0  0  0  0
 28 29  1  0  0  0  0
 28 30  1  0  0  0  0
 28 31  1  0  0  0  0
 26 27  1  0  0  0  0
 26 28  1  0  0  0  0
M  END
$$$$
default_name
  -OEChem-02102213163D

 31 30  0     1  0  0  0  0  0999 V2000
   -3.0760   -3.6390    1.5496 H   0  0  0  0  0  0  0  0  0  0  0  0
   -3.0940   -2.6290    1.1426 C   0  0  0  0  0  0  0  0  0  0  0  0
   -3.7160   -1.9930    1.7706 H   0  0  0  0  0  0  0  0  0  0  0  0
   -3.4880   -2.6500    0.1286 H   0  0  0  0  0  0  0  0  0  0  0  0
   -1.6860   -2.0850    1.1196 C   0  0  0  0  0  0  0  0  0  0  0  0
   -0.7540   -2.7700    1.5226 O   0  0  0  0  0  0  0  0  0  0  0  0
   -1.5320   -0.8490    0.6496 N   0  0  0  0  0  0  0  0  0  0  0  0
   -2.3500   -0.3360    0.3566 H   0  0  0  0  0  0  0  0  0  0  0  0
   -0.2470   -0.1410    0.5576 C   0  0  1  0  0  0  0  0  0  0  0  0
    0.4239   -0.7541   -0.0450 H   0  0  0  0  0  0  0  0  0  0  0  0
   -0.4317    1.2160   -0.1683 C   0  0  1  0  0  0  0  0  0  0  0  0
    0.4388    1.8298    0.0710 H   0  0  0  0  0  0  0  0  0  0  0  0
   -0.4891    1.0608   -1.7001 C   0  0  0  0  0  0  0  0  0  0  0  0
   -1.3870    0.5162   -1.9974 H   0  0  0  0  0  0  0  0  0  0  0  0
   -0.4909    2.0384   -2.1795 H   0  0  0  0  0  0  0  0  0  0  0  0
    0.3864    0.5169   -2.0566 H   0  0  0  0  0  0  0  0  0  0  0  0
   -1.6789    1.9608    0.3582 C   0  0  0  0  0  0  0  0  0  0  0  0
   -2.5612    1.6534   -0.2048 H   0  0  0  0  0  0  0  0  0  0  0  0
   -1.8307    1.6946    1.4042 H   0  0  0  0  0  0  0  0  0  0  0  0
   -1.5608    3.4893    0.2873 C   0  0  0  0  0  0  0  0  0  0  0  0
   -1.5139    3.8215   -0.7496 H   0  0  0  0  0  0  0  0  0  0  0  0
   -2.4360    3.9396    0.7563 H   0  0  0  0  0  0  0  0  0  0  0  0
   -0.6662    3.8193    0.8166 H   0  0  0  0  0  0  0  0  0  0  0  0
    0.3833   -0.0008    1.9525 C   0  0  0  0  0  0  0  0  0  0  0  0
    1.5803   -0.2304    2.1189 O   0  0  0  0  0  0  0  0  0  0  0  0
   -0.4170    0.3858    2.9541 N   0  0  0  0  0  0  0  0  0  0  0  0
   -1.3850    0.5669    2.7398 H   0  0  0  0  0  0  0  0  0  0  0  0
    0.0265    0.5600    4.3358 C   0  0  0  0  0  0  0  0  0  0  0  0
    0.8964    1.2200    4.3632 H   0  0  0  0  0  0  0  0  0  0  0  0
   -0.7726    0.9946    4.9382 H   0  0  0  0  0  0  0  0  0  0  0  0
    0.3119   -0.4069    4.7547 H   0  0  0  0  0  0  0  0  0  0  0  0
  5  6  2  0  0  0  0
  5  7  1  0  0  0  0
  2  3  1  0  0  0  0
  2  4  1  0  0  0  0
  2  5  1  0  0  0  0
  1  2  1  0  0  0  0
 24 25  2  0  0  0  0
 24 26  1  0  0  0  0
 20 21  1  0  0  0  0
 20 22  1  0  0  0  0
 20 23  1  0  0  0  0
 17 18  1  0  0  0  0
 17 19  1  0  0  0  0
 17 20  1  0  0  0  0
 13 14  1  0  0  0  0
 13 15  1  0  0  0  0
 13 16  1  0  0  0  0
 11 12  1  0  0  0  0
 11 13  1  0  0  0  0
 11 17  1  0  0  0  0
  9 10  1  0  0  0  0
  9 11  1  0  0  0  0
  9 24  1  0  0  0  0
  7  8  1  0  0  0  0
  7  9  1  0  0  0  0
 28 29  1  0  0  0  0
 28 30  1  0  0  0  0
 28 31  1  0  0  0  0
 26 27  1  0  0  0  0
 26 28  1  0  0  0  0
M  END
$$$$
default_name
  -OEChem-02102213163D

 31 30  0     1  0  0  0  0  0999 V2000
   -3.0760   -3.6390    1.5496 H   0  0  0  0  0  0  0  0  0  0  0  0
   -3.0940   -2.6290    1.1426 C   0  0  0  0  0  0  0  0  0  0  0  0
   -3.7160   -1.9930    1.7706 H   0  0  0  0  0  0  0  0  0  0  0  0
   -3.4880   -2.6500    0.1286 H   0  0  0  0  0  0  0  0  0  0  0  0
   -1.6860   -2.0850    1.1196 C   0  0  0  0  0  0  0  0  0  0  0  0
   -0.7540   -2.7700    1.5226 O   0  0  0  0  0  0  0  0  0  0  0  0
   -1.5320   -0.8490    0.6496 N   0  0  0  0  0  0  0  0  0  0  0  0
   -2.3500   -0.3360    0.3566 H   0  0  0  0  0  0  0  0  0  0  0  0
   -0.2470   -0.1410    0.5576 C   0  0  1  0  0  0  0  0  0  0  0  0
    0.4239   -0.7541   -0.0450 H   0  0  0  0  0  0  0  0  0  0  0  0
   -0.4317    1.2160   -0.1683 C   0  0  1  0  0  0  0  0  0  0  0  0
    0.4388    1.8298    0.0710 H   0  0  0  0  0  0  0  0  0  0  0  0
   -0.4891    1.0608   -1.7001 C   0  0  0  0  0  0  0  0  0  0  0  0
   -1.3870    0.5162   -1.9974 H   0  0  0  0  0  0  0  0  0  0  0  0
   -0.4909    2.0384   -2.1795 H   0  0  0  0  0  0  0  0  0  0  0  0
    0.3864    0.5169   -2.0566 H   0  0  0  0  0  0  0  0  0  0  0  0
   -1.6789    1.9608    0.3582 C   0  0  0  0  0  0  0  0  0  0  0  0
   -2.5845    1.4746   -0.0070 H   0  0  0  0  0  0  0  0  0  0  0  0
   -1.6812    1.9146    1.4471 H   0  0  0  0  0  0  0  0  0  0  0  0
   -1.7255    3.4430   -0.0371 C   0  0  0  0  0  0  0  0  0  0  0  0
   -1.8324    3.5475   -1.1167 H   0  0  0  0  0  0  0  0  0  0  0  0
   -2.5818    3.9165    0.4435 H   0  0  0  0  0  0  0  0  0  0  0  0
   -0.8139    3.9449    0.2890 H   0  0  0  0  0  0  0  0  0  0  0  0
    0.3833   -0.0008    1.9525 C   0  0  0  0  0  0  0  0  0  0  0  0
    1.5803   -0.2304    2.1189 O   0  0  0  0  0  0  0  0  0  0  0  0
   -0.4170    0.3858    2.9541 N   0  0  0  0  0  0  0  0  0  0  0  0
   -1.3850    0.5669    2.7398 H   0  0  0  0  0  0  0  0  0  0  0  0
    0.0265    0.5600    4.3358 C   0  0  0  0  0  0  0  0  0  0  0  0
    0.8964    1.2200    4.3632 H   0  0  0  0  0  0  0  0  0  0  0  0
   -0.7726    0.9946    4.9382 H   0  0  0  0  0  0  0  0  0  0  0  0
    0.3119   -0.4069    4.7547 H   0  0  0  0  0  0  0  0  0  0  0  0
  5  6  2  0  0  0  0
  5  7  1  0  0  0  0
  2  3  1  0  0  0  0
  2  4  1  0  0  0  0
  2  5  1  0  0  0  0
  1  2  1  0  0  0  0
 24 25  2  0  0  0  0
 24 26  1  0  0  0  0
 20 21  1  0  0  0  0
 20 22  1  0  0  0  0
 20 23  1  0  0  0  0
 17 18  1  0  0  0  0
 17 19  1  0  0  0  0
 17 20  1  0  0  0  0
 13 14  1  0  0  0  0
 13 15  1  0  0  0  0
 13 16  1  0  0  0  0
 11 12  1  0  0  0  0
 11 13  1  0  0  0  0
 11 17  1  0  0  0  0
  9 10  1  0  0  0  0
  9 11  1  0  0  0  0
  9 24  1  0  0  0  0
  7  8  1  0  0  0  0
  7  9  1  0  0  0  0
 28 29  1  0  0  0  0
 28 30  1  0  0  0  0
 28 31  1  0  0  0  0
 26 27  1  0  0  0  0
 26 28  1  0  0  0  0
M  END
$$$$
default_name
  -OEChem-02102213163D

 31 30  0     1  0  0  0  0  0999 V2000
   -3.0760   -3.6390    1.5496 H   0  0  0  0  0  0  0  0  0  0  0  0
   -3.0940   -2.6290    1.1426 C   0  0  0  0  0  0  0  0  0  0  0  0
   -3.7160   -1.9930    1.7706 H   0  0  0  0  0  0  0  0  0  0  0  0
   -3.4880   -2.6500    0.1286 H   0  0  0  0  0  0  0  0  0  0  0  0
   -1.6860   -2.0850    1.1196 C   0  0  0  0  0  0  0  0  0  0  0  0
   -0.7540   -2.7700    1.5226 O   0  0  0  0  0  0  0  0  0  0  0  0
   -1.5320   -0.8490    0.6496 N   0  0  0  0  0  0  0  0  0  0  0  0
   -2.3500   -0.3360    0.3566 H   0  0  0  0  0  0  0  0  0  0  0  0
   -0.2470   -0.1410    0.5576 C   0  0  1  0  0  0  0  0  0  0  0  0
    0.4239   -0.7541   -0.0450 H   0  0  0  0  0  0  0  0  0  0  0  0
   -0.4317    1.2160   -0.1683 C   0  0  1  0  0  0  0  0  0  0  0  0
    0.5365    1.7203   -0.1585 H   0  0  0  0  0  0  0  0  0  0  0  0
   -0.8554    1.0434   -1.6395 C   0  0  0  0  0  0  0  0  0  0  0  0
   -1.8552    0.6101   -1.7028 H   0  0  0  0  0  0  0  0  0  0  0  0
   -0.8517    2.0053   -2.1496 H   0  0  0  0  0  0  0  0  0  0  0  0
   -0.1548    0.3885   -2.1588 H   0  0  0  0  0  0  0  0  0  0  0  0
   -1.4291    2.1194    0.5910 C   0  0  0  0  0  0  0  0  0  0  0  0
   -2.3904    1.6131    0.6880 H   0  0  0  0  0  0  0  0  0  0  0  0
   -1.0396    2.3083    1.5913 H   0  0  0  0  0  0  0  0  0  0  0  0
   -1.6585    3.4825   -0.0758 C   0  0  0  0  0  0  0  0  0  0  0  0
   -2.1483    3.3581   -1.0414 H   0  0  0  0  0  0  0  0  0  0  0  0
   -2.2995    4.0914    0.5621 H   0  0  0  0  0  0  0  0  0  0  0  0
   -0.7060    3.9953   -0.2137 H   0  0  0  0  0  0  0  0  0  0  0  0
    0.3833   -0.0008    1.9525 C   0  0  0  0  0  0  0  0  0  0  0  0
    1.5803   -0.2304    2.1189 O   0  0  0  0  0  0  0  0  0  0  0  0
   -0.4170    0.3858    2.9541 N   0  0  0  0  0  0  0  0  0  0  0  0
   -1.3850    0.5669    2.7398 H   0  0  0  0  0  0  0  0  0  0  0  0
    0.0265    0.5600    4.3358 C   0  0  0  0  0  0  0  0  0  0  0  0
    0.8964    1.2200    4.3632 H   0  0  0  0  0  0  0  0  0  0  0  0
   -0.7726    0.9946    4.9382 H   0  0  0  0  0  0  0  0  0  0  0  0
    0.3119   -0.4069    4.7547 H   0  0  0  0  0  0  0  0  0  0  0  0
  5  6  2  0  0  0  0
  5  7  1  0  0  0  0
  2  3  1  0  0  0  0
  2  4  1  0  0  0  0
  2  5  1  0  0  0  0
  1  2  1  0  0  0  0
 24 25  2  0  0  0  0
 24 26  1  0  0  0  0
 20 21  1  0  0  0  0
 20 22  1  0  0  0  0
 20 23  1  0  0  0  0
 17 18  1  0  0  0  0
 17 19  1  0  0  0  0
 17 20  1  0  0  0  0
 13 14  1  0  0  0  0
 13 15  1  0  0  0  0
 13 16  1  0  0  0  0
 11 12  1  0  0  0  0
 11 13  1  0  0  0  0
 11 17  1  0  0  0  0
  9 10  1  0  0  0  0
  9 11  1  0  0  0  0
  9 24  1  0  0  0  0
  7  8  1  0  0  0  0
  7  9  1  0  0  0  0
 28 29  1  0  0  0  0
 28 30  1  0  0  0  0
 28 31  1  0  0  0  0
 26 27  1  0  0  0  0
 26 28  1  0  0  0  0
M  END
$$$$
default_name
  -OEChem-02102213163D

 31 30  0     1  0  0  0  0  0999 V2000
   -3.0760   -3.6390    1.5496 H   0  0  0  0  0  0  0  0  0  0  0  0
   -3.0940   -2.6290    1.1426 C   0  0  0  0  0  0  0  0  0  0  0  0
   -3.7160   -1.9930    1.7706 H   0  0  0  0  0  0  0  0  0  0  0  0
   -3.4880   -2.6500    0.1286 H   0  0  0  0  0  0  0  0  0  0  0  0
   -1.6860   -2.0850    1.1196 C   0  0  0  0  0  0  0  0  0  0  0  0
   -0.7540   -2.7700    1.5226 O   0  0  0  0  0  0  0  0  0  0  0  0
   -1.5320   -0.8490    0.6496 N   0  0  0  0  0  0  0  0  0  0  0  0
   -2.3500   -0.3360    0.3566 H   0  0  0  0  0  0  0  0  0  0  0  0
   -0.2470   -0.1410    0.5576 C   0  0  1  0  0  0  0  0  0  0  0  0
    0.4239   -0.7541   -0.0450 H   0  0  0  0  0  0  0  0  0  0  0  0
   -0.4317    1.2160   -0.1683 C   0  0  1  0  0  0  0  0  0  0  0  0
    0.5365    1.7203   -0.1585 H   0  0  0  0  0  0  0  0  0  0  0  0
   -0.8554    1.0434   -1.6395 C   0  0  0  0  0  0  0  0  0  0  0  0
   -1.8552    0.6101   -1.7028 H   0  0  0  0  0  0  0  0  0  0  0  0
   -0.8517    2.0053   -2.1496 H   0  0  0  0  0  0  0  0  0  0  0  0
   -0.1548    0.3885   -2.1588 H   0  0  0  0  0  0  0  0  0  0  0  0
   -1.4291    2.1194    0.5910 C   0  0  0  0  0  0  0  0  0  0  0  0
   -2.2868    1.5317    0.9210 H   0  0  0  0  0  0  0  0  0  0  0  0
   -0.9333    2.5255    1.4726 H   0  0  0  0  0  0  0  0  0  0  0  0
   -1.9385    3.3077   -0.2357 C   0  0  0  0  0  0  0  0  0  0  0  0
   -2.5369    2.9594   -1.0774 H   0  0  0  0  0  0  0  0  0  0  0  0
   -2.5624    3.9426    0.3939 H   0  0  0  0  0  0  0  0  0  0  0  0
   -1.0962    3.8936   -0.6052 H   0  0  0  0  0  0  0  0  0  0  0  0
    0.3833   -0.0008    1.9525 C   0  0  0  0  0  0  0  0  0  0  0  0
    1.5803   -0.2304    2.1189 O   0  0  0  0  0  0  0  0  0  0  0  0
   -0.4170    0.3858    2.9541 N   0  0  0  0  0  0  0  0  0  0  0  0
   -1.3850    0.5669    2.7398 H   0  0  0  0  0  0  0  0  0  0  0  0
    0.0265    0.5600    4.3358 C   0  0  0  0  0  0  0  0  0  0  0  0
    0.8964    1.2200    4.3632 H   0  0  0  0  0  0  0  0  0  0  0  0
   -0.7726    0.9946    4.9382 H   0  0  0  0  0  0  0  0  0  0  0  0
    0.3119   -0.4069    4.7547 H   0  0  0  0  0  0  0  0  0  0  0  0
  5  6  2  0  0  0  0
  5  7  1  0  0  0  0
  2  3  1  0  0  0  0
  2  4  1  0  0  0  0
  2  5  1  0  0  0  0
  1  2  1  0  0  0  0
 24 25  2  0  0  0  0
 24 26  1  0  0  0  0
 20 21  1  0  0  0  0
 20 22  1  0  0  0  0
 20 23  1  0  0  0  0
 17 18  1  0  0  0  0
 17 19  1  0  0  0  0
 17 20  1  0  0  0  0
 13 14  1  0  0  0  0
 13 15  1  0  0  0  0
 13 16  1  0  0  0  0
 11 12  1  0  0  0  0
 11 13  1  0  0  0  0
 11 17  1  0  0  0  0
  9 10  1  0  0  0  0
  9 11  1  0  0  0  0
  9 24  1  0  0  0  0
  7  8  1  0  0  0  0
  7  9  1  0  0  0  0
 28 29  1  0  0  0  0
 28 30  1  0  0  0  0
 28 31  1  0  0  0  0
 26 27  1  0  0  0  0
 26 28  1  0  0  0  0
M  END
$$$$
default_name
  -OEChem-02102213163D

 31 30  0     1  0  0  0  0  0999 V2000
   -3.0760   -3.6390    1.5496 H   0  0  0  0  0  0  0  0  0  0  0  0
   -3.0940   -2.6290    1.1426 C   0  0  0  0  0  0  0  0  0  0  0  0
   -3.7160   -1.9930    1.7706 H   0  0  0  0  0  0  0  0  0  0  0  0
   -3.4880   -2.6500    0.1286 H   0  0  0  0  0  0  0  0  0  0  0  0
   -1.6860   -2.0850    1.1196 C   0  0  0  0  0  0  0  0  0  0  0  0
   -0.7540   -2.7700    1.5226 O   0  0  0  0  0  0  0  0  0  0  0  0
   -1.5320   -0.8490    0.6496 N   0  0  0  0  0  0  0  0  0  0  0  0
   -2.3500   -0.3360    0.3566 H   0  0  0  0  0  0  0  0  0  0  0  0
   -0.2470   -0.1410    0.5576 C   0  0  1  0  0  0  0  0  0  0  0  0
    0.4239   -0.7541   -0.0450 H   0  0  0  0  0  0  0  0  0  0  0  0
   -0.4317    1.2160   -0.1683 C   0  0  1  0  0  0  0  0  0  0  0  0
    0.5365    1.7203   -0.1585 H   0  0  0  0  0  0  0  0  0  0  0  0
   -0.8554    1.0434   -1.6395 C   0  0  0  0  0  0  0  0  0  0  0  0
   -1.8552    0.6101   -1.7028 H   0  0  0  0  0  0  0  0  0  0  0  0
   -0.8517    2.0053   -2.1496 H   0  0  0  0  0  0  0  0  0  0  0  0
   -0.1548    0.3885   -2.1588 H   0  0  0  0  0  0  0  0  0  0  0  0
   -1.4291    2.1194    0.5910 C   0  0  0  0  0  0  0  0  0  0  0  0
   -2.1411    1.5052    1.1439 H   0  0  0  0  0  0  0  0  0  0  0  0
   -0.8761    2.7290    1.3056 H   0  0  0  0  0  0  0  0  0  0  0  0
   -2.2110    3.0766   -0.3187 C   0  0  0  0  0  0  0  0  0  0  0  0
   -2.8669    2.5188   -0.9868 H   0  0  0  0  0  0  0  0  0  0  0  0
   -2.8229    3.7372    0.2960 H   0  0  0  0  0  0  0  0  0  0  0  0
   -1.5194    3.6803   -0.9073 H   0  0  0  0  0  0  0  0  0  0  0  0
    0.3833   -0.0008    1.9525 C   0  0  0  0  0  0  0  0  0  0  0  0
    1.5803   -0.2304    2.1189 O   0  0  0  0  0  0  0  0  0  0  0  0
   -0.4170    0.3858    2.9541 N   0  0  0  0  0  0  0  0  0  0  0  0
   -1.3850    0.5669    2.7398 H   0  0  0  0  0  0  0  0  0  0  0  0
    0.0265    0.5600    4.3358 C   0  0  0  0  0  0  0  0  0  0  0  0
    0.8964    1.2200    4.3632 H   0  0  0  0  0  0  0  0  0  0  0  0
   -0.7726    0.9946    4.9382 H   0  0  0  0  0  0  0  0  0  0  0  0
    0.3119   -0.4069    4.7547 H   0  0  0  0  0  0  0  0  0  0  0  0
  5  6  2  0  0  0  0
  5  7  1  0  0  0  0
  2  3  1  0  0  0  0
  2  4  1  0  0  0  0
  2  5  1  0  0  0  0
  1  2  1  0  0  0  0
 24 25  2  0  0  0  0
 24 26  1  0  0  0  0
 20 21  1  0  0  0  0
 20 22  1  0  0  0  0
 20 23  1  0  0  0  0
 17 18  1  0  0  0  0
 17 19  1  0  0  0  0
 17 20  1  0  0  0  0
 13 14  1  0  0  0  0
 13 15  1  0  0  0  0
 13 16  1  0  0  0  0
 11 12  1  0  0  0  0
 11 13  1  0  0  0  0
 11 17  1  0  0  0  0
  9 10  1  0  0  0  0
  9 11  1  0  0  0  0
  9 24  1  0  0  0  0
  7  8  1  0  0  0  0
  7  9  1  0  0  0  0
 28 29  1  0  0  0  0
 28 30  1  0  0  0  0
 28 31  1  0  0  0  0
 26 27  1  0  0  0  0
 26 28  1  0  0  0  0
M  END
$$$$
default_name
  -OEChem-02102213163D

 31 30  0     1  0  0  0  0  0999 V2000
   -3.0760   -3.6390    1.5496 H   0  0  0  0  0  0  0  0  0  0  0  0
   -3.0940   -2.6290    1.1426 C   0  0  0  0  0  0  0  0  0  0  0  0
   -3.7160   -1.9930    1.7706 H   0  0  0  0  0  0  0  0  0  0  0  0
   -3.4880   -2.6500    0.1286 H   0  0  0  0  0  0  0  0  0  0  0  0
   -1.6860   -2.0850    1.1196 C   0  0  0  0  0  0  0  0  0  0  0  0
   -0.7540   -2.7700    1.5226 O   0  0  0  0  0  0  0  0  0  0  0  0
   -1.5320   -0.8490    0.6496 N   0  0  0  0  0  0  0  0  0  0  0  0
   -2.3500   -0.3360    0.3566 H   0  0  0  0  0  0  0  0  0  0  0  0
   -0.2470   -0.1410    0.5576 C   0  0  1  0  0  0  0  0  0  0  0  0
    0.4239   -0.7541   -0.0450 H   0  0  0  0  0  0  0  0  0  0  0  0
   -0.4317    1.2160   -0.1683 C   0  0  1  0  0  0  0  0  0  0  0  0
    0.5365    1.7203   -0.1585 H   0  0  0  0  0  0  0  0  0  0  0  0
   -0.8554    1.0434   -1.6395 C   0  0  0  0  0  0  0  0  0  0  0  0
   -1.8552    0.6101   -1.7028 H   0  0  0  0  0  0  0  0  0  0  0  0
   -0.8517    2.0053   -2.1496 H   0  0  0  0  0  0  0  0  0  0  0  0
   -0.1548    0.3885   -2.1588 H   0  0  0  0  0  0  0  0  0  0  0  0
   -1.4291    2.1194    0.5910 C   0  0  0  0  0  0  0  0  0  0  0  0
   -1.9632    1.5353    1.3417 H   0  0  0  0  0  0  0  0  0  0  0  0
   -0.8721    2.9049    1.1016 H   0  0  0  0  0  0  0  0  0  0  0  0
   -2.4574    2.8049   -0.3189 C   0  0  0  0  0  0  0  0  0  0  0  0
   -3.1160    2.0664   -0.7757 H   0  0  0  0  0  0  0  0  0  0  0  0
   -3.0632    3.4894    0.2751 H   0  0  0  0  0  0  0  0  0  0  0  0
   -1.9467    3.3700   -1.0994 H   0  0  0  0  0  0  0  0  0  0  0  0
    0.3833   -0.0008    1.9525 C   0  0  0  0  0  0  0  0  0  0  0  0
    1.5803   -0.2304    2.1189 O   0  0  0  0  0  0  0  0  0  0  0  0
   -0.4170    0.3858    2.9541 N   0  0  0  0  0  0  0  0  0  0  0  0
   -1.3850    0.5669    2.7398 H   0  0  0  0  0  0  0  0  0  0  0  0
    0.0265    0.5600    4.3358 C   0  0  0  0  0  0  0  0  0  0  0  0
    0.8964    1.2200    4.3632 H   0  0  0  0  0  0  0  0  0  0  0  0
   -0.7726    0.9946    4.9382 H   0  0  0  0  0  0  0  0  0  0  0  0
    0.3119   -0.4069    4.7547 H   0  0  0  0  0  0  0  0  0  0  0  0
  5  6  2  0  0  0  0
  5  7  1  0  0  0  0
  2  3  1  0  0  0  0
  2  4  1  0  0  0  0
  2  5  1  0  0  0  0
  1  2  1  0  0  0  0
 24 25  2  0  0  0  0
 24 26  1  0  0  0  0
 20 21  1  0  0  0  0
 20 22  1  0  0  0  0
 20 23  1  0  0  0  0
 17 18  1  0  0  0  0
 17 19  1  0  0  0  0
 17 20  1  0  0  0  0
 13 14  1  0  0  0  0
 13 15  1  0  0  0  0
 13 16  1  0  0  0  0
 11 12  1  0  0  0  0
 11 13  1  0  0  0  0
 11 17  1  0  0  0  0
  9 10  1  0  0  0  0
  9 11  1  0  0  0  0
  9 24  1  0  0  0  0
  7  8  1  0  0  0  0
  7  9  1  0  0  0  0
 28 29  1  0  0  0  0
 28 30  1  0  0  0  0
 28 31  1  0  0  0  0
 26 27  1  0  0  0  0
 26 28  1  0  0  0  0
M  END
$$$$
default_name
  -OEChem-02102213163D

 31 30  0     1  0  0  0  0  0999 V2000
   -3.0760   -3.6390    1.5496 H   0  0  0  0  0  0  0  0  0  0  0  0
   -3.0940   -2.6290    1.1426 C   0  0  0  0  0  0  0  0  0  0  0  0
   -3.7160   -1.9930    1.7706 H   0  0  0  0  0  0  0  0  0  0  0  0
   -3.4880   -2.6500    0.1286 H   0  0  0  0  0  0  0  0  0  0  0  0
   -1.6860   -2.0850    1.1196 C   0  0  0  0  0  0  0  0  0  0  0  0
   -0.7540   -2.7700    1.5226 O   0  0  0  0  0  0  0  0  0  0  0  0
   -1.5320   -0.8490    0.6496 N   0  0  0  0  0  0  0  0  0  0  0  0
   -2.3500   -0.3360    0.3566 H   0  0  0  0  0  0  0  0  0  0  0  0
   -0.2470   -0.1410    0.5576 C   0  0  1  0  0  0  0  0  0  0  0  0
    0.4239   -0.7541   -0.0450 H   0  0  0  0  0  0  0  0  0  0  0  0
   -0.4317    1.2160   -0.1683 C   0  0  1  0  0  0  0  0  0  0  0  0
    0.5365    1.7203   -0.1585 H   0  0  0  0  0  0  0  0  0  0  0  0
   -0.8554    1.0434   -1.6395 C   0  0  0  0  0  0  0  0  0  0  0  0
   -1.8552    0.6101   -1.7028 H   0  0  0  0  0  0  0  0  0  0  0  0
   -0.8517    2.0053   -2.1496 H   0  0  0  0  0  0  0  0  0  0  0  0
   -0.1548    0.3885   -2.1588 H   0  0  0  0  0  0  0  0  0  0  0  0
   -1.4291    2.1194    0.5910 C   0  0  0  0  0  0  0  0  0  0  0  0
   -1.7653    1.6201    1.5007 H   0  0  0  0  0  0  0  0  0  0  0  0
   -0.9214    3.0413    0.8745 H   0  0  0  0  0  0  0  0  0  0  0  0
   -2.6608    2.5110   -0.2365 C   0  0  0  0  0  0  0  0  0  0  0  0
   -3.2671    1.6330   -0.4585 H   0  0  0  0  0  0  0  0  0  0  0  0
   -3.2670    3.2160    0.3328 H   0  0  0  0  0  0  0  0  0  0  0  0
   -2.3491    2.9838   -1.1685 H   0  0  0  0  0  0  0  0  0  0  0  0
    0.3833   -0.0008    1.9525 C   0  0  0  0  0  0  0  0  0  0  0  0
    1.5803   -0.2304    2.1189 O   0  0  0  0  0  0  0  0  0  0  0  0
   -0.4170    0.3858    2.9541 N   0  0  0  0  0  0  0  0  0  0  0  0
   -1.3850    0.5669    2.7398 H   0  0  0  0  0  0  0  0  0  0  0  0
    0.0265    0.5600    4.3358 C   0  0  0  0  0  0  0  0  0  0  0  0
    0.8964    1.2200    4.3632 H   0  0  0  0  0  0  0  0  0  0  0  0
   -0.7726    0.9946    4.9382 H   0  0  0  0  0  0  0  0  0  0  0  0
    0.3119   -0.4069    4.7547 H   0  0  0  0  0  0  0  0  0  0  0  0
  5  6  2  0  0  0  0
  5  7  1  0  0  0  0
  2  3  1  0  0  0  0
  2  4  1  0  0  0  0
  2  5  1  0  0  0  0
  1  2  1  0  0  0  0
 24 25  2  0  0  0  0
 24 26  1  0  0  0  0
 20 21  1  0  0  0  0
 20 22  1  0  0  0  0
 20 23  1  0  0  0  0
 17 18  1  0  0  0  0
 17 19  1  0  0  0  0
 17 20  1  0  0  0  0
 13 14  1  0  0  0  0
 13 15  1  0  0  0  0
 13 16  1  0  0  0  0
 11 12  1  0  0  0  0
 11 13  1  0  0  0  0
 11 17  1  0  0  0  0
  9 10  1  0  0  0  0
  9 11  1  0  0  0  0
  9 24  1  0  0  0  0
  7  8  1  0  0  0  0
  7  9  1  0  0  0  0
 28 29  1  0  0  0  0
 28 30  1  0  0  0  0
 28 31  1  0  0  0  0
 26 27  1  0  0  0  0
 26 28  1  0  0  0  0
M  END
$$$$
default_name
  -OEChem-02102213163D

 31 30  0     1  0  0  0  0  0999 V2000
   -3.0760   -3.6390    1.5496 H   0  0  0  0  0  0  0  0  0  0  0  0
   -3.0940   -2.6290    1.1426 C   0  0  0  0  0  0  0  0  0  0  0  0
   -3.7160   -1.9930    1.7706 H   0  0  0  0  0  0  0  0  0  0  0  0
   -3.4880   -2.6500    0.1286 H   0  0  0  0  0  0  0  0  0  0  0  0
   -1.6860   -2.0850    1.1196 C   0  0  0  0  0  0  0  0  0  0  0  0
   -0.7540   -2.7700    1.5226 O   0  0  0  0  0  0  0  0  0  0  0  0
   -1.5320   -0.8490    0.6496 N   0  0  0  0  0  0  0  0  0  0  0  0
   -2.3500   -0.3360    0.3566 H   0  0  0  0  0  0  0  0  0  0  0  0
   -0.2470   -0.1410    0.5576 C   0  0  1  0  0  0  0  0  0  0  0  0
    0.4239   -0.7541   -0.0450 H   0  0  0  0  0  0  0  0  0  0  0  0
   -0.4317    1.2160   -0.1683 C   0  0  1  0  0  0  0  0  0  0  0  0
    0.5365    1.7203   -0.1585 H   0  0  0  0  0  0  0  0  0  0  0  0
   -0.8554    1.0434   -1.6395 C   0  0  0  0  0  0  0  0  0  0  0  0
   -1.8552    0.6101   -1.7028 H   0  0  0  0  0  0  0  0  0  0  0  0
   -0.8517    2.0053   -2.1496 H   0  0  0  0  0  0  0  0  0  0  0  0
   -0.1548    0.3885   -2.1588 H   0  0  0  0  0  0  0  0  0  0  0  0
   -1.4291    2.1194    0.5910 C   0  0  0  0  0  0  0  0  0  0  0  0
   -1.5609    1.7537    1.6102 H   0  0  0  0  0  0  0  0  0  0  0  0
   -1.0208    3.1288    0.6399 H   0  0  0  0  0  0  0  0  0  0  0  0
   -2.8074    2.2150   -0.0770 C   0  0  0  0  0  0  0  0  0  0  0  0
   -3.3099    1.2482   -0.0569 H   0  0  0  0  0  0  0  0  0  0  0  0
   -3.4204    2.9356    0.4650 H   0  0  0  0  0  0  0  0  0  0  0  0
   -2.6991    2.5481   -1.1098 H   0  0  0  0  0  0  0  0  0  0  0  0
    0.3833   -0.0008    1.9525 C   0  0  0  0  0  0  0  0  0  0  0  0
    1.5803   -0.2304    2.1189 O   0  0  0  0  0  0  0  0  0  0  0  0
   -0.4170    0.3858    2.9541 N   0  0  0  0  0  0  0  0  0  0  0  0
   -1.3850    0.5669    2.7398 H   0  0  0  0  0  0  0  0  0  0  0  0
    0.0265    0.5600    4.3358 C   0  0  0  0  0  0  0  0  0  0  0  0
    0.8964    1.2200    4.3632 H   0  0  0  0  0  0  0  0  0  0  0  0
   -0.7726    0.9946    4.9382 H   0  0  0  0  0  0  0  0  0  0  0  0
    0.3119   -0.4069    4.7547 H   0  0  0  0  0  0  0  0  0  0  0  0
  5  6  2  0  0  0  0
  5  7  1  0  0  0  0
  2  3  1  0  0  0  0
  2  4  1  0  0  0  0
  2  5  1  0  0  0  0
  1  2  1  0  0  0  0
 24 25  2  0  0  0  0
 24 26  1  0  0  0  0
 20 21  1  0  0  0  0
 20 22  1  0  0  0  0
 20 23  1  0  0  0  0
 17 18  1  0  0  0  0
 17 19  1  0  0  0  0
 17 20  1  0  0  0  0
 13 14  1  0  0  0  0
 13 15  1  0  0  0  0
 13 16  1  0  0  0  0
 11 12  1  0  0  0  0
 11 13  1  0  0  0  0
 11 17  1  0  0  0  0
  9 10  1  0  0  0  0
  9 11  1  0  0  0  0
  9 24  1  0  0  0  0
  7  8  1  0  0  0  0
  7  9  1  0  0  0  0
 28 29  1  0  0  0  0
 28 30  1  0  0  0  0
 28 31  1  0  0  0  0
 26 27  1  0  0  0  0
 26 28  1  0  0  0  0
M  END
$$$$
default_name
  -OEChem-02102213163D

 31 30  0     1  0  0  0  0  0999 V2000
   -3.0760   -3.6390    1.5496 H   0  0  0  0  0  0  0  0  0  0  0  0
   -3.0940   -2.6290    1.1426 C   0  0  0  0  0  0  0  0  0  0  0  0
   -3.7160   -1.9930    1.7706 H   0  0  0  0  0  0  0  0  0  0  0  0
   -3.4880   -2.6500    0.1286 H   0  0  0  0  0  0  0  0  0  0  0  0
   -1.6860   -2.0850    1.1196 C   0  0  0  0  0  0  0  0  0  0  0  0
   -0.7540   -2.7700    1.5226 O   0  0  0  0  0  0  0  0  0  0  0  0
   -1.5320   -0.8490    0.6496 N   0  0  0  0  0  0  0  0  0  0  0  0
   -2.3500   -0.3360    0.3566 H   0  0  0  0  0  0  0  0  0  0  0  0
   -0.2470   -0.1410    0.5576 C   0  0  1  0  0  0  0  0  0  0  0  0
    0.4239   -0.7541   -0.0450 H   0  0  0  0  0  0  0  0  0  0  0  0
   -0.4317    1.2160   -0.1683 C   0  0  1  0  0  0  0  0  0  0  0  0
    0.5365    1.7203   -0.1585 H   0  0  0  0  0  0  0  0  0  0  0  0
   -0.8554    1.0434   -1.6395 C   0  0  0  0  0  0  0  0  0  0  0  0
   -1.8552    0.6101   -1.7028 H   0  0  0  0  0  0  0  0  0  0  0  0
   -0.8517    2.0053   -2.1496 H   0  0  0  0  0  0  0  0  0  0  0  0
   -0.1548    0.3885   -2.1588 H   0  0  0  0  0  0  0  0  0  0  0  0
   -1.4291    2.1194    0.5910 C   0  0  0  0  0  0  0  0  0  0  0  0
   -1.3638    1.9271    1.6628 H   0  0  0  0  0  0  0  0  0  0  0  0
   -1.1634    3.1615    0.4137 H   0  0  0  0  0  0  0  0  0  0  0  0
   -2.8873    1.9372    0.1487 C   0  0  0  0  0  0  0  0  0  0  0  0
   -3.2416    0.9381    0.4018 H   0  0  0  0  0  0  0  0  0  0  0  0
   -3.5128    2.6673    0.6627 H   0  0  0  0  0  0  0  0  0  0  0  0
   -2.9729    2.0925   -0.9274 H   0  0  0  0  0  0  0  0  0  0  0  0
    0.3833   -0.0008    1.9525 C   0  0  0  0  0  0  0  0  0  0  0  0
    1.5803   -0.2304    2.1189 O   0  0  0  0  0  0  0  0  0  0  0  0
   -0.4170    0.3858    2.9541 N   0  0  0  0  0  0  0  0  0  0  0  0
   -1.3850    0.5669    2.7398 H   0  0  0  0  0  0  0  0  0  0  0  0
    0.0265    0.5600    4.3358 C   0  0  0  0  0  0  0  0  0  0  0  0
    0.8964    1.2200    4.3632 H   0  0  0  0  0  0  0  0  0  0  0  0
   -0.7726    0.9946    4.9382 H   0  0  0  0  0  0  0  0  0  0  0  0
    0.3119   -0.4069    4.7547 H   0  0  0  0  0  0  0  0  0  0  0  0
  5  6  2  0  0  0  0
  5  7  1  0  0  0  0
  2  3  1  0  0  0  0
  2  4  1  0  0  0  0
  2  5  1  0  0  0  0
  1  2  1  0  0  0  0
 24 25  2  0  0  0  0
 24 26  1  0  0  0  0
 20 21  1  0  0  0  0
 20 22  1  0  0  0  0
 20 23  1  0  0  0  0
 17 18  1  0  0  0  0
 17 19  1  0  0  0  0
 17 20  1  0  0  0  0
 13 14  1  0  0  0  0
 13 15  1  0  0  0  0
 13 16  1  0  0  0  0
 11 12  1  0  0  0  0
 11 13  1  0  0  0  0
 11 17  1  0  0  0  0
  9 10  1  0  0  0  0
  9 11  1  0  0  0  0
  9 24  1  0  0  0  0
  7  8  1  0  0  0  0
  7  9  1  0  0  0  0
 28 29  1  0  0  0  0
 28 30  1  0  0  0  0
 28 31  1  0  0  0  0
 26 27  1  0  0  0  0
 26 28  1  0  0  0  0
M  END
$$$$
default_name
  -OEChem-02102213163D

 31 30  0     1  0  0  0  0  0999 V2000
   -3.0760   -3.6390    1.5496 H   0  0  0  0  0  0  0  0  0  0  0  0
   -3.0940   -2.6290    1.1426 C   0  0  0  0  0  0  0  0  0  0  0  0
   -3.7160   -1.9930    1.7706 H   0  0  0  0  0  0  0  0  0  0  0  0
   -3.4880   -2.6500    0.1286 H   0  0  0  0  0  0  0  0  0  0  0  0
   -1.6860   -2.0850    1.1196 C   0  0  0  0  0  0  0  0  0  0  0  0
   -0.7540   -2.7700    1.5226 O   0  0  0  0  0  0  0  0  0  0  0  0
   -1.5320   -0.8490    0.6496 N   0  0  0  0  0  0  0  0  0  0  0  0
   -2.3500   -0.3360    0.3566 H   0  0  0  0  0  0  0  0  0  0  0  0
   -0.2470   -0.1410    0.5576 C   0  0  1  0  0  0  0  0  0  0  0  0
    0.4239   -0.7541   -0.0450 H   0  0  0  0  0  0  0  0  0  0  0  0
   -0.4317    1.2160   -0.1683 C   0  0  1  0  0  0  0  0  0  0  0  0
    0.5365    1.7203   -0.1585 H   0  0  0  0  0  0  0  0  0  0  0  0
   -0.8554    1.0434   -1.6395 C   0  0  0  0  0  0  0  0  0  0  0  0
   -1.8552    0.6101   -1.7028 H   0  0  0  0  0  0  0  0  0  0  0  0
   -0.8517    2.0053   -2.1496 H   0  0  0  0  0  0  0  0  0  0  0  0
   -0.1548    0.3885   -2.1588 H   0  0  0  0  0  0  0  0  0  0  0  0
   -1.4291    2.1194    0.5910 C   0  0  0  0  0  0  0  0  0  0  0  0
   -1.1876    2.1285    1.6547 H   0  0  0  0  0  0  0  0  0  0  0  0
   -1.3395    3.1371    0.2113 H   0  0  0  0  0  0  0  0  0  0  0  0
   -2.8950    1.6963    0.4252 C   0  0  0  0  0  0  0  0  0  0  0  0
   -3.0667    0.7239    0.8864 H   0  0  0  0  0  0  0  0  0  0  0  0
   -3.5380    2.4295    0.9125 H   0  0  0  0  0  0  0  0  0  0  0  0
   -3.1518    1.6480   -0.6336 H   0  0  0  0  0  0  0  0  0  0  0  0
    0.3833   -0.0008    1.9525 C   0  0  0  0  0  0  0  0  0  0  0  0
    1.5803   -0.2304    2.1189 O   0  0  0  0  0  0  0  0  0  0  0  0
   -0.4170    0.3858    2.9541 N   0  0  0  0  0  0  0  0  0  0  0  0
   -1.3850    0.5669    2.7398 H   0  0  0  0  0  0  0  0  0  0  0  0
    0.0265    0.5600    4.3358 C   0  0  0  0  0  0  0  0  0  0  0  0
    0.8964    1.2200    4.3632 H   0  0  0  0  0  0  0  0  0  0  0  0
   -0.7726    0.9946    4.9382 H   0  0  0  0  0  0  0  0  0  0  0  0
    0.3119   -0.4069    4.7547 H   0  0  0  0  0  0  0  0  0  0  0  0
  5  6  2  0  0  0  0
  5  7  1  0  0  0  0
  2  3  1  0  0  0  0
  2  4  1  0  0  0  0
  2  5  1  0  0  0  0
  1  2  1  0  0  0  0
 24 25  2  0  0  0  0
 24 26  1  0  0  0  0
 20 21  1  0  0  0  0
 20 22  1  0  0  0  0
 20 23  1  0  0  0  0
 17 18  1  0  0  0  0
 17 19  1  0  0  0  0
 17 20  1  0  0  0  0
 13 14  1  0  0  0  0
 13 15  1  0  0  0  0
 13 16  1  0  0  0  0
 11 12  1  0  0  0  0
 11 13  1  0  0  0  0
 11 17  1  0  0  0  0
  9 10  1  0  0  0  0
  9 11  1  0  0  0  0
  9 24  1  0  0  0  0
  7  8  1  0  0  0  0
  7  9  1  0  0  0  0
 28 29  1  0  0  0  0
 28 30  1  0  0  0  0
 28 31  1  0  0  0  0
 26 27  1  0  0  0  0
 26 28  1  0  0  0  0
M  END
$$$$
default_name
  -OEChem-02102213163D

 31 30  0     1  0  0  0  0  0999 V2000
   -3.0760   -3.6390    1.5496 H   0  0  0  0  0  0  0  0  0  0  0  0
   -3.0940   -2.6290    1.1426 C   0  0  0  0  0  0  0  0  0  0  0  0
   -3.7160   -1.9930    1.7706 H   0  0  0  0  0  0  0  0  0  0  0  0
   -3.4880   -2.6500    0.1286 H   0  0  0  0  0  0  0  0  0  0  0  0
   -1.6860   -2.0850    1.1196 C   0  0  0  0  0  0  0  0  0  0  0  0
   -0.7540   -2.7700    1.5226 O   0  0  0  0  0  0  0  0  0  0  0  0
   -1.5320   -0.8490    0.6496 N   0  0  0  0  0  0  0  0  0  0  0  0
   -2.3500   -0.3360    0.3566 H   0  0  0  0  0  0  0  0  0  0  0  0
   -0.2470   -0.1410    0.5576 C   0  0  1  0  0  0  0  0  0  0  0  0
    0.4239   -0.7541   -0.0450 H   0  0  0  0  0  0  0  0  0  0  0  0
   -0.4317    1.2160   -0.1683 C   0  0  1  0  0  0  0  0  0  0  0  0
    0.5365    1.7203   -0.1585 H   0  0  0  0  0  0  0  0  0  0  0  0
   -0.8554    1.0434   -1.6395 C   0  0  0  0  0  0  0  0  0  0  0  0
   -1.8552    0.6101   -1.7028 H   0  0  0  0  0  0  0  0  0  0  0  0
   -0.8517    2.0053   -2.1496 H   0  0  0  0  0  0  0  0  0  0  0  0
   -0.1548    0.3885   -2.1588 H   0  0  0  0  0  0  0  0  0  0  0  0
   -1.4291    2.1194    0.5910 C   0  0  0  0  0  0  0  0  0  0  0  0
   -1.0442    2.3440    1.5867 H   0  0  0  0  0  0  0  0  0  0  0  0
   -1.5372    3.0574    0.0465 H   0  0  0  0  0  0  0  0  0  0  0  0
   -2.8299    1.5089    0.7337 C   0  0  0  0  0  0  0  0  0  0  0  0
   -2.7972    0.6202    1.3637 H   0  0  0  0  0  0  0  0  0  0  0  0
   -3.4944    2.2383    1.1974 H   0  0  0  0  0  0  0  0  0  0  0  0
   -3.2236    1.2451   -0.2485 H   0  0  0  0  0  0  0  0  0  0  0  0
    0.3833   -0.0008    1.9525 C   0  0  0  0  0  0  0  0  0  0  0  0
    1.5803   -0.2304    2.1189 O   0  0  0  0  0  0  0  0  0  0  0  0
   -0.4170    0.3858    2.9541 N   0  0  0  0  0  0  0  0  0  0  0  0
   -1.3850    0.5669    2.7398 H   0  0  0  0  0  0  0  0  0  0  0  0
    0.0265    0.5600    4.3358 C   0  0  0  0  0  0  0  0  0  0  0  0
    0.8964    1.2200    4.3632 H   0  0  0  0  0  0  0  0  0  0  0  0
   -0.7726    0.9946    4.9382 H   0  0  0  0  0  0  0  0  0  0  0  0
    0.3119   -0.4069    4.7547 H   0  0  0  0  0  0  0  0  0  0  0  0
  5  6  2  0  0  0  0
  5  7  1  0  0  0  0
  2  3  1  0  0  0  0
  2  4  1  0  0  0  0
  2  5  1  0  0  0  0
  1  2  1  0  0  0  0
 24 25  2  0  0  0  0
 24 26  1  0  0  0  0
 20 21  1  0  0  0  0
 20 22  1  0  0  0  0
 20 23  1  0  0  0  0
 17 18  1  0  0  0  0
 17 19  1  0  0  0  0
 17 20  1  0  0  0  0
 13 14  1  0  0  0  0
 13 15  1  0  0  0  0
 13 16  1  0  0  0  0
 11 12  1  0  0  0  0
 11 13  1  0  0  0  0
 11 17  1  0  0  0  0
  9 10  1  0  0  0  0
  9 11  1  0  0  0  0
  9 24  1  0  0  0  0
  7  8  1  0  0  0  0
  7  9  1  0  0  0  0
 28 29  1  0  0  0  0
 28 30  1  0  0  0  0
 28 31  1  0  0  0  0
 26 27  1  0  0  0  0
 26 28  1  0  0  0  0
M  END
$$$$
default_name
  -OEChem-02102213163D

 31 30  0     1  0  0  0  0  0999 V2000
   -3.0760   -3.6390    1.5496 H   0  0  0  0  0  0  0  0  0  0  0  0
   -3.0940   -2.6290    1.1426 C   0  0  0  0  0  0  0  0  0  0  0  0
   -3.7160   -1.9930    1.7706 H   0  0  0  0  0  0  0  0  0  0  0  0
   -3.4880   -2.6500    0.1286 H   0  0  0  0  0  0  0  0  0  0  0  0
   -1.6860   -2.0850    1.1196 C   0  0  0  0  0  0  0  0  0  0  0  0
   -0.7540   -2.7700    1.5226 O   0  0  0  0  0  0  0  0  0  0  0  0
   -1.5320   -0.8490    0.6496 N   0  0  0  0  0  0  0  0  0  0  0  0
   -2.3500   -0.3360    0.3566 H   0  0  0  0  0  0  0  0  0  0  0  0
   -0.2470   -0.1410    0.5576 C   0  0  1  0  0  0  0  0  0  0  0  0
    0.4239   -0.7541   -0.0450 H   0  0  0  0  0  0  0  0  0  0  0  0
   -0.4317    1.2160   -0.1683 C   0  0  1  0  0  0  0  0  0  0  0  0
    0.5365    1.7203   -0.1585 H   0  0  0  0  0  0  0  0  0  0  0  0
   -0.8554    1.0434   -1.6395 C   0  0  0  0  0  0  0  0  0  0  0  0
   -1.8552    0.6101   -1.7028 H   0  0  0  0  0  0  0  0  0  0  0  0
   -0.8517    2.0053   -2.1496 H   0  0  0  0  0  0  0  0  0  0  0  0
   -0.1548    0.3885   -2.1588 H   0  0  0  0  0  0  0  0  0  0  0  0
   -1.4291    2.1194    0.5910 C   0  0  0  0  0  0  0  0  0  0  0  0
   -0.9434    2.5590    1.4632 H   0  0  0  0  0  0  0  0  0  0  0  0
   -1.7429    2.9277   -0.0694 H   0  0  0  0  0  0  0  0  0  0  0  0
   -2.6965    1.3876    1.0531 C   0  0  0  0  0  0  0  0  0  0  0  0
   -2.4515    0.6340    1.8013 H   0  0  0  0  0  0  0  0  0  0  0  0
   -3.3848    2.1067    1.4979 H   0  0  0  0  0  0  0  0  0  0  0  0
   -3.1835    0.9110    0.2017 H   0  0  0  0  0  0  0  0  0  0  0  0
    0.3833   -0.0008    1.9525 C   0  0  0  0  0  0  0  0  0  0  0  0
    1.5803   -0.2304    2.1189 O   0  0  0  0  0  0  0  0  0  0  0  0
   -0.4170    0.3858    2.9541 N   0  0  0  0  0  0  0  0  0  0  0  0
   -1.3850    0.5669    2.7398 H   0  0  0  0  0  0  0  0  0  0  0  0
    0.0265    0.5600    4.3358 C   0  0  0  0  0  0  0  0  0  0  0  0
    0.8964    1.2200    4.3632 H   0  0  0  0  0  0  0  0  0  0  0  0
   -0.7726    0.9946    4.9382 H   0  0  0  0  0  0  0  0  0  0  0  0
    0.3119   -0.4069    4.7547 H   0  0  0  0  0  0  0  0  0  0  0  0
  5  6  2  0  0  0  0
  5  7  1  0  0  0  0
  2  3  1  0  0  0  0
  2  4  1  0  0  0  0
  2  5  1  0  0  0  0
  1  2  1  0  0  0  0
 24 25  2  0  0  0  0
 24 26  1  0  0  0  0
 20 21  1  0  0  0  0
 20 22  1  0  0  0  0
 20 23  1  0  0  0  0
 17 18  1  0  0  0  0
 17 19  1  0  0  0  0
 17 20  1  0  0  0  0
 13 14  1  0  0  0  0
 13 15  1  0  0  0  0
 13 16  1  0  0  0  0
 11 12  1  0  0  0  0
 11 13  1  0  0  0  0
 11 17  1  0  0  0  0
  9 10  1  0  0  0  0
  9 11  1  0  0  0  0
  9 24  1  0  0  0  0
  7  8  1  0  0  0  0
  7  9  1  0  0  0  0
 28 29  1  0  0  0  0
 28 30  1  0  0  0  0
 28 31  1  0  0  0  0
 26 27  1  0  0  0  0
 26 28  1  0  0  0  0
M  END
$$$$
default_name
  -OEChem-02102213163D

 31 30  0     1  0  0  0  0  0999 V2000
   -3.0760   -3.6390    1.5496 H   0  0  0  0  0  0  0  0  0  0  0  0
   -3.0940   -2.6290    1.1426 C   0  0  0  0  0  0  0  0  0  0  0  0
   -3.7160   -1.9930    1.7706 H   0  0  0  0  0  0  0  0  0  0  0  0
   -3.4880   -2.6500    0.1286 H   0  0  0  0  0  0  0  0  0  0  0  0
   -1.6860   -2.0850    1.1196 C   0  0  0  0  0  0  0  0  0  0  0  0
   -0.7540   -2.7700    1.5226 O   0  0  0  0  0  0  0  0  0  0  0  0
   -1.5320   -0.8490    0.6496 N   0  0  0  0  0  0  0  0  0  0  0  0
   -2.3500   -0.3360    0.3566 H   0  0  0  0  0  0  0  0  0  0  0  0
   -0.2470   -0.1410    0.5576 C   0  0  1  0  0  0  0  0  0  0  0  0
    0.4239   -0.7541   -0.0450 H   0  0  0  0  0  0  0  0  0  0  0  0
   -0.4317    1.2160   -0.1683 C   0  0  1  0  0  0  0  0  0  0  0  0
    0.5365    1.7203   -0.1585 H   0  0  0  0  0  0  0  0  0  0  0  0
   -0.8554    1.0434   -1.6395 C   0  0  0  0  0  0  0  0  0  0  0  0
   -1.8552    0.6101   -1.7028 H   0  0  0  0  0  0  0  0  0  0  0  0
   -0.8517    2.0053   -2.1496 H   0  0  0  0  0  0  0  0  0  0  0  0
   -0.1548    0.3885   -2.1588 H   0  0  0  0  0  0  0  0  0  0  0  0
   -1.4291    2.1194    0.5910 C   0  0  0  0  0  0  0  0  0  0  0  0
   -0.8921    2.7590    1.2928 H   0  0  0  0  0  0  0  0  0  0  0  0
   -1.9427    2.7569   -0.1286 H   0  0  0  0  0  0  0  0  0  0  0  0
   -2.5039    1.3409    1.3618 C   0  0  0  0  0  0  0  0  0  0  0  0
   -2.0531    0.7645    2.1694 H   0  0  0  0  0  0  0  0  0  0  0  0
   -3.2167    2.0438    1.7935 H   0  0  0  0  0  0  0  0  0  0  0  0
   -3.0341    0.6687    0.6862 H   0  0  0  0  0  0  0  0  0  0  0  0
    0.3833   -0.0008    1.9525 C   0  0  0  0  0  0  0  0  0  0  0  0
    1.5803   -0.2304    2.1189 O   0  0  0  0  0  0  0  0  0  0  0  0
   -0.4170    0.3858    2.9541 N   0  0  0  0  0  0  0  0  0  0  0  0
   -1.3850    0.5669    2.7398 H   0  0  0  0  0  0  0  0  0  0  0  0
    0.0265    0.5600    4.3358 C   0  0  0  0  0  0  0  0  0  0  0  0
    0.8964    1.2200    4.3632 H   0  0  0  0  0  0  0  0  0  0  0  0
   -0.7726    0.9946    4.9382 H   0  0  0  0  0  0  0  0  0  0  0  0
    0.3119   -0.4069    4.7547 H   0  0  0  0  0  0  0  0  0  0  0  0
  5  6  2  0  0  0  0
  5  7  1  0  0  0  0
  2  3  1  0  0  0  0
  2  4  1  0  0  0  0
  2  5  1  0  0  0  0
  1  2  1  0  0  0  0
 24 25  2  0  0  0  0
 24 26  1  0  0  0  0
 20 21  1  0  0  0  0
 20 22  1  0  0  0  0
 20 23  1  0  0  0  0
 17 18  1  0  0  0  0
 17 19  1  0  0  0  0
 17 20  1  0  0  0  0
 13 14  1  0  0  0  0
 13 15  1  0  0  0  0
 13 16  1  0  0  0  0
 11 12  1  0  0  0  0
 11 13  1  0  0  0  0
 11 17  1  0  0  0  0
  9 10  1  0  0  0  0
  9 11  1  0  0  0  0
  9 24  1  0  0  0  0
  7  8  1  0  0  0  0
  7  9  1  0  0  0  0
 28 29  1  0  0  0  0
 28 30  1  0  0  0  0
 28 31  1  0  0  0  0
 26 27  1  0  0  0  0
 26 28  1  0  0  0  0
M  END
$$$$
default_name
  -OEChem-02102213163D

 31 30  0     1  0  0  0  0  0999 V2000
   -3.0760   -3.6390    1.5496 H   0  0  0  0  0  0  0  0  0  0  0  0
   -3.0940   -2.6290    1.1426 C   0  0  0  0  0  0  0  0  0  0  0  0
   -3.7160   -1.9930    1.7706 H   0  0  0  0  0  0  0  0  0  0  0  0
   -3.4880   -2.6500    0.1286 H   0  0  0  0  0  0  0  0  0  0  0  0
   -1.6860   -2.0850    1.1196 C   0  0  0  0  0  0  0  0  0  0  0  0
   -0.7540   -2.7700    1.5226 O   0  0  0  0  0  0  0  0  0  0  0  0
   -1.5320   -0.8490    0.6496 N   0  0  0  0  0  0  0  0  0  0  0  0
   -2.3500   -0.3360    0.3566 H   0  0  0  0  0  0  0  0  0  0  0  0
   -0.2470   -0.1410    0.5576 C   0  0  1  0  0  0  0  0  0  0  0  0
    0.4239   -0.7541   -0.0450 H   0  0  0  0  0  0  0  0  0  0  0  0
   -0.4317    1.2160   -0.1683 C   0  0  1  0  0  0  0  0  0  0  0  0
    0.5365    1.7203   -0.1585 H   0  0  0  0  0  0  0  0  0  0  0  0
   -0.8554    1.0434   -1.6395 C   0  0  0  0  0  0  0  0  0  0  0  0
   -1.8552    0.6101   -1.7028 H   0  0  0  0  0  0  0  0  0  0  0  0
   -0.8517    2.0053   -2.1496 H   0  0  0  0  0  0  0  0  0  0  0  0
   -0.1548    0.3885   -2.1588 H   0  0  0  0  0  0  0  0  0  0  0  0
   -1.4291    2.1194    0.5910 C   0  0  0  0  0  0  0  0  0  0  0  0
   -0.8937    2.9301    1.0870 H   0  0  0  0  0  0  0  0  0  0  0  0
   -2.1229    2.5566   -0.1270 H   0  0  0  0  0  0  0  0  0  0  0  0
   -2.2652    1.3718    1.6385 C   0  0  0  0  0  0  0  0  0  0  0  0
   -1.6291    1.0027    2.4429 H   0  0  0  0  0  0  0  0  0  0  0  0
   -3.0016    2.0538    2.0642 H   0  0  0  0  0  0  0  0  0  0  0  0
   -2.7856    0.5345    1.1722 H   0  0  0  0  0  0  0  0  0  0  0  0
    0.3833   -0.0008    1.9525 C   0  0  0  0  0  0  0  0  0  0  0  0
    1.5803   -0.2304    2.1189 O   0  0  0  0  0  0  0  0  0  0  0  0
   -0.4170    0.3858    2.9541 N   0  0  0  0  0  0  0  0  0  0  0  0
   -1.3850    0.5669    2.7398 H   0  0  0  0  0  0  0  0  0  0  0  0
    0.0265    0.5600    4.3358 C   0  0  0  0  0  0  0  0  0  0  0  0
    0.8964    1.2200    4.3632 H   0  0  0  0  0  0  0  0  0  0  0  0
   -0.7726    0.9946    4.9382 H   0  0  0  0  0  0  0  0  0  0  0  0
    0.3119   -0.4069    4.7547 H   0  0  0  0  0  0  0  0  0  0  0  0
  5  6  2  0  0  0  0
  5  7  1  0  0  0  0
  2  3  1  0  0  0  0
  2  4  1  0  0  0  0
  2  5  1  0  0  0  0
  1  2  1  0  0  0  0
 24 25  2  0  0  0  0
 24 26  1  0  0  0  0
 20 21  1  0  0  0  0
 20 22  1  0  0  0  0
 20 23  1  0  0  0  0
 17 18  1  0  0  0  0
 17 19  1  0  0  0  0
 17 20  1  0  0  0  0
 13 14  1  0  0  0  0
 13 15  1  0  0  0  0
 13 16  1  0  0  0  0
 11 12  1  0  0  0  0
 11 13  1  0  0  0  0
 11 17  1  0  0  0  0
  9 10  1  0  0  0  0
  9 11  1  0  0  0  0
  9 24  1  0  0  0  0
  7  8  1  0  0  0  0
  7  9  1  0  0  0  0
 28 29  1  0  0  0  0
 28 30  1  0  0  0  0
 28 31  1  0  0  0  0
 26 27  1  0  0  0  0
 26 28  1  0  0  0  0
M  END
$$$$
default_name
  -OEChem-02102213163D

 31 30  0     1  0  0  0  0  0999 V2000
   -3.0760   -3.6390    1.5496 H   0  0  0  0  0  0  0  0  0  0  0  0
   -3.0940   -2.6290    1.1426 C   0  0  0  0  0  0  0  0  0  0  0  0
   -3.7160   -1.9930    1.7706 H   0  0  0  0  0  0  0  0  0  0  0  0
   -3.4880   -2.6500    0.1286 H   0  0  0  0  0  0  0  0  0  0  0  0
   -1.6860   -2.0850    1.1196 C   0  0  0  0  0  0  0  0  0  0  0  0
   -0.7540   -2.7700    1.5226 O   0  0  0  0  0  0  0  0  0  0  0  0
   -1.5320   -0.8490    0.6496 N   0  0  0  0  0  0  0  0  0  0  0  0
   -2.3500   -0.3360    0.3566 H   0  0  0  0  0  0  0  0  0  0  0  0
   -0.2470   -0.1410    0.5576 C   0  0  1  0  0  0  0  0  0  0  0  0
    0.4239   -0.7541   -0.0450 H   0  0  0  0  0  0  0  0  0  0  0  0
   -0.4317    1.2160   -0.1683 C   0  0  1  0  0  0  0  0  0  0  0  0
    0.5365    1.7203   -0.1585 H   0  0  0  0  0  0  0  0  0  0  0  0
   -0.8554    1.0434   -1.6395 C   0  0  0  0  0  0  0  0  0  0  0  0
   -1.8552    0.6101   -1.7028 H   0  0  0  0  0  0  0  0  0  0  0  0
   -0.8517    2.0053   -2.1496 H   0  0  0  0  0  0  0  0  0  0  0  0
   -0.1548    0.3885   -2.1588 H   0  0  0  0  0  0  0  0  0  0  0  0
   -1.4291    2.1194    0.5910 C   0  0  0  0  0  0  0  0  0  0  0  0
   -0.9482    3.0609    0.8598 H   0  0  0  0  0  0  0  0  0  0  0  0
   -2.2712    2.3405   -0.0647 H   0  0  0  0  0  0  0  0  0  0  0  0
   -1.9967    1.4782    1.8646 C   0  0  0  0  0  0  0  0  0  0  0  0
   -1.2085    1.3324    2.6031 H   0  0  0  0  0  0  0  0  0  0  0  0
   -2.7542    2.1360    2.2914 H   0  0  0  0  0  0  0  0  0  0  0  0
   -2.4550    0.5178    1.6263 H   0  0  0  0  0  0  0  0  0  0  0  0
    0.3833   -0.0008    1.9525 C   0  0  0  0  0  0  0  0  0  0  0  0
    1.5803   -0.2304    2.1189 O   0  0  0  0  0  0  0  0  0  0  0  0
   -0.4170    0.3858    2.9541 N   0  0  0  0  0  0  0  0  0  0  0  0
   -1.3850    0.5669    2.7398 H   0  0  0  0  0  0  0  0  0  0  0  0
    0.0265    0.5600    4.3358 C   0  0  0  0  0  0  0  0  0  0  0  0
    0.8964    1.2200    4.3632 H   0  0  0  0  0  0  0  0  0  0  0  0
   -0.7726    0.9946    4.9382 H   0  0  0  0  0  0  0  0  0  0  0  0
    0.3119   -0.4069    4.7547 H   0  0  0  0  0  0  0  0  0  0  0  0
  5  6  2  0  0  0  0
  5  7  1  0  0  0  0
  2  3  1  0  0  0  0
  2  4  1  0  0  0  0
  2  5  1  0  0  0  0
  1  2  1  0  0  0  0
 24 25  2  0  0  0  0
 24 26  1  0  0  0  0
 20 21  1  0  0  0  0
 20 22  1  0  0  0  0
 20 23  1  0  0  0  0
 17 18  1  0  0  0  0
 17 19  1  0  0  0  0
 17 20  1  0  0  0  0
 13 14  1  0  0  0  0
 13 15  1  0  0  0  0
 13 16  1  0  0  0  0
 11 12  1  0  0  0  0
 11 13  1  0  0  0  0
 11 17  1  0  0  0  0
  9 10  1  0  0  0  0
  9 11  1  0  0  0  0
  9 24  1  0  0  0  0
  7  8  1  0  0  0  0
  7  9  1  0  0  0  0
 28 29  1  0  0  0  0
 28 30  1  0  0  0  0
 28 31  1  0  0  0  0
 26 27  1  0  0  0  0
 26 28  1  0  0  0  0
M  END
$$$$
default_name
  -OEChem-02102213163D

 31 30  0     1  0  0  0  0  0999 V2000
   -3.0760   -3.6390    1.5496 H   0  0  0  0  0  0  0  0  0  0  0  0
   -3.0940   -2.6290    1.1426 C   0  0  0  0  0  0  0  0  0  0  0  0
   -3.7160   -1.9930    1.7706 H   0  0  0  0  0  0  0  0  0  0  0  0
   -3.4880   -2.6500    0.1286 H   0  0  0  0  0  0  0  0  0  0  0  0
   -1.6860   -2.0850    1.1196 C   0  0  0  0  0  0  0  0  0  0  0  0
   -0.7540   -2.7700    1.5226 O   0  0  0  0  0  0  0  0  0  0  0  0
   -1.5320   -0.8490    0.6496 N   0  0  0  0  0  0  0  0  0  0  0  0
   -2.3500   -0.3360    0.3566 H   0  0  0  0  0  0  0  0  0  0  0  0
   -0.2470   -0.1410    0.5576 C   0  0  1  0  0  0  0  0  0  0  0  0
    0.4239   -0.7541   -0.0450 H   0  0  0  0  0  0  0  0  0  0  0  0
   -0.4317    1.2160   -0.1683 C   0  0  1  0  0  0  0  0  0  0  0  0
    0.5365    1.7203   -0.1585 H   0  0  0  0  0  0  0  0  0  0  0  0
   -0.8554    1.0434   -1.6395 C   0  0  0  0  0  0  0  0  0  0  0  0
   -1.8552    0.6101   -1.7028 H   0  0  0  0  0  0  0  0  0  0  0  0
   -0.8517    2.0053   -2.1496 H   0  0  0  0  0  0  0  0  0  0  0  0
   -0.1548    0.3885   -2.1588 H   0  0  0  0  0  0  0  0  0  0  0  0
   -1.4291    2.1194    0.5910 C   0  0  0  0  0  0  0  0  0  0  0  0
   -1.0518    3.1423    0.6269 H   0  0  0  0  0  0  0  0  0  0  0  0
   -2.3776    2.1233    0.0540 H   0  0  0  0  0  0  0  0  0  0  0  0
   -1.7166    1.6529    2.0246 C   0  0  0  0  0  0  0  0  0  0  0  0
   -0.8200    1.7311    2.6391 H   0  0  0  0  0  0  0  0  0  0  0  0
   -2.4912    2.2848    2.4596 H   0  0  0  0  0  0  0  0  0  0  0  0
   -2.0649    0.6195    2.0178 H   0  0  0  0  0  0  0  0  0  0  0  0
    0.3833   -0.0008    1.9525 C   0  0  0  0  0  0  0  0  0  0  0  0
    1.5803   -0.2304    2.1189 O   0  0  0  0  0  0  0  0  0  0  0  0
   -0.4170    0.3858    2.9541 N   0  0  0  0  0  0  0  0  0  0  0  0
   -1.3850    0.5669    2.7398 H   0  0  0  0  0  0  0  0  0  0  0  0
    0.0265    0.5600    4.3358 C   0  0  0  0  0  0  0  0  0  0  0  0
    0.8964    1.2200    4.3632 H   0  0  0  0  0  0  0  0  0  0  0  0
   -0.7726    0.9946    4.9382 H   0  0  0  0  0  0  0  0  0  0  0  0
    0.3119   -0.4069    4.7547 H   0  0  0  0  0  0  0  0  0  0  0  0
  5  6  2  0  0  0  0
  5  7  1  0  0  0  0
  2  3  1  0  0  0  0
  2  4  1  0  0  0  0
  2  5  1  0  0  0  0
  1  2  1  0  0  0  0
 24 25  2  0  0  0  0
 24 26  1  0  0  0  0
 20 21  1  0  0  0  0
 20 22  1  0  0  0  0
 20 23  1  0  0  0  0
 17 18  1  0  0  0  0
 17 19  1  0  0  0  0
 17 20  1  0  0  0  0
 13 14  1  0  0  0  0
 13 15  1  0  0  0  0
 13 16  1  0  0  0  0
 11 12  1  0  0  0  0
 11 13  1  0  0  0  0
 11 17  1  0  0  0  0
  9 10  1  0  0  0  0
  9 11  1  0  0  0  0
  9 24  1  0  0  0  0
  7  8  1  0  0  0  0
  7  9  1  0  0  0  0
 28 29  1  0  0  0  0
 28 30  1  0  0  0  0
 28 31  1  0  0  0  0
 26 27  1  0  0  0  0
 26 28  1  0  0  0  0
M  END
$$$$
default_name
  -OEChem-02102213163D

 31 30  0     1  0  0  0  0  0999 V2000
   -3.0760   -3.6390    1.5496 H   0  0  0  0  0  0  0  0  0  0  0  0
   -3.0940   -2.6290    1.1426 C   0  0  0  0  0  0  0  0  0  0  0  0
   -3.7160   -1.9930    1.7706 H   0  0  0  0  0  0  0  0  0  0  0  0
   -3.4880   -2.6500    0.1286 H   0  0  0  0  0  0  0  0  0  0  0  0
   -1.6860   -2.0850    1.1196 C   0  0  0  0  0  0  0  0  0  0  0  0
   -0.7540   -2.7700    1.5226 O   0  0  0  0  0  0  0  0  0  0  0  0
   -1.5320   -0.8490    0.6496 N   0  0  0  0  0  0  0  0  0  0  0  0
   -2.3500   -0.3360    0.3566 H   0  0  0  0  0  0  0  0  0  0  0  0
   -0.2470   -0.1410    0.5576 C   0  0  1  0  0  0  0  0  0  0  0  0
    0.4239   -0.7541   -0.0450 H   0  0  0  0  0  0  0  0  0  0  0  0
   -0.4317    1.2160   -0.1683 C   0  0  1  0  0  0  0  0  0  0  0  0
    0.5365    1.7203   -0.1585 H   0  0  0  0  0  0  0  0  0  0  0  0
   -0.8554    1.0434   -1.6395 C   0  0  0  0  0  0  0  0  0  0  0  0
   -1.8552    0.6101   -1.7028 H   0  0  0  0  0  0  0  0  0  0  0  0
   -0.8517    2.0053   -2.1496 H   0  0  0  0  0  0  0  0  0  0  0  0
   -0.1548    0.3885   -2.1588 H   0  0  0  0  0  0  0  0  0  0  0  0
   -1.4291    2.1194    0.5910 C   0  0  0  0  0  0  0  0  0  0  0  0
   -1.1976    3.1688    0.4039 H   0  0  0  0  0  0  0  0  0  0  0  0
   -2.4347    1.9198    0.2211 H   0  0  0  0  0  0  0  0  0  0  0  0
   -1.4441    1.8840    2.1075 C   0  0  0  0  0  0  0  0  0  0  0  0
   -0.4899    2.1717    2.5485 H   0  0  0  0  0  0  0  0  0  0  0  0
   -2.2307    2.4901    2.5575 H   0  0  0  0  0  0  0  0  0  0  0  0
   -1.6417    0.8328    2.3199 H   0  0  0  0  0  0  0  0  0  0  0  0
    0.3833   -0.0008    1.9525 C   0  0  0  0  0  0  0  0  0  0  0  0
    1.5803   -0.2304    2.1189 O   0  0  0  0  0  0  0  0  0  0  0  0
   -0.4170    0.3858    2.9541 N   0  0  0  0  0  0  0  0  0  0  0  0
   -1.3850    0.5669    2.7398 H   0  0  0  0  0  0  0  0  0  0  0  0
    0.0265    0.5600    4.3358 C   0  0  0  0  0  0  0  0  0  0  0  0
    0.8964    1.2200    4.3632 H   0  0  0  0  0  0  0  0  0  0  0  0
   -0.7726    0.9946    4.9382 H   0  0  0  0  0  0  0  0  0  0  0  0
    0.3119   -0.4069    4.7547 H   0  0  0  0  0  0  0  0  0  0  0  0
  5  6  2  0  0  0  0
  5  7  1  0  0  0  0
  2  3  1  0  0  0  0
  2  4  1  0  0  0  0
  2  5  1  0  0  0  0
  1  2  1  0  0  0  0
 24 25  2  0  0  0  0
 24 26  1  0  0  0  0
 20 21  1  0  0  0  0
 20 22  1  0  0  0  0
 20 23  1  0  0  0  0
 17 18  1  0  0  0  0
 17 19  1  0  0  0  0
 17 20  1  0  0  0  0
 13 14  1  0  0  0  0
 13 15  1  0  0  0  0
 13 16  1  0  0  0  0
 11 12  1  0  0  0  0
 11 13  1  0  0  0  0
 11 17  1  0  0  0  0
  9 10  1  0  0  0  0
  9 11  1  0  0  0  0
  9 24  1  0  0  0  0
  7  8  1  0  0  0  0
  7  9  1  0  0  0  0
 28 29  1  0  0  0  0
 28 30  1  0  0  0  0
 28 31  1  0  0  0  0
 26 27  1  0  0  0  0
 26 28  1  0  0  0  0
M  END
$$$$
default_name
  -OEChem-02102213163D

 31 30  0     1  0  0  0  0  0999 V2000
   -3.0760   -3.6390    1.5496 H   0  0  0  0  0  0  0  0  0  0  0  0
   -3.0940   -2.6290    1.1426 C   0  0  0  0  0  0  0  0  0  0  0  0
   -3.7160   -1.9930    1.7706 H   0  0  0  0  0  0  0  0  0  0  0  0
   -3.4880   -2.6500    0.1286 H   0  0  0  0  0  0  0  0  0  0  0  0
   -1.6860   -2.0850    1.1196 C   0  0  0  0  0  0  0  0  0  0  0  0
   -0.7540   -2.7700    1.5226 O   0  0  0  0  0  0  0  0  0  0  0  0
   -1.5320   -0.8490    0.6496 N   0  0  0  0  0  0  0  0  0  0  0  0
   -2.3500   -0.3360    0.3566 H   0  0  0  0  0  0  0  0  0  0  0  0
   -0.2470   -0.1410    0.5576 C   0  0  1  0  0  0  0  0  0  0  0  0
    0.4239   -0.7541   -0.0450 H   0  0  0  0  0  0  0  0  0  0  0  0
   -0.4317    1.2160   -0.1683 C   0  0  1  0  0  0  0  0  0  0  0  0
    0.5365    1.7203   -0.1585 H   0  0  0  0  0  0  0  0  0  0  0  0
   -0.8554    1.0434   -1.6395 C   0  0  0  0  0  0  0  0  0  0  0  0
   -1.8552    0.6101   -1.7028 H   0  0  0  0  0  0  0  0  0  0  0  0
   -0.8517    2.0053   -2.1496 H   0  0  0  0  0  0  0  0  0  0  0  0
   -0.1548    0.3885   -2.1588 H   0  0  0  0  0  0  0  0  0  0  0  0
   -1.4291    2.1194    0.5910 C   0  0  0  0  0  0  0  0  0  0  0  0
   -1.3754    3.1386    0.2062 H   0  0  0  0  0  0  0  0  0  0  0  0
   -2.4388    1.7439    0.4251 H   0  0  0  0  0  0  0  0  0  0  0  0
   -1.1978    2.1558    2.1077 C   0  0  0  0  0  0  0  0  0  0  0  0
   -0.2408    2.6241    2.3374 H   0  0  0  0  0  0  0  0  0  0  0  0
   -1.9904    2.7380    2.5784 H   0  0  0  0  0  0  0  0  0  0  0  0
   -1.2143    1.1431    2.5120 H   0  0  0  0  0  0  0  0  0  0  0  0
    0.3833   -0.0008    1.9525 C   0  0  0  0  0  0  0  0  0  0  0  0
    1.5803   -0.2304    2.1189 O   0  0  0  0  0  0  0  0  0  0  0  0
   -0.4170    0.3858    2.9541 N   0  0  0  0  0  0  0  0  0  0  0  0
   -1.3850    0.5669    2.7398 H   0  0  0  0  0  0  0  0  0  0  0  0
    0.0265    0.5600    4.3358 C   0  0  0  0  0  0  0  0  0  0  0  0
    0.8964    1.2200    4.3632 H   0  0  0  0  0  0  0  0  0  0  0  0
   -0.7726    0.9946    4.9382 H   0  0  0  0  0  0  0  0  0  0  0  0
    0.3119   -0.4069    4.7547 H   0  0  0  0  0  0  0  0  0  0  0  0
  5  6  2  0  0  0  0
  5  7  1  0  0  0  0
  2  3  1  0  0  0  0
  2  4  1  0  0  0  0
  2  5  1  0  0  0  0
  1  2  1  0  0  0  0
 24 25  2  0  0  0  0
 24 26  1  0  0  0  0
 20 21  1  0  0  0  0
 20 22  1  0  0  0  0
 20 23  1  0  0  0  0
 17 18  1  0  0  0  0
 17 19  1  0  0  0  0
 17 20  1  0  0  0  0
 13 14  1  0  0  0  0
 13 15  1  0  0  0  0
 13 16  1  0  0  0  0
 11 12  1  0  0  0  0
 11 13  1  0  0  0  0
 11 17  1  0  0  0  0
  9 10  1  0  0  0  0
  9 11  1  0  0  0  0
  9 24  1  0  0  0  0
  7  8  1  0  0  0  0
  7  9  1  0  0  0  0
 28 29  1  0  0  0  0
 28 30  1  0  0  0  0
 28 31  1  0  0  0  0
 26 27  1  0  0  0  0
 26 28  1  0  0  0  0
M  END
$$$$
default_name
  -OEChem-02102213163D

 31 30  0     1  0  0  0  0  0999 V2000
   -3.0760   -3.6390    1.5496 H   0  0  0  0  0  0  0  0  0  0  0  0
   -3.0940   -2.6290    1.1426 C   0  0  0  0  0  0  0  0  0  0  0  0
   -3.7160   -1.9930    1.7706 H   0  0  0  0  0  0  0  0  0  0  0  0
   -3.4880   -2.6500    0.1286 H   0  0  0  0  0  0  0  0  0  0  0  0
   -1.6860   -2.0850    1.1196 C   0  0  0  0  0  0  0  0  0  0  0  0
   -0.7540   -2.7700    1.5226 O   0  0  0  0  0  0  0  0  0  0  0  0
   -1.5320   -0.8490    0.6496 N   0  0  0  0  0  0  0  0  0  0  0  0
   -2.3500   -0.3360    0.3566 H   0  0  0  0  0  0  0  0  0  0  0  0
   -0.2470   -0.1410    0.5576 C   0  0  1  0  0  0  0  0  0  0  0  0
    0.4239   -0.7541   -0.0450 H   0  0  0  0  0  0  0  0  0  0  0  0
   -0.4317    1.2160   -0.1683 C   0  0  1  0  0  0  0  0  0  0  0  0
    0.5365    1.7203   -0.1585 H   0  0  0  0  0  0  0  0  0  0  0  0
   -0.8554    1.0434   -1.6395 C   0  0  0  0  0  0  0  0  0  0  0  0
   -1.8552    0.6101   -1.7028 H   0  0  0  0  0  0  0  0  0  0  0  0
   -0.8517    2.0053   -2.1496 H   0  0  0  0  0  0  0  0  0  0  0  0
   -0.1548    0.3885   -2.1588 H   0  0  0  0  0  0  0  0  0  0  0  0
   -1.4291    2.1194    0.5910 C   0  0  0  0  0  0  0  0  0  0  0  0
   -1.5733    3.0538    0.0471 H   0  0  0  0  0  0  0  0  0  0  0  0
   -2.3894    1.6075    0.6521 H   0  0  0  0  0  0  0  0  0  0  0  0
   -0.9944    2.4497    2.0253 C   0  0  0  0  0  0  0  0  0  0  0  0
   -0.0897    3.0574    2.0202 H   0  0  0  0  0  0  0  0  0  0  0  0
   -1.7866    3.0114    2.5207 H   0  0  0  0  0  0  0  0  0  0  0  0
   -0.8119    1.5293    2.5811 H   0  0  0  0  0  0  0  0  0  0  0  0
    0.3833   -0.0008    1.9525 C   0  0  0  0  0  0  0  0  0  0  0  0
    1.5803   -0.2304    2.1189 O   0  0  0  0  0  0  0  0  0  0  0  0
   -0.4170    0.3858    2.9541 N   0  0  0  0  0  0  0  0  0  0  0  0
   -1.3850    0.5669    2.7398 H   0  0  0  0  0  0  0  0  0  0  0  0
    0.0265    0.5600    4.3358 C   0  0  0  0  0  0  0  0  0  0  0  0
    0.8964    1.2200    4.3632 H   0  0  0  0  0  0  0  0  0  0  0  0
   -0.7726    0.9946    4.9382 H   0  0  0  0  0  0  0  0  0  0  0  0
    0.3119   -0.4069    4.7547 H   0  0  0  0  0  0  0  0  0  0  0  0
  5  6  2  0  0  0  0
  5  7  1  0  0  0  0
  2  3  1  0  0  0  0
  2  4  1  0  0  0  0
  2  5  1  0  0  0  0
  1  2  1  0  0  0  0
 24 25  2  0  0  0  0
 24 26  1  0  0  0  0
 20 21  1  0  0  0  0
 20 22  1  0  0  0  0
 20 23  1  0  0  0  0
 17 18  1  0  0  0  0
 17 19  1  0  0  0  0
 17 20  1  0  0  0  0
 13 14  1  0  0  0  0
 13 15  1  0  0  0  0
 13 16  1  0  0  0  0
 11 12  1  0  0  0  0
 11 13  1  0  0  0  0
 11 17  1  0  0  0  0
  9 10  1  0  0  0  0
  9 11  1  0  0  0  0
  9 24  1  0  0  0  0
  7  8  1  0  0  0  0
  7  9  1  0  0  0  0
 28 29  1  0  0  0  0
 28 30  1  0  0  0  0
 28 31  1  0  0  0  0
 26 27  1  0  0  0  0
 26 28  1  0  0  0  0
M  END
$$$$
default_name
  -OEChem-02102213163D

 31 30  0     1  0  0  0  0  0999 V2000
   -3.0760   -3.6390    1.5496 H   0  0  0  0  0  0  0  0  0  0  0  0
   -3.0940   -2.6290    1.1426 C   0  0  0  0  0  0  0  0  0  0  0  0
   -3.7160   -1.9930    1.7706 H   0  0  0  0  0  0  0  0  0  0  0  0
   -3.4880   -2.6500    0.1286 H   0  0  0  0  0  0  0  0  0  0  0  0
   -1.6860   -2.0850    1.1196 C   0  0  0  0  0  0  0  0  0  0  0  0
   -0.7540   -2.7700    1.5226 O   0  0  0  0  0  0  0  0  0  0  0  0
   -1.5320   -0.8490    0.6496 N   0  0  0  0  0  0  0  0  0  0  0  0
   -2.3500   -0.3360    0.3566 H   0  0  0  0  0  0  0  0  0  0  0  0
   -0.2470   -0.1410    0.5576 C   0  0  1  0  0  0  0  0  0  0  0  0
    0.4239   -0.7541   -0.0450 H   0  0  0  0  0  0  0  0  0  0  0  0
   -0.4317    1.2160   -0.1683 C   0  0  1  0  0  0  0  0  0  0  0  0
    0.5365    1.7203   -0.1585 H   0  0  0  0  0  0  0  0  0  0  0  0
   -0.8554    1.0434   -1.6395 C   0  0  0  0  0  0  0  0  0  0  0  0
   -1.8552    0.6101   -1.7028 H   0  0  0  0  0  0  0  0  0  0  0  0
   -0.8517    2.0053   -2.1496 H   0  0  0  0  0  0  0  0  0  0  0  0
   -0.1548    0.3885   -2.1588 H   0  0  0  0  0  0  0  0  0  0  0  0
   -1.4291    2.1194    0.5910 C   0  0  0  0  0  0  0  0  0  0  0  0
   -1.7778    2.9202   -0.0624 H   0  0  0  0  0  0  0  0  0  0  0  0
   -2.2901    1.5200    0.8868 H   0  0  0  0  0  0  0  0  0  0  0  0
   -0.8477    2.7456    1.8658 C   0  0  0  0  0  0  0  0  0  0  0  0
   -0.0469    3.4423    1.6186 H   0  0  0  0  0  0  0  0  0  0  0  0
   -1.6333    3.2918    2.3885 H   0  0  0  0  0  0  0  0  0  0  0  0
   -0.4619    1.9650    2.5224 H   0  0  0  0  0  0  0  0  0  0  0  0
    0.3833   -0.0008    1.9525 C   0  0  0  0  0  0  0  0  0  0  0  0
    1.5803   -0.2304    2.1189 O   0  0  0  0  0  0  0  0  0  0  0  0
   -0.4170    0.3858    2.9541 N   0  0  0  0  0  0  0  0  0  0  0  0
   -1.3850    0.5669    2.7398 H   0  0  0  0  0  0  0  0  0  0  0  0
    0.0265    0.5600    4.3358 C   0  0  0  0  0  0  0  0  0  0  0  0
    0.8964    1.2200    4.3632 H   0  0  0  0  0  0  0  0  0  0  0  0
   -0.7726    0.9946    4.9382 H   0  0  0  0  0  0  0  0  0  0  0  0
    0.3119   -0.4069    4.7547 H   0  0  0  0  0  0  0  0  0  0  0  0
  5  6  2  0  0  0  0
  5  7  1  0  0  0  0
  2  3  1  0  0  0  0
  2  4  1  0  0  0  0
  2  5  1  0  0  0  0
  1  2  1  0  0  0  0
 24 25  2  0  0  0  0
 24 26  1  0  0  0  0
 20 21  1  0  0  0  0
 20 22  1  0  0  0  0
 20 23  1  0  0  0  0
 17 18  1  0  0  0  0
 17 19  1  0  0  0  0
 17 20  1  0  0  0  0
 13 14  1  0  0  0  0
 13 15  1  0  0  0  0
 13 16  1  0  0  0  0
 11 12  1  0  0  0  0
 11 13  1  0  0  0  0
 11 17  1  0  0  0  0
  9 10  1  0  0  0  0
  9 11  1  0  0  0  0
  9 24  1  0  0  0  0
  7  8  1  0  0  0  0
  7  9  1  0  0  0  0
 28 29  1  0  0  0  0
 28 30  1  0  0  0  0
 28 31  1  0  0  0  0
 26 27  1  0  0  0  0
 26 28  1  0  0  0  0
M  END
$$$$
default_name
  -OEChem-02102213163D

 31 30  0     1  0  0  0  0  0999 V2000
   -3.0760   -3.6390    1.5496 H   0  0  0  0  0  0  0  0  0  0  0  0
   -3.0940   -2.6290    1.1426 C   0  0  0  0  0  0  0  0  0  0  0  0
   -3.7160   -1.9930    1.7706 H   0  0  0  0  0  0  0  0  0  0  0  0
   -3.4880   -2.6500    0.1286 H   0  0  0  0  0  0  0  0  0  0  0  0
   -1.6860   -2.0850    1.1196 C   0  0  0  0  0  0  0  0  0  0  0  0
   -0.7540   -2.7700    1.5226 O   0  0  0  0  0  0  0  0  0  0  0  0
   -1.5320   -0.8490    0.6496 N   0  0  0  0  0  0  0  0  0  0  0  0
   -2.3500   -0.3360    0.3566 H   0  0  0  0  0  0  0  0  0  0  0  0
   -0.2470   -0.1410    0.5576 C   0  0  1  0  0  0  0  0  0  0  0  0
    0.4239   -0.7541   -0.0450 H   0  0  0  0  0  0  0  0  0  0  0  0
   -0.4317    1.2160   -0.1683 C   0  0  1  0  0  0  0  0  0  0  0  0
    0.5365    1.7203   -0.1585 H   0  0  0  0  0  0  0  0  0  0  0  0
   -0.8554    1.0434   -1.6395 C   0  0  0  0  0  0  0  0  0  0  0  0
   -1.8552    0.6101   -1.7028 H   0  0  0  0  0  0  0  0  0  0  0  0
   -0.8517    2.0053   -2.1496 H   0  0  0  0  0  0  0  0  0  0  0  0
   -0.1548    0.3885   -2.1588 H   0  0  0  0  0  0  0  0  0  0  0  0
   -1.4291    2.1194    0.5910 C   0  0  0  0  0  0  0  0  0  0  0  0
   -1.9748    2.7468   -0.1150 H   0  0  0  0  0  0  0  0  0  0  0  0
   -2.1474    1.4873    1.1130 H   0  0  0  0  0  0  0  0  0  0  0  0
   -0.7678    3.0235    1.6401 C   0  0  0  0  0  0  0  0  0  0  0  0
   -0.1153    3.7524    1.1599 H   0  0  0  0  0  0  0  0  0  0  0  0
   -1.5408    3.5601    2.1908 H   0  0  0  0  0  0  0  0  0  0  0  0
   -0.1881    2.4206    2.3400 H   0  0  0  0  0  0  0  0  0  0  0  0
    0.3833   -0.0008    1.9525 C   0  0  0  0  0  0  0  0  0  0  0  0
    1.5803   -0.2304    2.1189 O   0  0  0  0  0  0  0  0  0  0  0  0
   -0.4170    0.3858    2.9541 N   0  0  0  0  0  0  0  0  0  0  0  0
   -1.3850    0.5669    2.7398 H   0  0  0  0  0  0  0  0  0  0  0  0
    0.0265    0.5600    4.3358 C   0  0  0  0  0  0  0  0  0  0  0  0
    0.8964    1.2200    4.3632 H   0  0  0  0  0  0  0  0  0  0  0  0
   -0.7726    0.9946    4.9382 H   0  0  0  0  0  0  0  0  0  0  0  0
    0.3119   -0.4069    4.7547 H   0  0  0  0  0  0  0  0  0  0  0  0
  5  6  2  0  0  0  0
  5  7  1  0  0  0  0
  2  3  1  0  0  0  0
  2  4  1  0  0  0  0
  2  5  1  0  0  0  0
  1  2  1  0  0  0  0
 24 25  2  0  0  0  0
 24 26  1  0  0  0  0
 20 21  1  0  0  0  0
 20 22  1  0  0  0  0
 20 23  1  0  0  0  0
 17 18  1  0  0  0  0
 17 19  1  0  0  0  0
 17 20  1  0  0  0  0
 13 14  1  0  0  0  0
 13 15  1  0  0  0  0
 13 16  1  0  0  0  0
 11 12  1  0  0  0  0
 11 13  1  0  0  0  0
 11 17  1  0  0  0  0
  9 10  1  0  0  0  0
  9 11  1  0  0  0  0
  9 24  1  0  0  0  0
  7  8  1  0  0  0  0
  7  9  1  0  0  0  0
 28 29  1  0  0  0  0
 28 30  1  0  0  0  0
 28 31  1  0  0  0  0
 26 27  1  0  0  0  0
 26 28  1  0  0  0  0
M  END
$$$$
default_name
  -OEChem-02102213163D

 31 30  0     1  0  0  0  0  0999 V2000
   -3.0760   -3.6390    1.5496 H   0  0  0  0  0  0  0  0  0  0  0  0
   -3.0940   -2.6290    1.1426 C   0  0  0  0  0  0  0  0  0  0  0  0
   -3.7160   -1.9930    1.7706 H   0  0  0  0  0  0  0  0  0  0  0  0
   -3.4880   -2.6500    0.1286 H   0  0  0  0  0  0  0  0  0  0  0  0
   -1.6860   -2.0850    1.1196 C   0  0  0  0  0  0  0  0  0  0  0  0
   -0.7540   -2.7700    1.5226 O   0  0  0  0  0  0  0  0  0  0  0  0
   -1.5320   -0.8490    0.6496 N   0  0  0  0  0  0  0  0  0  0  0  0
   -2.3500   -0.3360    0.3566 H   0  0  0  0  0  0  0  0  0  0  0  0
   -0.2470   -0.1410    0.5576 C   0  0  1  0  0  0  0  0  0  0  0  0
    0.4239   -0.7541   -0.0450 H   0  0  0  0  0  0  0  0  0  0  0  0
   -0.4317    1.2160   -0.1683 C   0  0  1  0  0  0  0  0  0  0  0  0
    0.5365    1.7203   -0.1585 H   0  0  0  0  0  0  0  0  0  0  0  0
   -0.8554    1.0434   -1.6395 C   0  0  0  0  0  0  0  0  0  0  0  0
   -1.8552    0.6101   -1.7028 H   0  0  0  0  0  0  0  0  0  0  0  0
   -0.8517    2.0053   -2.1496 H   0  0  0  0  0  0  0  0  0  0  0  0
   -0.1548    0.3885   -2.1588 H   0  0  0  0  0  0  0  0  0  0  0  0
   -1.4291    2.1194    0.5910 C   0  0  0  0  0  0  0  0  0  0  0  0
   -2.1510    2.5455   -0.1069 H   0  0  0  0  0  0  0  0  0  0  0  0
   -1.9713    1.5117    1.3154 H   0  0  0  0  0  0  0  0  0  0  0  0
   -0.7602    3.2644    1.3636 C   0  0  0  0  0  0  0  0  0  0  0  0
   -0.2902    3.9666    0.6753 H   0  0  0  0  0  0  0  0  0  0  0  0
   -1.5156    3.7979    1.9410 H   0  0  0  0  0  0  0  0  0  0  0  0
   -0.0092    2.8651    2.0462 H   0  0  0  0  0  0  0  0  0  0  0  0
    0.3833   -0.0008    1.9525 C   0  0  0  0  0  0  0  0  0  0  0  0
    1.5803   -0.2304    2.1189 O   0  0  0  0  0  0  0  0  0  0  0  0
   -0.4170    0.3858    2.9541 N   0  0  0  0  0  0  0  0  0  0  0  0
   -1.3850    0.5669    2.7398 H   0  0  0  0  0  0  0  0  0  0  0  0
    0.0265    0.5600    4.3358 C   0  0  0  0  0  0  0  0  0  0  0  0
    0.8964    1.2200    4.3632 H   0  0  0  0  0  0  0  0  0  0  0  0
   -0.7726    0.9946    4.9382 H   0  0  0  0  0  0  0  0  0  0  0  0
    0.3119   -0.4069    4.7547 H   0  0  0  0  0  0  0  0  0  0  0  0
  5  6  2  0  0  0  0
  5  7  1  0  0  0  0
  2  3  1  0  0  0  0
  2  4  1  0  0  0  0
  2  5  1  0  0  0  0
  1  2  1  0  0  0  0
 24 25  2  0  0  0  0
 24 26  1  0  0  0  0
 20 21  1  0  0  0  0
 20 22  1  0  0  0  0
 20 23  1  0  0  0  0
 17 18  1  0  0  0  0
 17 19  1  0  0  0  0
 17 20  1  0  0  0  0
 13 14  1  0  0  0  0
 13 15  1  0  0  0  0
 13 16  1  0  0  0  0
 11 12  1  0  0  0  0
 11 13  1  0  0  0  0
 11 17  1  0  0  0  0
  9 10  1  0  0  0  0
  9 11  1  0  0  0  0
  9 24  1  0  0  0  0
  7  8  1  0  0  0  0
  7  9  1  0  0  0  0
 28 29  1  0  0  0  0
 28 30  1  0  0  0  0
 28 31  1  0  0  0  0
 26 27  1  0  0  0  0
 26 28  1  0  0  0  0
M  END
$$$$
default_name
  -OEChem-02102213163D

 31 30  0     1  0  0  0  0  0999 V2000
   -3.0760   -3.6390    1.5496 H   0  0  0  0  0  0  0  0  0  0  0  0
   -3.0940   -2.6290    1.1426 C   0  0  0  0  0  0  0  0  0  0  0  0
   -3.7160   -1.9930    1.7706 H   0  0  0  0  0  0  0  0  0  0  0  0
   -3.4880   -2.6500    0.1286 H   0  0  0  0  0  0  0  0  0  0  0  0
   -1.6860   -2.0850    1.1196 C   0  0  0  0  0  0  0  0  0  0  0  0
   -0.7540   -2.7700    1.5226 O   0  0  0  0  0  0  0  0  0  0  0  0
   -1.5320   -0.8490    0.6496 N   0  0  0  0  0  0  0  0  0  0  0  0
   -2.3500   -0.3360    0.3566 H   0  0  0  0  0  0  0  0  0  0  0  0
   -0.2470   -0.1410    0.5576 C   0  0  1  0  0  0  0  0  0  0  0  0
    0.4239   -0.7541   -0.0450 H   0  0  0  0  0  0  0  0  0  0  0  0
   -0.4317    1.2160   -0.1683 C   0  0  1  0  0  0  0  0  0  0  0  0
    0.5365    1.7203   -0.1585 H   0  0  0  0  0  0  0  0  0  0  0  0
   -0.8554    1.0434   -1.6395 C   0  0  0  0  0  0  0  0  0  0  0  0
   -1.8552    0.6101   -1.7028 H   0  0  0  0  0  0  0  0  0  0  0  0
   -0.8517    2.0053   -2.1496 H   0  0  0  0  0  0  0  0  0  0  0  0
   -0.1548    0.3885   -2.1588 H   0  0  0  0  0  0  0  0  0  0  0  0
   -1.4291    2.1194    0.5910 C   0  0  0  0  0  0  0  0  0  0  0  0
   -2.2944    2.3300   -0.0388 H   0  0  0  0  0  0  0  0  0  0  0  0
   -1.7736    1.5914    1.4801 H   0  0  0  0  0  0  0  0  0  0  0  0
   -0.8253    3.4518    1.0551 C   0  0  0  0  0  0  0  0  0  0  0  0
   -0.5596    4.0703    0.1980 H   0  0  0  0  0  0  0  0  0  0  0  0
   -1.5592    3.9891    1.6561 H   0  0  0  0  0  0  0  0  0  0  0  0
    0.0626    3.2680    1.6611 H   0  0  0  0  0  0  0  0  0  0  0  0
    0.3833   -0.0008    1.9525 C   0  0  0  0  0  0  0  0  0  0  0  0
    1.5803   -0.2304    2.1189 O   0  0  0  0  0  0  0  0  0  0  0  0
   -0.4170    0.3858    2.9541 N   0  0  0  0  0  0  0  0  0  0  0  0
   -1.3850    0.5669    2.7398 H   0  0  0  0  0  0  0  0  0  0  0  0
    0.0265    0.5600    4.3358 C   0  0  0  0  0  0  0  0  0  0  0  0
    0.8964    1.2200    4.3632 H   0  0  0  0  0  0  0  0  0  0  0  0
   -0.7726    0.9946    4.9382 H   0  0  0  0  0  0  0  0  0  0  0  0
    0.3119   -0.4069    4.7547 H   0  0  0  0  0  0  0  0  0  0  0  0
  5  6  2  0  0  0  0
  5  7  1  0  0  0  0
  2  3  1  0  0  0  0
  2  4  1  0  0  0  0
  2  5  1  0  0  0  0
  1  2  1  0  0  0  0
 24 25  2  0  0  0  0
 24 26  1  0  0  0  0
 20 21  1  0  0  0  0
 20 22  1  0  0  0  0
 20 23  1  0  0  0  0
 17 18  1  0  0  0  0
 17 19  1  0  0  0  0
 17 20  1  0  0  0  0
 13 14  1  0  0  0  0
 13 15  1  0  0  0  0
 13 16  1  0  0  0  0
 11 12  1  0  0  0  0
 11 13  1  0  0  0  0
 11 17  1  0  0  0  0
  9 10  1  0  0  0  0
  9 11  1  0  0  0  0
  9 24  1  0  0  0  0
  7  8  1  0  0  0  0
  7  9  1  0  0  0  0
 28 29  1  0  0  0  0
 28 30  1  0  0  0  0
 28 31  1  0  0  0  0
 26 27  1  0  0  0  0
 26 28  1  0  0  0  0
M  END
$$$$
default_name
  -OEChem-02102213163D

 31 30  0     1  0  0  0  0  0999 V2000
   -3.0760   -3.6390    1.5496 H   0  0  0  0  0  0  0  0  0  0  0  0
   -3.0940   -2.6290    1.1426 C   0  0  0  0  0  0  0  0  0  0  0  0
   -3.7160   -1.9930    1.7706 H   0  0  0  0  0  0  0  0  0  0  0  0
   -3.4880   -2.6500    0.1286 H   0  0  0  0  0  0  0  0  0  0  0  0
   -1.6860   -2.0850    1.1196 C   0  0  0  0  0  0  0  0  0  0  0  0
   -0.7540   -2.7700    1.5226 O   0  0  0  0  0  0  0  0  0  0  0  0
   -1.5320   -0.8490    0.6496 N   0  0  0  0  0  0  0  0  0  0  0  0
   -2.3500   -0.3360    0.3566 H   0  0  0  0  0  0  0  0  0  0  0  0
   -0.2470   -0.1410    0.5576 C   0  0  1  0  0  0  0  0  0  0  0  0
    0.4239   -0.7541   -0.0450 H   0  0  0  0  0  0  0  0  0  0  0  0
   -0.4317    1.2160   -0.1683 C   0  0  1  0  0  0  0  0  0  0  0  0
    0.5365    1.7203   -0.1585 H   0  0  0  0  0  0  0  0  0  0  0  0
   -0.8554    1.0434   -1.6395 C   0  0  0  0  0  0  0  0  0  0  0  0
   -1.8552    0.6101   -1.7028 H   0  0  0  0  0  0  0  0  0  0  0  0
   -0.8517    2.0053   -2.1496 H   0  0  0  0  0  0  0  0  0  0  0  0
   -0.1548    0.3885   -2.1588 H   0  0  0  0  0  0  0  0  0  0  0  0
   -1.4291    2.1194    0.5910 C   0  0  0  0  0  0  0  0  0  0  0  0
   -2.3952    2.1149    0.0846 H   0  0  0  0  0  0  0  0  0  0  0  0
   -1.5679    1.7211    1.5961 H   0  0  0  0  0  0  0  0  0  0  0  0
   -0.9587    3.5730    0.7357 C   0  0  0  0  0  0  0  0  0  0  0  0
   -0.9054    4.0564   -0.2396 H   0  0  0  0  0  0  0  0  0  0  0  0
   -1.6688    4.1207    1.3556 H   0  0  0  0  0  0  0  0  0  0  0  0
    0.0224    3.6021    1.2110 H   0  0  0  0  0  0  0  0  0  0  0  0
    0.3833   -0.0008    1.9525 C   0  0  0  0  0  0  0  0  0  0  0  0
    1.5803   -0.2304    2.1189 O   0  0  0  0  0  0  0  0  0  0  0  0
   -0.4170    0.3858    2.9541 N   0  0  0  0  0  0  0  0  0  0  0  0
   -1.3850    0.5669    2.7398 H   0  0  0  0  0  0  0  0  0  0  0  0
    0.0265    0.5600    4.3358 C   0  0  0  0  0  0  0  0  0  0  0  0
    0.8964    1.2200    4.3632 H   0  0  0  0  0  0  0  0  0  0  0  0
   -0.7726    0.9946    4.9382 H   0  0  0  0  0  0  0  0  0  0  0  0
    0.3119   -0.4069    4.7547 H   0  0  0  0  0  0  0  0  0  0  0  0
  5  6  2  0  0  0  0
  5  7  1  0  0  0  0
  2  3  1  0  0  0  0
  2  4  1  0  0  0  0
  2  5  1  0  0  0  0
  1  2  1  0  0  0  0
 24 25  2  0  0  0  0
 24 26  1  0  0  0  0
 20 21  1  0  0  0  0
 20 22  1  0  0  0  0
 20 23  1  0  0  0  0
 17 18  1  0  0  0  0
 17 19  1  0  0  0  0
 17 20  1  0  0  0  0
 13 14  1  0  0  0  0
 13 15  1  0  0  0  0
 13 16  1  0  0  0  0
 11 12  1  0  0  0  0
 11 13  1  0  0  0  0
 11 17  1  0  0  0  0
  9 10  1  0  0  0  0
  9 11  1  0  0  0  0
  9 24  1  0  0  0  0
  7  8  1  0  0  0  0
  7  9  1  0  0  0  0
 28 29  1  0  0  0  0
 28 30  1  0  0  0  0
 28 31  1  0  0  0  0
 26 27  1  0  0  0  0
 26 28  1  0  0  0  0
M  END
$$$$
default_name
  -OEChem-02102213163D

 31 30  0     1  0  0  0  0  0999 V2000
   -3.0760   -3.6390    1.5496 H   0  0  0  0  0  0  0  0  0  0  0  0
   -3.0940   -2.6290    1.1426 C   0  0  0  0  0  0  0  0  0  0  0  0
   -3.7160   -1.9930    1.7706 H   0  0  0  0  0  0  0  0  0  0  0  0
   -3.4880   -2.6500    0.1286 H   0  0  0  0  0  0  0  0  0  0  0  0
   -1.6860   -2.0850    1.1196 C   0  0  0  0  0  0  0  0  0  0  0  0
   -0.7540   -2.7700    1.5226 O   0  0  0  0  0  0  0  0  0  0  0  0
   -1.5320   -0.8490    0.6496 N   0  0  0  0  0  0  0  0  0  0  0  0
   -2.3500   -0.3360    0.3566 H   0  0  0  0  0  0  0  0  0  0  0  0
   -0.2470   -0.1410    0.5576 C   0  0  1  0  0  0  0  0  0  0  0  0
    0.4239   -0.7541   -0.0450 H   0  0  0  0  0  0  0  0  0  0  0  0
   -0.4317    1.2160   -0.1683 C   0  0  1  0  0  0  0  0  0  0  0  0
    0.5365    1.7203   -0.1585 H   0  0  0  0  0  0  0  0  0  0  0  0
   -0.8554    1.0434   -1.6395 C   0  0  0  0  0  0  0  0  0  0  0  0
   -1.8552    0.6101   -1.7028 H   0  0  0  0  0  0  0  0  0  0  0  0
   -0.8517    2.0053   -2.1496 H   0  0  0  0  0  0  0  0  0  0  0  0
   -0.1548    0.3885   -2.1588 H   0  0  0  0  0  0  0  0  0  0  0  0
   -1.4291    2.1194    0.5910 C   0  0  0  0  0  0  0  0  0  0  0  0
   -2.4465    1.9150    0.2551 H   0  0  0  0  0  0  0  0  0  0  0  0
   -1.3681    1.8919    1.6552 H   0  0  0  0  0  0  0  0  0  0  0  0
   -1.1513    3.6198    0.4270 C   0  0  0  0  0  0  0  0  0  0  0  0
   -1.3038    3.9260   -0.6077 H   0  0  0  0  0  0  0  0  0  0  0  0
   -1.8369    4.1836    1.0600 H   0  0  0  0  0  0  0  0  0  0  0  0
   -0.1270    3.8444    0.7264 H   0  0  0  0  0  0  0  0  0  0  0  0
    0.3833   -0.0008    1.9525 C   0  0  0  0  0  0  0  0  0  0  0  0
    1.5803   -0.2304    2.1189 O   0  0  0  0  0  0  0  0  0  0  0  0
   -0.4170    0.3858    2.9541 N   0  0  0  0  0  0  0  0  0  0  0  0
   -1.3850    0.5669    2.7398 H   0  0  0  0  0  0  0  0  0  0  0  0
    0.0265    0.5600    4.3358 C   0  0  0  0  0  0  0  0  0  0  0  0
    0.8964    1.2200    4.3632 H   0  0  0  0  0  0  0  0  0  0  0  0
   -0.7726    0.9946    4.9382 H   0  0  0  0  0  0  0  0  0  0  0  0
    0.3119   -0.4069    4.7547 H   0  0  0  0  0  0  0  0  0  0  0  0
  5  6  2  0  0  0  0
  5  7  1  0  0  0  0
  2  3  1  0  0  0  0
  2  4  1  0  0  0  0
  2  5  1  0  0  0  0
  1  2  1  0  0  0  0
 24 25  2  0  0  0  0
 24 26  1  0  0  0  0
 20 21  1  0  0  0  0
 20 22  1  0  0  0  0
 20 23  1  0  0  0  0
 17 18  1  0  0  0  0
 17 19  1  0  0  0  0
 17 20  1  0  0  0  0
 13 14  1  0  0  0  0
 13 15  1  0  0  0  0
 13 16  1  0  0  0  0
 11 12  1  0  0  0  0
 11 13  1  0  0  0  0
 11 17  1  0  0  0  0
  9 10  1  0  0  0  0
  9 11  1  0  0  0  0
  9 24  1  0  0  0  0
  7  8  1  0  0  0  0
  7  9  1  0  0  0  0
 28 29  1  0  0  0  0
 28 30  1  0  0  0  0
 28 31  1  0  0  0  0
 26 27  1  0  0  0  0
 26 28  1  0  0  0  0
M  END
$$$$
default_name
  -OEChem-02102213163D

 31 30  0     1  0  0  0  0  0999 V2000
   -3.0760   -3.6390    1.5496 H   0  0  0  0  0  0  0  0  0  0  0  0
   -3.0940   -2.6290    1.1426 C   0  0  0  0  0  0  0  0  0  0  0  0
   -3.7160   -1.9930    1.7706 H   0  0  0  0  0  0  0  0  0  0  0  0
   -3.4880   -2.6500    0.1286 H   0  0  0  0  0  0  0  0  0  0  0  0
   -1.6860   -2.0850    1.1196 C   0  0  0  0  0  0  0  0  0  0  0  0
   -0.7540   -2.7700    1.5226 O   0  0  0  0  0  0  0  0  0  0  0  0
   -1.5320   -0.8490    0.6496 N   0  0  0  0  0  0  0  0  0  0  0  0
   -2.3500   -0.3360    0.3566 H   0  0  0  0  0  0  0  0  0  0  0  0
   -0.2470   -0.1410    0.5576 C   0  0  1  0  0  0  0  0  0  0  0  0
    0.4239   -0.7541   -0.0450 H   0  0  0  0  0  0  0  0  0  0  0  0
   -0.4317    1.2160   -0.1683 C   0  0  1  0  0  0  0  0  0  0  0  0
    0.5365    1.7203   -0.1585 H   0  0  0  0  0  0  0  0  0  0  0  0
   -0.8554    1.0434   -1.6395 C   0  0  0  0  0  0  0  0  0  0  0  0
   -1.8552    0.6101   -1.7028 H   0  0  0  0  0  0  0  0  0  0  0  0
   -0.8517    2.0053   -2.1496 H   0  0  0  0  0  0  0  0  0  0  0  0
   -0.1548    0.3885   -2.1588 H   0  0  0  0  0  0  0  0  0  0  0  0
   -1.4291    2.1194    0.5910 C   0  0  0  0  0  0  0  0  0  0  0  0
   -2.4449    1.7438    0.4608 H   0  0  0  0  0  0  0  0  0  0  0  0
   -1.1879    2.0922    1.6536 H   0  0  0  0  0  0  0  0  0  0  0  0
   -1.3900    3.5889    0.1503 C   0  0  0  0  0  0  0  0  0  0  0  0
   -1.7277    3.6878   -0.8812 H   0  0  0  0  0  0  0  0  0  0  0  0
   -2.0520    4.1736    0.7893 H   0  0  0  0  0  0  0  0  0  0  0  0
   -0.3754    3.9786    0.2405 H   0  0  0  0  0  0  0  0  0  0  0  0
    0.3833   -0.0008    1.9525 C   0  0  0  0  0  0  0  0  0  0  0  0
    1.5803   -0.2304    2.1189 O   0  0  0  0  0  0  0  0  0  0  0  0
   -0.4170    0.3858    2.9541 N   0  0  0  0  0  0  0  0  0  0  0  0
   -1.3850    0.5669    2.7398 H   0  0  0  0  0  0  0  0  0  0  0  0
    0.0265    0.5600    4.3358 C   0  0  0  0  0  0  0  0  0  0  0  0
    0.8964    1.2200    4.3632 H   0  0  0  0  0  0  0  0  0  0  0  0
   -0.7726    0.9946    4.9382 H   0  0  0  0  0  0  0  0  0  0  0  0
    0.3119   -0.4069    4.7547 H   0  0  0  0  0  0  0  0  0  0  0  0
  5  6  2  0  0  0  0
  5  7  1  0  0  0  0
  2  3  1  0  0  0  0
  2  4  1  0  0  0  0
  2  5  1  0  0  0  0
  1  2  1  0  0  0  0
 24 25  2  0  0  0  0
 24 26  1  0  0  0  0
 20 21  1  0  0  0  0
 20 22  1  0  0  0  0
 20 23  1  0  0  0  0
 17 18  1  0  0  0  0
 17 19  1  0  0  0  0
 17 20  1  0  0  0  0
 13 14  1  0  0  0  0
 13 15  1  0  0  0  0
 13 16  1  0  0  0  0
 11 12  1  0  0  0  0
 11 13  1  0  0  0  0
 11 17  1  0  0  0  0
  9 10  1  0  0  0  0
  9 11  1  0  0  0  0
  9 24  1  0  0  0  0
  7  8  1  0  0  0  0
  7  9  1  0  0  0  0
 28 29  1  0  0  0  0
 28 30  1  0  0  0  0
 28 31  1  0  0  0  0
 26 27  1  0  0  0  0
 26 28  1  0  0  0  0
M  END
$$$$
default_name
  -OEChem-02102213163D

 31 30  0     1  0  0  0  0  0999 V2000
   -3.0760   -3.6390    1.5496 H   0  0  0  0  0  0  0  0  0  0  0  0
   -3.0940   -2.6290    1.1426 C   0  0  0  0  0  0  0  0  0  0  0  0
   -3.7160   -1.9930    1.7706 H   0  0  0  0  0  0  0  0  0  0  0  0
   -3.4880   -2.6500    0.1286 H   0  0  0  0  0  0  0  0  0  0  0  0
   -1.6860   -2.0850    1.1196 C   0  0  0  0  0  0  0  0  0  0  0  0
   -0.7540   -2.7700    1.5226 O   0  0  0  0  0  0  0  0  0  0  0  0
   -1.5320   -0.8490    0.6496 N   0  0  0  0  0  0  0  0  0  0  0  0
   -2.3500   -0.3360    0.3566 H   0  0  0  0  0  0  0  0  0  0  0  0
   -0.2470   -0.1410    0.5576 C   0  0  1  0  0  0  0  0  0  0  0  0
    0.4239   -0.7541   -0.0450 H   0  0  0  0  0  0  0  0  0  0  0  0
   -0.4317    1.2160   -0.1683 C   0  0  1  0  0  0  0  0  0  0  0  0
    0.5655    1.5957   -0.3989 H   0  0  0  0  0  0  0  0  0  0  0  0
   -1.1976    1.0728   -1.4974 C   0  0  0  0  0  0  0  0  0  0  0  0
   -2.2293    0.7667   -1.3150 H   0  0  0  0  0  0  0  0  0  0  0  0
   -1.1974    2.0181   -2.0379 H   0  0  0  0  0  0  0  0  0  0  0  0
   -0.7163    0.3270   -2.1310 H   0  0  0  0  0  0  0  0  0  0  0  0
   -1.1158    2.2494    0.7544 C   0  0  0  0  0  0  0  0  0  0  0  0
   -2.0822    1.8688    1.0875 H   0  0  0  0  0  0  0  0  0  0  0  0
   -0.4886    2.4051    1.6322 H   0  0  0  0  0  0  0  0  0  0  0  0
   -1.3295    3.6191    0.0958 C   0  0  0  0  0  0  0  0  0  0  0  0
   -2.0381    3.5405   -0.7284 H   0  0  0  0  0  0  0  0  0  0  0  0
   -1.7315    4.3139    0.8335 H   0  0  0  0  0  0  0  0  0  0  0  0
   -0.3801    4.0067   -0.2754 H   0  0  0  0  0  0  0  0  0  0  0  0
    0.3833   -0.0008    1.9525 C   0  0  0  0  0  0  0  0  0  0  0  0
    1.5803   -0.2304    2.1189 O   0  0  0  0  0  0  0  0  0  0  0  0
   -0.4170    0.3858    2.9541 N   0  0  0  0  0  0  0  0  0  0  0  0
   -1.3850    0.5669    2.7398 H   0  0  0  0  0  0  0  0  0  0  0  0
    0.0265    0.5600    4.3358 C   0  0  0  0  0  0  0  0  0  0  0  0
    0.8964    1.2200    4.3632 H   0  0  0  0  0  0  0  0  0  0  0  0
   -0.7726    0.9946    4.9382 H   0  0  0  0  0  0  0  0  0  0  0  0
    0.3119   -0.4069    4.7547 H   0  0  0  0  0  0  0  0  0  0  0  0
  5  6  2  0  0  0  0
  5  7  1  0  0  0  0
  2  3  1  0  0  0  0
  2  4  1  0  0  0  0
  2  5  1  0  0  0  0
  1  2  1  0  0  0  0
 24 25  2  0  0  0  0
 24 26  1  0  0  0  0
 20 21  1  0  0  0  0
 20 22  1  0  0  0  0
 20 23  1  0  0  0  0
 17 18  1  0  0  0  0
 17 19  1  0  0  0  0
 17 20  1  0  0  0  0
 13 14  1  0  0  0  0
 13 15  1  0  0  0  0
 13 16  1  0  0  0  0
 11 12  1  0  0  0  0
 11 13  1  0  0  0  0
 11 17  1  0  0  0  0
  9 10  1  0  0  0  0
  9 11  1  0  0  0  0
  9 24  1  0  0  0  0
  7  8  1  0  0  0  0
  7  9  1  0  0  0  0
 28 29  1  0  0  0  0
 28 30  1  0  0  0  0
 28 31  1  0  0  0  0
 26 27  1  0  0  0  0
 26 28  1  0  0  0  0
M  END
$$$$
default_name
  -OEChem-02102213163D

 31 30  0     1  0  0  0  0  0999 V2000
   -3.0760   -3.6390    1.5496 H   0  0  0  0  0  0  0  0  0  0  0  0
   -3.0940   -2.6290    1.1426 C   0  0  0  0  0  0  0  0  0  0  0  0
   -3.7160   -1.9930    1.7706 H   0  0  0  0  0  0  0  0  0  0  0  0
   -3.4880   -2.6500    0.1286 H   0  0  0  0  0  0  0  0  0  0  0  0
   -1.6860   -2.0850    1.1196 C   0  0  0  0  0  0  0  0  0  0  0  0
   -0.7540   -2.7700    1.5226 O   0  0  0  0  0  0  0  0  0  0  0  0
   -1.5320   -0.8490    0.6496 N   0  0  0  0  0  0  0  0  0  0  0  0
   -2.3500   -0.3360    0.3566 H   0  0  0  0  0  0  0  0  0  0  0  0
   -0.2470   -0.1410    0.5576 C   0  0  1  0  0  0  0  0  0  0  0  0
    0.4239   -0.7541   -0.0450 H   0  0  0  0  0  0  0  0  0  0  0  0
   -0.4317    1.2160   -0.1683 C   0  0  1  0  0  0  0  0  0  0  0  0
    0.5655    1.5957   -0.3989 H   0  0  0  0  0  0  0  0  0  0  0  0
   -1.1976    1.0728   -1.4974 C   0  0  0  0  0  0  0  0  0  0  0  0
   -2.2293    0.7667   -1.3150 H   0  0  0  0  0  0  0  0  0  0  0  0
   -1.1974    2.0181   -2.0379 H   0  0  0  0  0  0  0  0  0  0  0  0
   -0.7163    0.3270   -2.1310 H   0  0  0  0  0  0  0  0  0  0  0  0
   -1.1158    2.2494    0.7544 C   0  0  0  0  0  0  0  0  0  0  0  0
   -1.9384    1.7790    1.2946 H   0  0  0  0  0  0  0  0  0  0  0  0
   -0.3874    2.6053    1.4830 H   0  0  0  0  0  0  0  0  0  0  0  0
   -1.6572    3.4780    0.0109 C   0  0  0  0  0  0  0  0  0  0  0  0
   -2.4687    3.1928   -0.6583 H   0  0  0  0  0  0  0  0  0  0  0  0
   -2.0415    4.1962    0.7355 H   0  0  0  0  0  0  0  0  0  0  0  0
   -0.8586    3.9479   -0.5642 H   0  0  0  0  0  0  0  0  0  0  0  0
    0.3833   -0.0008    1.9525 C   0  0  0  0  0  0  0  0  0  0  0  0
    1.5803   -0.2304    2.1189 O   0  0  0  0  0  0  0  0  0  0  0  0
   -0.4170    0.3858    2.9541 N   0  0  0  0  0  0  0  0  0  0  0  0
   -1.3850    0.5669    2.7398 H   0  0  0  0  0  0  0  0  0  0  0  0
    0.0265    0.5600    4.3358 C   0  0  0  0  0  0  0  0  0  0  0  0
    0.8964    1.2200    4.3632 H   0  0  0  0  0  0  0  0  0  0  0  0
   -0.7726    0.9946    4.9382 H   0  0  0  0  0  0  0  0  0  0  0  0
    0.3119   -0.4069    4.7547 H   0  0  0  0  0  0  0  0  0  0  0  0
  5  6  2  0  0  0  0
  5  7  1  0  0  0  0
  2  3  1  0  0  0  0
  2  4  1  0  0  0  0
  2  5  1  0  0  0  0
  1  2  1  0  0  0  0
 24 25  2  0  0  0  0
 24 26  1  0  0  0  0
 20 21  1  0  0  0  0
 20 22  1  0  0  0  0
 20 23  1  0  0  0  0
 17 18  1  0  0  0  0
 17 19  1  0  0  0  0
 17 20  1  0  0  0  0
 13 14  1  0  0  0  0
 13 15  1  0  0  0  0
 13 16  1  0  0  0  0
 11 12  1  0  0  0  0
 11 13  1  0  0  0  0
 11 17  1  0  0  0  0
  9 10  1  0  0  0  0
  9 11  1  0  0  0  0
  9 24  1  0  0  0  0
  7  8  1  0  0  0  0
  7  9  1  0  0  0  0
 28 29  1  0  0  0  0
 28 30  1  0  0  0  0
 28 31  1  0  0  0  0
 26 27  1  0  0  0  0
 26 28  1  0  0  0  0
M  END
$$$$
default_name
  -OEChem-02102213163D

 31 30  0     1  0  0  0  0  0999 V2000
   -3.0760   -3.6390    1.5496 H   0  0  0  0  0  0  0  0  0  0  0  0
   -3.0940   -2.6290    1.1426 C   0  0  0  0  0  0  0  0  0  0  0  0
   -3.7160   -1.9930    1.7706 H   0  0  0  0  0  0  0  0  0  0  0  0
   -3.4880   -2.6500    0.1286 H   0  0  0  0  0  0  0  0  0  0  0  0
   -1.6860   -2.0850    1.1196 C   0  0  0  0  0  0  0  0  0  0  0  0
   -0.7540   -2.7700    1.5226 O   0  0  0  0  0  0  0  0  0  0  0  0
   -1.5320   -0.8490    0.6496 N   0  0  0  0  0  0  0  0  0  0  0  0
   -2.3500   -0.3360    0.3566 H   0  0  0  0  0  0  0  0  0  0  0  0
   -0.2470   -0.1410    0.5576 C   0  0  1  0  0  0  0  0  0  0  0  0
    0.4239   -0.7541   -0.0450 H   0  0  0  0  0  0  0  0  0  0  0  0
   -0.4317    1.2160   -0.1683 C   0  0  1  0  0  0  0  0  0  0  0  0
    0.5655    1.5957   -0.3989 H   0  0  0  0  0  0  0  0  0  0  0  0
   -1.1976    1.0728   -1.4974 C   0  0  0  0  0  0  0  0  0  0  0  0
   -2.2293    0.7667   -1.3150 H   0  0  0  0  0  0  0  0  0  0  0  0
   -1.1974    2.0181   -2.0379 H   0  0  0  0  0  0  0  0  0  0  0  0
   -0.7163    0.3270   -2.1310 H   0  0  0  0  0  0  0  0  0  0  0  0
   -1.1158    2.2494    0.7544 C   0  0  0  0  0  0  0  0  0  0  0  0
   -1.7498    1.7383    1.4801 H   0  0  0  0  0  0  0  0  0  0  0  0
   -0.3464    2.7973    1.2984 H   0  0  0  0  0  0  0  0  0  0  0  0
   -1.9667    3.2813    0.0017 C   0  0  0  0  0  0  0  0  0  0  0  0
   -2.8188    2.7985   -0.4762 H   0  0  0  0  0  0  0  0  0  0  0  0
   -2.3398    4.0234    0.7079 H   0  0  0  0  0  0  0  0  0  0  0  0
   -1.3617    3.7840   -0.7537 H   0  0  0  0  0  0  0  0  0  0  0  0
    0.3833   -0.0008    1.9525 C   0  0  0  0  0  0  0  0  0  0  0  0
    1.5803   -0.2304    2.1189 O   0  0  0  0  0  0  0  0  0  0  0  0
   -0.4170    0.3858    2.9541 N   0  0  0  0  0  0  0  0  0  0  0  0
   -1.3850    0.5669    2.7398 H   0  0  0  0  0  0  0  0  0  0  0  0
    0.0265    0.5600    4.3358 C   0  0  0  0  0  0  0  0  0  0  0  0
    0.8964    1.2200    4.3632 H   0  0  0  0  0  0  0  0  0  0  0  0
   -0.7726    0.9946    4.9382 H   0  0  0  0  0  0  0  0  0  0  0  0
    0.3119   -0.4069    4.7547 H   0  0  0  0  0  0  0  0  0  0  0  0
  5  6  2  0  0  0  0
  5  7  1  0  0  0  0
  2  3  1  0  0  0  0
  2  4  1  0  0  0  0
  2  5  1  0  0  0  0
  1  2  1  0  0  0  0
 24 25  2  0  0  0  0
 24 26  1  0  0  0  0
 20 21  1  0  0  0  0
 20 22  1  0  0  0  0
 20 23  1  0  0  0  0
 17 18  1  0  0  0  0
 17 19  1  0  0  0  0
 17 20  1  0  0  0  0
 13 14  1  0  0  0  0
 13 15  1  0  0  0  0
 13 16  1  0  0  0  0
 11 12  1  0  0  0  0
 11 13  1  0  0  0  0
 11 17  1  0  0  0  0
  9 10  1  0  0  0  0
  9 11  1  0  0  0  0
  9 24  1  0  0  0  0
  7  8  1  0  0  0  0
  7  9  1  0  0  0  0
 28 29  1  0  0  0  0
 28 30  1  0  0  0  0
 28 31  1  0  0  0  0
 26 27  1  0  0  0  0
 26 28  1  0  0  0  0
M  END
$$$$
default_name
  -OEChem-02102213163D

 31 30  0     1  0  0  0  0  0999 V2000
   -3.0760   -3.6390    1.5496 H   0  0  0  0  0  0  0  0  0  0  0  0
   -3.0940   -2.6290    1.1426 C   0  0  0  0  0  0  0  0  0  0  0  0
   -3.7160   -1.9930    1.7706 H   0  0  0  0  0  0  0  0  0  0  0  0
   -3.4880   -2.6500    0.1286 H   0  0  0  0  0  0  0  0  0  0  0  0
   -1.6860   -2.0850    1.1196 C   0  0  0  0  0  0  0  0  0  0  0  0
   -0.7540   -2.7700    1.5226 O   0  0  0  0  0  0  0  0  0  0  0  0
   -1.5320   -0.8490    0.6496 N   0  0  0  0  0  0  0  0  0  0  0  0
   -2.3500   -0.3360    0.3566 H   0  0  0  0  0  0  0  0  0  0  0  0
   -0.2470   -0.1410    0.5576 C   0  0  1  0  0  0  0  0  0  0  0  0
    0.4239   -0.7541   -0.0450 H   0  0  0  0  0  0  0  0  0  0  0  0
   -0.4317    1.2160   -0.1683 C   0  0  1  0  0  0  0  0  0  0  0  0
    0.5655    1.5957   -0.3989 H   0  0  0  0  0  0  0  0  0  0  0  0
   -1.1976    1.0728   -1.4974 C   0  0  0  0  0  0  0  0  0  0  0  0
   -2.2293    0.7667   -1.3150 H   0  0  0  0  0  0  0  0  0  0  0  0
   -1.1974    2.0181   -2.0379 H   0  0  0  0  0  0  0  0  0  0  0  0
   -0.7163    0.3270   -2.1310 H   0  0  0  0  0  0  0  0  0  0  0  0
   -1.1158    2.2494    0.7544 C   0  0  0  0  0  0  0  0  0  0  0  0
   -1.5292    1.7493    1.6313 H   0  0  0  0  0  0  0  0  0  0  0  0
   -0.3684    2.9678    1.0911 H   0  0  0  0  0  0  0  0  0  0  0  0
   -2.2368    3.0424    0.0690 C   0  0  0  0  0  0  0  0  0  0  0  0
   -3.0645    2.3843   -0.1945 H   0  0  0  0  0  0  0  0  0  0  0  0
   -2.6060    3.8071    0.7527 H   0  0  0  0  0  0  0  0  0  0  0  0
   -1.8551    3.5262   -0.8308 H   0  0  0  0  0  0  0  0  0  0  0  0
    0.3833   -0.0008    1.9525 C   0  0  0  0  0  0  0  0  0  0  0  0
    1.5803   -0.2304    2.1189 O   0  0  0  0  0  0  0  0  0  0  0  0
   -0.4170    0.3858    2.9541 N   0  0  0  0  0  0  0  0  0  0  0  0
   -1.3850    0.5669    2.7398 H   0  0  0  0  0  0  0  0  0  0  0  0
    0.0265    0.5600    4.3358 C   0  0  0  0  0  0  0  0  0  0  0  0
    0.8964    1.2200    4.3632 H   0  0  0  0  0  0  0  0  0  0  0  0
   -0.7726    0.9946    4.9382 H   0  0  0  0  0  0  0  0  0  0  0  0
    0.3119   -0.4069    4.7547 H   0  0  0  0  0  0  0  0  0  0  0  0
  5  6  2  0  0  0  0
  5  7  1  0  0  0  0
  2  3  1  0  0  0  0
  2  4  1  0  0  0  0
  2  5  1  0  0  0  0
  1  2  1  0  0  0  0
 24 25  2  0  0  0  0
 24 26  1  0  0  0  0
 20 21  1  0  0  0  0
 20 22  1  0  0  0  0
 20 23  1  0  0  0  0
 17 18  1  0  0  0  0
 17 19  1  0  0  0  0
 17 20  1  0  0  0  0
 13 14  1  0  0  0  0
 13 15  1  0  0  0  0
 13 16  1  0  0  0  0
 11 12  1  0  0  0  0
 11 13  1  0  0  0  0
 11 17  1  0  0  0  0
  9 10  1  0  0  0  0
  9 11  1  0  0  0  0
  9 24  1  0  0  0  0
  7  8  1  0  0  0  0
  7  9  1  0  0  0  0
 28 29  1  0  0  0  0
 28 30  1  0  0  0  0
 28 31  1  0  0  0  0
 26 27  1  0  0  0  0
 26 28  1  0  0  0  0
M  END
$$$$
default_name
  -OEChem-02102213163D

 31 30  0     1  0  0  0  0  0999 V2000
   -3.0760   -3.6390    1.5496 H   0  0  0  0  0  0  0  0  0  0  0  0
   -3.0940   -2.6290    1.1426 C   0  0  0  0  0  0  0  0  0  0  0  0
   -3.7160   -1.9930    1.7706 H   0  0  0  0  0  0  0  0  0  0  0  0
   -3.4880   -2.6500    0.1286 H   0  0  0  0  0  0  0  0  0  0  0  0
   -1.6860   -2.0850    1.1196 C   0  0  0  0  0  0  0  0  0  0  0  0
   -0.7540   -2.7700    1.5226 O   0  0  0  0  0  0  0  0  0  0  0  0
   -1.5320   -0.8490    0.6496 N   0  0  0  0  0  0  0  0  0  0  0  0
   -2.3500   -0.3360    0.3566 H   0  0  0  0  0  0  0  0  0  0  0  0
   -0.2470   -0.1410    0.5576 C   0  0  1  0  0  0  0  0  0  0  0  0
    0.4239   -0.7541   -0.0450 H   0  0  0  0  0  0  0  0  0  0  0  0
   -0.4317    1.2160   -0.1683 C   0  0  1  0  0  0  0  0  0  0  0  0
    0.5655    1.5957   -0.3989 H   0  0  0  0  0  0  0  0  0  0  0  0
   -1.1976    1.0728   -1.4974 C   0  0  0  0  0  0  0  0  0  0  0  0
   -2.2293    0.7667   -1.3150 H   0  0  0  0  0  0  0  0  0  0  0  0
   -1.1974    2.0181   -2.0379 H   0  0  0  0  0  0  0  0  0  0  0  0
   -0.7163    0.3270   -2.1310 H   0  0  0  0  0  0  0  0  0  0  0  0
   -1.1158    2.2494    0.7544 C   0  0  0  0  0  0  0  0  0  0  0  0
   -1.2916    1.8114    1.7379 H   0  0  0  0  0  0  0  0  0  0  0  0
   -0.4519    3.1055    0.8750 H   0  0  0  0  0  0  0  0  0  0  0  0
   -2.4491    2.7777    0.2081 C   0  0  0  0  0  0  0  0  0  0  0  0
   -3.1891    1.9786    0.1676 H   0  0  0  0  0  0  0  0  0  0  0  0
   -2.8220    3.5623    0.8669 H   0  0  0  0  0  0  0  0  0  0  0  0
   -2.3052    3.1921   -0.7903 H   0  0  0  0  0  0  0  0  0  0  0  0
    0.3833   -0.0008    1.9525 C   0  0  0  0  0  0  0  0  0  0  0  0
    1.5803   -0.2304    2.1189 O   0  0  0  0  0  0  0  0  0  0  0  0
   -0.4170    0.3858    2.9541 N   0  0  0  0  0  0  0  0  0  0  0  0
   -1.3850    0.5669    2.7398 H   0  0  0  0  0  0  0  0  0  0  0  0
    0.0265    0.5600    4.3358 C   0  0  0  0  0  0  0  0  0  0  0  0
    0.8964    1.2200    4.3632 H   0  0  0  0  0  0  0  0  0  0  0  0
   -0.7726    0.9946    4.9382 H   0  0  0  0  0  0  0  0  0  0  0  0
    0.3119   -0.4069    4.7547 H   0  0  0  0  0  0  0  0  0  0  0  0
  5  6  2  0  0  0  0
  5  7  1  0  0  0  0
  2  3  1  0  0  0  0
  2  4  1  0  0  0  0
  2  5  1  0  0  0  0
  1  2  1  0  0  0  0
 24 25  2  0  0  0  0
 24 26  1  0  0  0  0
 20 21  1  0  0  0  0
 20 22  1  0  0  0  0
 20 23  1  0  0  0  0
 17 18  1  0  0  0  0
 17 19  1  0  0  0  0
 17 20  1  0  0  0  0
 13 14  1  0  0  0  0
 13 15  1  0  0  0  0
 13 16  1  0  0  0  0
 11 12  1  0  0  0  0
 11 13  1  0  0  0  0
 11 17  1  0  0  0  0
  9 10  1  0  0  0  0
  9 11  1  0  0  0  0
  9 24  1  0  0  0  0
  7  8  1  0  0  0  0
  7  9  1  0  0  0  0
 28 29  1  0  0  0  0
 28 30  1  0  0  0  0
 28 31  1  0  0  0  0
 26 27  1  0  0  0  0
 26 28  1  0  0  0  0
M  END
$$$$
default_name
  -OEChem-02102213163D

 31 30  0     1  0  0  0  0  0999 V2000
   -3.0760   -3.6390    1.5496 H   0  0  0  0  0  0  0  0  0  0  0  0
   -3.0940   -2.6290    1.1426 C   0  0  0  0  0  0  0  0  0  0  0  0
   -3.7160   -1.9930    1.7706 H   0  0  0  0  0  0  0  0  0  0  0  0
   -3.4880   -2.6500    0.1286 H   0  0  0  0  0  0  0  0  0  0  0  0
   -1.6860   -2.0850    1.1196 C   0  0  0  0  0  0  0  0  0  0  0  0
   -0.7540   -2.7700    1.5226 O   0  0  0  0  0  0  0  0  0  0  0  0
   -1.5320   -0.8490    0.6496 N   0  0  0  0  0  0  0  0  0  0  0  0
   -2.3500   -0.3360    0.3566 H   0  0  0  0  0  0  0  0  0  0  0  0
   -0.2470   -0.1410    0.5576 C   0  0  1  0  0  0  0  0  0  0  0  0
    0.4239   -0.7541   -0.0450 H   0  0  0  0  0  0  0  0  0  0  0  0
   -0.4317    1.2160   -0.1683 C   0  0  1  0  0  0  0  0  0  0  0  0
    0.5655    1.5957   -0.3989 H   0  0  0  0  0  0  0  0  0  0  0  0
   -1.1976    1.0728   -1.4974 C   0  0  0  0  0  0  0  0  0  0  0  0
   -2.2293    0.7667   -1.3150 H   0  0  0  0  0  0  0  0  0  0  0  0
   -1.1974    2.0181   -2.0379 H   0  0  0  0  0  0  0  0  0  0  0  0
   -0.7163    0.3270   -2.1310 H   0  0  0  0  0  0  0  0  0  0  0  0
   -1.1158    2.2494    0.7544 C   0  0  0  0  0  0  0  0  0  0  0  0
   -1.0533    1.9203    1.7926 H   0  0  0  0  0  0  0  0  0  0  0  0
   -0.5912    3.2007    0.6651 H   0  0  0  0  0  0  0  0  0  0  0  0
   -2.5892    2.5051    0.4096 C   0  0  0  0  0  0  0  0  0  0  0  0
   -3.1840    1.6089    0.5854 H   0  0  0  0  0  0  0  0  0  0  0  0
   -2.9729    3.3055    1.0426 H   0  0  0  0  0  0  0  0  0  0  0  0
   -2.6813    2.8045   -0.6350 H   0  0  0  0  0  0  0  0  0  0  0  0
    0.3833   -0.0008    1.9525 C   0  0  0  0  0  0  0  0  0  0  0  0
    1.5803   -0.2304    2.1189 O   0  0  0  0  0  0  0  0  0  0  0  0
   -0.4170    0.3858    2.9541 N   0  0  0  0  0  0  0  0  0  0  0  0
   -1.3850    0.5669    2.7398 H   0  0  0  0  0  0  0  0  0  0  0  0
    0.0265    0.5600    4.3358 C   0  0  0  0  0  0  0  0  0  0  0  0
    0.8964    1.2200    4.3632 H   0  0  0  0  0  0  0  0  0  0  0  0
   -0.7726    0.9946    4.9382 H   0  0  0  0  0  0  0  0  0  0  0  0
    0.3119   -0.4069    4.7547 H   0  0  0  0  0  0  0  0  0  0  0  0
  5  6  2  0  0  0  0
  5  7  1  0  0  0  0
  2  3  1  0  0  0  0
  2  4  1  0  0  0  0
  2  5  1  0  0  0  0
  1  2  1  0  0  0  0
 24 25  2  0  0  0  0
 24 26  1  0  0  0  0
 20 21  1  0  0  0  0
 20 22  1  0  0  0  0
 20 23  1  0  0  0  0
 17 18  1  0  0  0  0
 17 19  1  0  0  0  0
 17 20  1  0  0  0  0
 13 14  1  0  0  0  0
 13 15  1  0  0  0  0
 13 16  1  0  0  0  0
 11 12  1  0  0  0  0
 11 13  1  0  0  0  0
 11 17  1  0  0  0  0
  9 10  1  0  0  0  0
  9 11  1  0  0  0  0
  9 24  1  0  0  0  0
  7  8  1  0  0  0  0
  7  9  1  0  0  0  0
 28 29  1  0  0  0  0
 28 30  1  0  0  0  0
 28 31  1  0  0  0  0
 26 27  1  0  0  0  0
 26 28  1  0  0  0  0
M  END
$$$$
default_name
  -OEChem-02102213163D

 31 30  0     1  0  0  0  0  0999 V2000
   -3.0760   -3.6390    1.5496 H   0  0  0  0  0  0  0  0  0  0  0  0
   -3.0940   -2.6290    1.1426 C   0  0  0  0  0  0  0  0  0  0  0  0
   -3.7160   -1.9930    1.7706 H   0  0  0  0  0  0  0  0  0  0  0  0
   -3.4880   -2.6500    0.1286 H   0  0  0  0  0  0  0  0  0  0  0  0
   -1.6860   -2.0850    1.1196 C   0  0  0  0  0  0  0  0  0  0  0  0
   -0.7540   -2.7700    1.5226 O   0  0  0  0  0  0  0  0  0  0  0  0
   -1.5320   -0.8490    0.6496 N   0  0  0  0  0  0  0  0  0  0  0  0
   -2.3500   -0.3360    0.3566 H   0  0  0  0  0  0  0  0  0  0  0  0
   -0.2470   -0.1410    0.5576 C   0  0  1  0  0  0  0  0  0  0  0  0
    0.4239   -0.7541   -0.0450 H   0  0  0  0  0  0  0  0  0  0  0  0
   -0.4317    1.2160   -0.1683 C   0  0  1  0  0  0  0  0  0  0  0  0
    0.5655    1.5957   -0.3989 H   0  0  0  0  0  0  0  0  0  0  0  0
   -1.1976    1.0728   -1.4974 C   0  0  0  0  0  0  0  0  0  0  0  0
   -2.2293    0.7667   -1.3150 H   0  0  0  0  0  0  0  0  0  0  0  0
   -1.1974    2.0181   -2.0379 H   0  0  0  0  0  0  0  0  0  0  0  0
   -0.7163    0.3270   -2.1310 H   0  0  0  0  0  0  0  0  0  0  0  0
   -1.1158    2.2494    0.7544 C   0  0  0  0  0  0  0  0  0  0  0  0
   -0.8304    2.0687    1.7916 H   0  0  0  0  0  0  0  0  0  0  0  0
   -0.7769    3.2471    0.4754 H   0  0  0  0  0  0  0  0  0  0  0  0
   -2.6475    2.2432    0.6597 C   0  0  0  0  0  0  0  0  0  0  0  0
   -3.0496    1.3005    1.0304 H   0  0  0  0  0  0  0  0  0  0  0  0
   -3.0486    3.0542    1.2679 H   0  0  0  0  0  0  0  0  0  0  0  0
   -2.9578    2.3898   -0.3755 H   0  0  0  0  0  0  0  0  0  0  0  0
    0.3833   -0.0008    1.9525 C   0  0  0  0  0  0  0  0  0  0  0  0
    1.5803   -0.2304    2.1189 O   0  0  0  0  0  0  0  0  0  0  0  0
   -0.4170    0.3858    2.9541 N   0  0  0  0  0  0  0  0  0  0  0  0
   -1.3850    0.5669    2.7398 H   0  0  0  0  0  0  0  0  0  0  0  0
    0.0265    0.5600    4.3358 C   0  0  0  0  0  0  0  0  0  0  0  0
    0.8964    1.2200    4.3632 H   0  0  0  0  0  0  0  0  0  0  0  0
   -0.7726    0.9946    4.9382 H   0  0  0  0  0  0  0  0  0  0  0  0
    0.3119   -0.4069    4.7547 H   0  0  0  0  0  0  0  0  0  0  0  0
  5  6  2  0  0  0  0
  5  7  1  0  0  0  0
  2  3  1  0  0  0  0
  2  4  1  0  0  0  0
  2  5  1  0  0  0  0
  1  2  1  0  0  0  0
 24 25  2  0  0  0  0
 24 26  1  0  0  0  0
 20 21  1  0  0  0  0
 20 22  1  0  0  0  0
 20 23  1  0  0  0  0
 17 18  1  0  0  0  0
 17 19  1  0  0  0  0
 17 20  1  0  0  0  0
 13 14  1  0  0  0  0
 13 15  1  0  0  0  0
 13 16  1  0  0  0  0
 11 12  1  0  0  0  0
 11 13  1  0  0  0  0
 11 17  1  0  0  0  0
  9 10  1  0  0  0  0
  9 11  1  0  0  0  0
  9 24  1  0  0  0  0
  7  8  1  0  0  0  0
  7  9  1  0  0  0  0
 28 29  1  0  0  0  0
 28 30  1  0  0  0  0
 28 31  1  0  0  0  0
 26 27  1  0  0  0  0
 26 28  1  0  0  0  0
M  END
$$$$
default_name
  -OEChem-02102213163D

 31 30  0     1  0  0  0  0  0999 V2000
   -3.0760   -3.6390    1.5496 H   0  0  0  0  0  0  0  0  0  0  0  0
   -3.0940   -2.6290    1.1426 C   0  0  0  0  0  0  0  0  0  0  0  0
   -3.7160   -1.9930    1.7706 H   0  0  0  0  0  0  0  0  0  0  0  0
   -3.4880   -2.6500    0.1286 H   0  0  0  0  0  0  0  0  0  0  0  0
   -1.6860   -2.0850    1.1196 C   0  0  0  0  0  0  0  0  0  0  0  0
   -0.7540   -2.7700    1.5226 O   0  0  0  0  0  0  0  0  0  0  0  0
   -1.5320   -0.8490    0.6496 N   0  0  0  0  0  0  0  0  0  0  0  0
   -2.3500   -0.3360    0.3566 H   0  0  0  0  0  0  0  0  0  0  0  0
   -0.2470   -0.1410    0.5576 C   0  0  1  0  0  0  0  0  0  0  0  0
    0.4239   -0.7541   -0.0450 H   0  0  0  0  0  0  0  0  0  0  0  0
   -0.4317    1.2160   -0.1683 C   0  0  1  0  0  0  0  0  0  0  0  0
    0.5655    1.5957   -0.3989 H   0  0  0  0  0  0  0  0  0  0  0  0
   -1.1976    1.0728   -1.4974 C   0  0  0  0  0  0  0  0  0  0  0  0
   -2.2293    0.7667   -1.3150 H   0  0  0  0  0  0  0  0  0  0  0  0
   -1.1974    2.0181   -2.0379 H   0  0  0  0  0  0  0  0  0  0  0  0
   -0.7163    0.3270   -2.1310 H   0  0  0  0  0  0  0  0  0  0  0  0
   -1.1158    2.2494    0.7544 C   0  0  0  0  0  0  0  0  0  0  0  0
   -0.6383    2.2462    1.7352 H   0  0  0  0  0  0  0  0  0  0  0  0
   -0.9962    3.2415    0.3191 H   0  0  0  0  0  0  0  0  0  0  0  0
   -2.6201    2.0098    0.9413 C   0  0  0  0  0  0  0  0  0  0  0  0
   -2.7951    1.0744    1.4724 H   0  0  0  0  0  0  0  0  0  0  0  0
   -3.0439    2.8256    1.5274 H   0  0  0  0  0  0  0  0  0  0  0  0
   -3.1159    1.9761   -0.0294 H   0  0  0  0  0  0  0  0  0  0  0  0
    0.3833   -0.0008    1.9525 C   0  0  0  0  0  0  0  0  0  0  0  0
    1.5803   -0.2304    2.1189 O   0  0  0  0  0  0  0  0  0  0  0  0
   -0.4170    0.3858    2.9541 N   0  0  0  0  0  0  0  0  0  0  0  0
   -1.3850    0.5669    2.7398 H   0  0  0  0  0  0  0  0  0  0  0  0
    0.0265    0.5600    4.3358 C   0  0  0  0  0  0  0  0  0  0  0  0
    0.8964    1.2200    4.3632 H   0  0  0  0  0  0  0  0  0  0  0  0
   -0.7726    0.9946    4.9382 H   0  0  0  0  0  0  0  0  0  0  0  0
    0.3119   -0.4069    4.7547 H   0  0  0  0  0  0  0  0  0  0  0  0
  5  6  2  0  0  0  0
  5  7  1  0  0  0  0
  2  3  1  0  0  0  0
  2  4  1  0  0  0  0
  2  5  1  0  0  0  0
  1  2  1  0  0  0  0
 24 25  2  0  0  0  0
 24 26  1  0  0  0  0
 20 21  1  0  0  0  0
 20 22  1  0  0  0  0
 20 23  1  0  0  0  0
 17 18  1  0  0  0  0
 17 19  1  0  0  0  0
 17 20  1  0  0  0  0
 13 14  1  0  0  0  0
 13 15  1  0  0  0  0
 13 16  1  0  0  0  0
 11 12  1  0  0  0  0
 11 13  1  0  0  0  0
 11 17  1  0  0  0  0
  9 10  1  0  0  0  0
  9 11  1  0  0  0  0
  9 24  1  0  0  0  0
  7  8  1  0  0  0  0
  7  9  1  0  0  0  0
 28 29  1  0  0  0  0
 28 30  1  0  0  0  0
 28 31  1  0  0  0  0
 26 27  1  0  0  0  0
 26 28  1  0  0  0  0
M  END
$$$$
default_name
  -OEChem-02102213163D

 31 30  0     1  0  0  0  0  0999 V2000
   -3.0760   -3.6390    1.5496 H   0  0  0  0  0  0  0  0  0  0  0  0
   -3.0940   -2.6290    1.1426 C   0  0  0  0  0  0  0  0  0  0  0  0
   -3.7160   -1.9930    1.7706 H   0  0  0  0  0  0  0  0  0  0  0  0
   -3.4880   -2.6500    0.1286 H   0  0  0  0  0  0  0  0  0  0  0  0
   -1.6860   -2.0850    1.1196 C   0  0  0  0  0  0  0  0  0  0  0  0
   -0.7540   -2.7700    1.5226 O   0  0  0  0  0  0  0  0  0  0  0  0
   -1.5320   -0.8490    0.6496 N   0  0  0  0  0  0  0  0  0  0  0  0
   -2.3500   -0.3360    0.3566 H   0  0  0  0  0  0  0  0  0  0  0  0
   -0.2470   -0.1410    0.5576 C   0  0  1  0  0  0  0  0  0  0  0  0
    0.4239   -0.7541   -0.0450 H   0  0  0  0  0  0  0  0  0  0  0  0
   -0.4317    1.2160   -0.1683 C   0  0  1  0  0  0  0  0  0  0  0  0
    0.5655    1.5957   -0.3989 H   0  0  0  0  0  0  0  0  0  0  0  0
   -1.1976    1.0728   -1.4974 C   0  0  0  0  0  0  0  0  0  0  0  0
   -2.2293    0.7667   -1.3150 H   0  0  0  0  0  0  0  0  0  0  0  0
   -1.1974    2.0181   -2.0379 H   0  0  0  0  0  0  0  0  0  0  0  0
   -0.7163    0.3270   -2.1310 H   0  0  0  0  0  0  0  0  0  0  0  0
   -1.1158    2.2494    0.7544 C   0  0  0  0  0  0  0  0  0  0  0  0
   -0.4899    2.4410    1.6271 H   0  0  0  0  0  0  0  0  0  0  0  0
   -1.2343    3.1843    0.2067 H   0  0  0  0  0  0  0  0  0  0  0  0
   -2.5087    1.8210    1.2354 C   0  0  0  0  0  0  0  0  0  0  0  0
   -2.4378    0.9459    1.8812 H   0  0  0  0  0  0  0  0  0  0  0  0
   -2.9592    2.6353    1.8034 H   0  0  0  0  0  0  0  0  0  0  0  0
   -3.1447    1.5918    0.3797 H   0  0  0  0  0  0  0  0  0  0  0  0
    0.3833   -0.0008    1.9525 C   0  0  0  0  0  0  0  0  0  0  0  0
    1.5803   -0.2304    2.1189 O   0  0  0  0  0  0  0  0  0  0  0  0
   -0.4170    0.3858    2.9541 N   0  0  0  0  0  0  0  0  0  0  0  0
   -1.3850    0.5669    2.7398 H   0  0  0  0  0  0  0  0  0  0  0  0
    0.0265    0.5600    4.3358 C   0  0  0  0  0  0  0  0  0  0  0  0
    0.8964    1.2200    4.3632 H   0  0  0  0  0  0  0  0  0  0  0  0
   -0.7726    0.9946    4.9382 H   0  0  0  0  0  0  0  0  0  0  0  0
    0.3119   -0.4069    4.7547 H   0  0  0  0  0  0  0  0  0  0  0  0
  5  6  2  0  0  0  0
  5  7  1  0  0  0  0
  2  3  1  0  0  0  0
  2  4  1  0  0  0  0
  2  5  1  0  0  0  0
  1  2  1  0  0  0  0
 24 25  2  0  0  0  0
 24 26  1  0  0  0  0
 20 21  1  0  0  0  0
 20 22  1  0  0  0  0
 20 23  1  0  0  0  0
 17 18  1  0  0  0  0
 17 19  1  0  0  0  0
 17 20  1  0  0  0  0
 13 14  1  0  0  0  0
 13 15  1  0  0  0  0
 13 16  1  0  0  0  0
 11 12  1  0  0  0  0
 11 13  1  0  0  0  0
 11 17  1  0  0  0  0
  9 10  1  0  0  0  0
  9 11  1  0  0  0  0
  9 24  1  0  0  0  0
  7  8  1  0  0  0  0
  7  9  1  0  0  0  0
 28 29  1  0  0  0  0
 28 30  1  0  0  0  0
 28 31  1  0  0  0  0
 26 27  1  0  0  0  0
 26 28  1  0  0  0  0
M  END
$$$$
default_name
  -OEChem-02102213163D

 31 30  0     1  0  0  0  0  0999 V2000
   -3.0760   -3.6390    1.5496 H   0  0  0  0  0  0  0  0  0  0  0  0
   -3.0940   -2.6290    1.1426 C   0  0  0  0  0  0  0  0  0  0  0  0
   -3.7160   -1.9930    1.7706 H   0  0  0  0  0  0  0  0  0  0  0  0
   -3.4880   -2.6500    0.1286 H   0  0  0  0  0  0  0  0  0  0  0  0
   -1.6860   -2.0850    1.1196 C   0  0  0  0  0  0  0  0  0  0  0  0
   -0.7540   -2.7700    1.5226 O   0  0  0  0  0  0  0  0  0  0  0  0
   -1.5320   -0.8490    0.6496 N   0  0  0  0  0  0  0  0  0  0  0  0
   -2.3500   -0.3360    0.3566 H   0  0  0  0  0  0  0  0  0  0  0  0
   -0.2470   -0.1410    0.5576 C   0  0  1  0  0  0  0  0  0  0  0  0
    0.4239   -0.7541   -0.0450 H   0  0  0  0  0  0  0  0  0  0  0  0
   -0.4317    1.2160   -0.1683 C   0  0  1  0  0  0  0  0  0  0  0  0
    0.5655    1.5957   -0.3989 H   0  0  0  0  0  0  0  0  0  0  0  0
   -1.1976    1.0728   -1.4974 C   0  0  0  0  0  0  0  0  0  0  0  0
   -2.2293    0.7667   -1.3150 H   0  0  0  0  0  0  0  0  0  0  0  0
   -1.1974    2.0181   -2.0379 H   0  0  0  0  0  0  0  0  0  0  0  0
   -0.7163    0.3270   -2.1310 H   0  0  0  0  0  0  0  0  0  0  0  0
   -1.1158    2.2494    0.7544 C   0  0  0  0  0  0  0  0  0  0  0  0
   -0.3954    2.6397    1.4746 H   0  0  0  0  0  0  0  0  0  0  0  0
   -1.4749    3.0794    0.1459 H   0  0  0  0  0  0  0  0  0  0  0  0
   -2.3211    1.6895    1.5218 C   0  0  0  0  0  0  0  0  0  0  0  0
   -2.0020    0.9239    2.2288 H   0  0  0  0  0  0  0  0  0  0  0  0
   -2.8001    2.4962    2.0772 H   0  0  0  0  0  0  0  0  0  0  0  0
   -3.0424    1.2630    0.8238 H   0  0  0  0  0  0  0  0  0  0  0  0
    0.3833   -0.0008    1.9525 C   0  0  0  0  0  0  0  0  0  0  0  0
    1.5803   -0.2304    2.1189 O   0  0  0  0  0  0  0  0  0  0  0  0
   -0.4170    0.3858    2.9541 N   0  0  0  0  0  0  0  0  0  0  0  0
   -1.3850    0.5669    2.7398 H   0  0  0  0  0  0  0  0  0  0  0  0
    0.0265    0.5600    4.3358 C   0  0  0  0  0  0  0  0  0  0  0  0
    0.8964    1.2200    4.3632 H   0  0  0  0  0  0  0  0  0  0  0  0
   -0.7726    0.9946    4.9382 H   0  0  0  0  0  0  0  0  0  0  0  0
    0.3119   -0.4069    4.7547 H   0  0  0  0  0  0  0  0  0  0  0  0
  5  6  2  0  0  0  0
  5  7  1  0  0  0  0
  2  3  1  0  0  0  0
  2  4  1  0  0  0  0
  2  5  1  0  0  0  0
  1  2  1  0  0  0  0
 24 25  2  0  0  0  0
 24 26  1  0  0  0  0
 20 21  1  0  0  0  0
 20 22  1  0  0  0  0
 20 23  1  0  0  0  0
 17 18  1  0  0  0  0
 17 19  1  0  0  0  0
 17 20  1  0  0  0  0
 13 14  1  0  0  0  0
 13 15  1  0  0  0  0
 13 16  1  0  0  0  0
 11 12  1  0  0  0  0
 11 13  1  0  0  0  0
 11 17  1  0  0  0  0
  9 10  1  0  0  0  0
  9 11  1  0  0  0  0
  9 24  1  0  0  0  0
  7  8  1  0  0  0  0
  7  9  1  0  0  0  0
 28 29  1  0  0  0  0
 28 30  1  0  0  0  0
 28 31  1  0  0  0  0
 26 27  1  0  0  0  0
 26 28  1  0  0  0  0
M  END
$$$$
default_name
  -OEChem-02102213163D

 31 30  0     1  0  0  0  0  0999 V2000
   -3.0760   -3.6390    1.5496 H   0  0  0  0  0  0  0  0  0  0  0  0
   -3.0940   -2.6290    1.1426 C   0  0  0  0  0  0  0  0  0  0  0  0
   -3.7160   -1.9930    1.7706 H   0  0  0  0  0  0  0  0  0  0  0  0
   -3.4880   -2.6500    0.1286 H   0  0  0  0  0  0  0  0  0  0  0  0
   -1.6860   -2.0850    1.1196 C   0  0  0  0  0  0  0  0  0  0  0  0
   -0.7540   -2.7700    1.5226 O   0  0  0  0  0  0  0  0  0  0  0  0
   -1.5320   -0.8490    0.6496 N   0  0  0  0  0  0  0  0  0  0  0  0
   -2.3500   -0.3360    0.3566 H   0  0  0  0  0  0  0  0  0  0  0  0
   -0.2470   -0.1410    0.5576 C   0  0  1  0  0  0  0  0  0  0  0  0
    0.4239   -0.7541   -0.0450 H   0  0  0  0  0  0  0  0  0  0  0  0
   -0.4317    1.2160   -0.1683 C   0  0  1  0  0  0  0  0  0  0  0  0
    0.5655    1.5957   -0.3989 H   0  0  0  0  0  0  0  0  0  0  0  0
   -1.1976    1.0728   -1.4974 C   0  0  0  0  0  0  0  0  0  0  0  0
   -2.2293    0.7667   -1.3150 H   0  0  0  0  0  0  0  0  0  0  0  0
   -1.1974    2.0181   -2.0379 H   0  0  0  0  0  0  0  0  0  0  0  0
   -0.7163    0.3270   -2.1310 H   0  0  0  0  0  0  0  0  0  0  0  0
   -1.1158    2.2494    0.7544 C   0  0  0  0  0  0  0  0  0  0  0  0
   -0.3612    2.8288    1.2882 H   0  0  0  0  0  0  0  0  0  0  0  0
   -1.7015    2.9338    0.1408 H   0  0  0  0  0  0  0  0  0  0  0  0
   -2.0700    1.6242    1.7811 C   0  0  0  0  0  0  0  0  0  0  0  0
   -1.5176    1.0098    2.4918 H   0  0  0  0  0  0  0  0  0  0  0  0
   -2.5775    2.4178    2.3300 H   0  0  0  0  0  0  0  0  0  0  0  0
   -2.8158    1.0122    1.2727 H   0  0  0  0  0  0  0  0  0  0  0  0
    0.3833   -0.0008    1.9525 C   0  0  0  0  0  0  0  0  0  0  0  0
    1.5803   -0.2304    2.1189 O   0  0  0  0  0  0  0  0  0  0  0  0
   -0.4170    0.3858    2.9541 N   0  0  0  0  0  0  0  0  0  0  0  0
   -1.3850    0.5669    2.7398 H   0  0  0  0  0  0  0  0  0  0  0  0
    0.0265    0.5600    4.3358 C   0  0  0  0  0  0  0  0  0  0  0  0
    0.8964    1.2200    4.3632 H   0  0  0  0  0  0  0  0  0  0  0  0
   -0.7726    0.9946    4.9382 H   0  0  0  0  0  0  0  0  0  0  0  0
    0.3119   -0.4069    4.7547 H   0  0  0  0  0  0  0  0  0  0  0  0
  5  6  2  0  0  0  0
  5  7  1  0  0  0  0
  2  3  1  0  0  0  0
  2  4  1  0  0  0  0
  2  5  1  0  0  0  0
  1  2  1  0  0  0  0
 24 25  2  0  0  0  0
 24 26  1  0  0  0  0
 20 21  1  0  0  0  0
 20 22  1  0  0  0  0
 20 23  1  0  0  0  0
 17 18  1  0  0  0  0
 17 19  1  0  0  0  0
 17 20  1  0  0  0  0
 13 14  1  0  0  0  0
 13 15  1  0  0  0  0
 13 16  1  0  0  0  0
 11 12  1  0  0  0  0
 11 13  1  0  0  0  0
 11 17  1  0  0  0  0
  9 10  1  0  0  0  0
  9 11  1  0  0  0  0
  9 24  1  0  0  0  0
  7  8  1  0  0  0  0
  7  9  1  0  0  0  0
 28 29  1  0  0  0  0
 28 30  1  0  0  0  0
 28 31  1  0  0  0  0
 26 27  1  0  0  0  0
 26 28  1  0  0  0  0
M  END
$$$$
default_name
  -OEChem-02102213163D

 31 30  0     1  0  0  0  0  0999 V2000
   -3.0760   -3.6390    1.5496 H   0  0  0  0  0  0  0  0  0  0  0  0
   -3.0940   -2.6290    1.1426 C   0  0  0  0  0  0  0  0  0  0  0  0
   -3.7160   -1.9930    1.7706 H   0  0  0  0  0  0  0  0  0  0  0  0
   -3.4880   -2.6500    0.1286 H   0  0  0  0  0  0  0  0  0  0  0  0
   -1.6860   -2.0850    1.1196 C   0  0  0  0  0  0  0  0  0  0  0  0
   -0.7540   -2.7700    1.5226 O   0  0  0  0  0  0  0  0  0  0  0  0
   -1.5320   -0.8490    0.6496 N   0  0  0  0  0  0  0  0  0  0  0  0
   -2.3500   -0.3360    0.3566 H   0  0  0  0  0  0  0  0  0  0  0  0
   -0.2470   -0.1410    0.5576 C   0  0  1  0  0  0  0  0  0  0  0  0
    0.4239   -0.7541   -0.0450 H   0  0  0  0  0  0  0  0  0  0  0  0
   -0.4317    1.2160   -0.1683 C   0  0  1  0  0  0  0  0  0  0  0  0
    0.5655    1.5957   -0.3989 H   0  0  0  0  0  0  0  0  0  0  0  0
   -1.1976    1.0728   -1.4974 C   0  0  0  0  0  0  0  0  0  0  0  0
   -2.2293    0.7667   -1.3150 H   0  0  0  0  0  0  0  0  0  0  0  0
   -1.1974    2.0181   -2.0379 H   0  0  0  0  0  0  0  0  0  0  0  0
   -0.7163    0.3270   -2.1310 H   0  0  0  0  0  0  0  0  0  0  0  0
   -1.1158    2.2494    0.7544 C   0  0  0  0  0  0  0  0  0  0  0  0
   -0.3897    2.9953    1.0806 H   0  0  0  0  0  0  0  0  0  0  0  0
   -1.8989    2.7577    0.1919 H   0  0  0  0  0  0  0  0  0  0  0  0
   -1.7724    1.6298    1.9955 C   0  0  0  0  0  0  0  0  0  0  0  0
   -1.0173    1.1978    2.6520 H   0  0  0  0  0  0  0  0  0  0  0  0
   -2.3066    2.4054    2.5447 H   0  0  0  0  0  0  0  0  0  0  0  0
   -2.4805    0.8563    1.6959 H   0  0  0  0  0  0  0  0  0  0  0  0
    0.3833   -0.0008    1.9525 C   0  0  0  0  0  0  0  0  0  0  0  0
    1.5803   -0.2304    2.1189 O   0  0  0  0  0  0  0  0  0  0  0  0
   -0.4170    0.3858    2.9541 N   0  0  0  0  0  0  0  0  0  0  0  0
   -1.3850    0.5669    2.7398 H   0  0  0  0  0  0  0  0  0  0  0  0
    0.0265    0.5600    4.3358 C   0  0  0  0  0  0  0  0  0  0  0  0
    0.8964    1.2200    4.3632 H   0  0  0  0  0  0  0  0  0  0  0  0
   -0.7726    0.9946    4.9382 H   0  0  0  0  0  0  0  0  0  0  0  0
    0.3119   -0.4069    4.7547 H   0  0  0  0  0  0  0  0  0  0  0  0
  5  6  2  0  0  0  0
  5  7  1  0  0  0  0
  2  3  1  0  0  0  0
  2  4  1  0  0  0  0
  2  5  1  0  0  0  0
  1  2  1  0  0  0  0
 24 25  2  0  0  0  0
 24 26  1  0  0  0  0
 20 21  1  0  0  0  0
 20 22  1  0  0  0  0
 20 23  1  0  0  0  0
 17 18  1  0  0  0  0
 17 19  1  0  0  0  0
 17 20  1  0  0  0  0
 13 14  1  0  0  0  0
 13 15  1  0  0  0  0
 13 16  1  0  0  0  0
 11 12  1  0  0  0  0
 11 13  1  0  0  0  0
 11 17  1  0  0  0  0
  9 10  1  0  0  0  0
  9 11  1  0  0  0  0
  9 24  1  0  0  0  0
  7  8  1  0  0  0  0
  7  9  1  0  0  0  0
 28 29  1  0  0  0  0
 28 30  1  0  0  0  0
 28 31  1  0  0  0  0
 26 27  1  0  0  0  0
 26 28  1  0  0  0  0
M  END
$$$$
default_name
  -OEChem-02102213163D

 31 30  0     1  0  0  0  0  0999 V2000
   -3.0760   -3.6390    1.5496 H   0  0  0  0  0  0  0  0  0  0  0  0
   -3.0940   -2.6290    1.1426 C   0  0  0  0  0  0  0  0  0  0  0  0
   -3.7160   -1.9930    1.7706 H   0  0  0  0  0  0  0  0  0  0  0  0
   -3.4880   -2.6500    0.1286 H   0  0  0  0  0  0  0  0  0  0  0  0
   -1.6860   -2.0850    1.1196 C   0  0  0  0  0  0  0  0  0  0  0  0
   -0.7540   -2.7700    1.5226 O   0  0  0  0  0  0  0  0  0  0  0  0
   -1.5320   -0.8490    0.6496 N   0  0  0  0  0  0  0  0  0  0  0  0
   -2.3500   -0.3360    0.3566 H   0  0  0  0  0  0  0  0  0  0  0  0
   -0.2470   -0.1410    0.5576 C   0  0  1  0  0  0  0  0  0  0  0  0
    0.4239   -0.7541   -0.0450 H   0  0  0  0  0  0  0  0  0  0  0  0
   -0.4317    1.2160   -0.1683 C   0  0  1  0  0  0  0  0  0  0  0  0
    0.5655    1.5957   -0.3989 H   0  0  0  0  0  0  0  0  0  0  0  0
   -1.1976    1.0728   -1.4974 C   0  0  0  0  0  0  0  0  0  0  0  0
   -2.2293    0.7667   -1.3150 H   0  0  0  0  0  0  0  0  0  0  0  0
   -1.1974    2.0181   -2.0379 H   0  0  0  0  0  0  0  0  0  0  0  0
   -0.7163    0.3270   -2.1310 H   0  0  0  0  0  0  0  0  0  0  0  0
   -1.1158    2.2494    0.7544 C   0  0  0  0  0  0  0  0  0  0  0  0
   -0.4788    3.1280    0.8659 H   0  0  0  0  0  0  0  0  0  0  0  0
   -2.0534    2.5628    0.2955 H   0  0  0  0  0  0  0  0  0  0  0  0
   -1.4487    1.7057    2.1504 C   0  0  0  0  0  0  0  0  0  0  0  0
   -0.5355    1.4751    2.6987 H   0  0  0  0  0  0  0  0  0  0  0  0
   -2.0059    2.4599    2.7065 H   0  0  0  0  0  0  0  0  0  0  0  0
   -2.0592    0.8061    2.0645 H   0  0  0  0  0  0  0  0  0  0  0  0
    0.3833   -0.0008    1.9525 C   0  0  0  0  0  0  0  0  0  0  0  0
    1.5803   -0.2304    2.1189 O   0  0  0  0  0  0  0  0  0  0  0  0
   -0.4170    0.3858    2.9541 N   0  0  0  0  0  0  0  0  0  0  0  0
   -1.3850    0.5669    2.7398 H   0  0  0  0  0  0  0  0  0  0  0  0
    0.0265    0.5600    4.3358 C   0  0  0  0  0  0  0  0  0  0  0  0
    0.8964    1.2200    4.3632 H   0  0  0  0  0  0  0  0  0  0  0  0
   -0.7726    0.9946    4.9382 H   0  0  0  0  0  0  0  0  0  0  0  0
    0.3119   -0.4069    4.7547 H   0  0  0  0  0  0  0  0  0  0  0  0
  5  6  2  0  0  0  0
  5  7  1  0  0  0  0
  2  3  1  0  0  0  0
  2  4  1  0  0  0  0
  2  5  1  0  0  0  0
  1  2  1  0  0  0  0
 24 25  2  0  0  0  0
 24 26  1  0  0  0  0
 20 21  1  0  0  0  0
 20 22  1  0  0  0  0
 20 23  1  0  0  0  0
 17 18  1  0  0  0  0
 17 19  1  0  0  0  0
 17 20  1  0  0  0  0
 13 14  1  0  0  0  0
 13 15  1  0  0  0  0
 13 16  1  0  0  0  0
 11 12  1  0  0  0  0
 11 13  1  0  0  0  0
 11 17  1  0  0  0  0
  9 10  1  0  0  0  0
  9 11  1  0  0  0  0
  9 24  1  0  0  0  0
  7  8  1  0  0  0  0
  7  9  1  0  0  0  0
 28 29  1  0  0  0  0
 28 30  1  0  0  0  0
 28 31  1  0  0  0  0
 26 27  1  0  0  0  0
 26 28  1  0  0  0  0
M  END
$$$$
default_name
  -OEChem-02102213163D

 31 30  0     1  0  0  0  0  0999 V2000
   -3.0760   -3.6390    1.5496 H   0  0  0  0  0  0  0  0  0  0  0  0
   -3.0940   -2.6290    1.1426 C   0  0  0  0  0  0  0  0  0  0  0  0
   -3.7160   -1.9930    1.7706 H   0  0  0  0  0  0  0  0  0  0  0  0
   -3.4880   -2.6500    0.1286 H   0  0  0  0  0  0  0  0  0  0  0  0
   -1.6860   -2.0850    1.1196 C   0  0  0  0  0  0  0  0  0  0  0  0
   -0.7540   -2.7700    1.5226 O   0  0  0  0  0  0  0  0  0  0  0  0
   -1.5320   -0.8490    0.6496 N   0  0  0  0  0  0  0  0  0  0  0  0
   -2.3500   -0.3360    0.3566 H   0  0  0  0  0  0  0  0  0  0  0  0
   -0.2470   -0.1410    0.5576 C   0  0  1  0  0  0  0  0  0  0  0  0
    0.4239   -0.7541   -0.0450 H   0  0  0  0  0  0  0  0  0  0  0  0
   -0.4317    1.2160   -0.1683 C   0  0  1  0  0  0  0  0  0  0  0  0
    0.5655    1.5957   -0.3989 H   0  0  0  0  0  0  0  0  0  0  0  0
   -1.1976    1.0728   -1.4974 C   0  0  0  0  0  0  0  0  0  0  0  0
   -2.2293    0.7667   -1.3150 H   0  0  0  0  0  0  0  0  0  0  0  0
   -1.1974    2.0181   -2.0379 H   0  0  0  0  0  0  0  0  0  0  0  0
   -0.7163    0.3270   -2.1310 H   0  0  0  0  0  0  0  0  0  0  0  0
   -1.1158    2.2494    0.7544 C   0  0  0  0  0  0  0  0  0  0  0  0
   -0.6227    3.2177    0.6587 H   0  0  0  0  0  0  0  0  0  0  0  0
   -2.1546    2.3626    0.4447 H   0  0  0  0  0  0  0  0  0  0  0  0
   -1.1210    1.8467    2.2354 C   0  0  0  0  0  0  0  0  0  0  0  0
   -0.1048    1.8228    2.6286 H   0  0  0  0  0  0  0  0  0  0  0  0
   -1.6958    2.5776    2.8046 H   0  0  0  0  0  0  0  0  0  0  0  0
   -1.5807    0.8649    2.3533 H   0  0  0  0  0  0  0  0  0  0  0  0
    0.3833   -0.0008    1.9525 C   0  0  0  0  0  0  0  0  0  0  0  0
    1.5803   -0.2304    2.1189 O   0  0  0  0  0  0  0  0  0  0  0  0
   -0.4170    0.3858    2.9541 N   0  0  0  0  0  0  0  0  0  0  0  0
   -1.3850    0.5669    2.7398 H   0  0  0  0  0  0  0  0  0  0  0  0
    0.0265    0.5600    4.3358 C   0  0  0  0  0  0  0  0  0  0  0  0
    0.8964    1.2200    4.3632 H   0  0  0  0  0  0  0  0  0  0  0  0
   -0.7726    0.9946    4.9382 H   0  0  0  0  0  0  0  0  0  0  0  0
    0.3119   -0.4069    4.7547 H   0  0  0  0  0  0  0  0  0  0  0  0
  5  6  2  0  0  0  0
  5  7  1  0  0  0  0
  2  3  1  0  0  0  0
  2  4  1  0  0  0  0
  2  5  1  0  0  0  0
  1  2  1  0  0  0  0
 24 25  2  0  0  0  0
 24 26  1  0  0  0  0
 20 21  1  0  0  0  0
 20 22  1  0  0  0  0
 20 23  1  0  0  0  0
 17 18  1  0  0  0  0
 17 19  1  0  0  0  0
 17 20  1  0  0  0  0
 13 14  1  0  0  0  0
 13 15  1  0  0  0  0
 13 16  1  0  0  0  0
 11 12  1  0  0  0  0
 11 13  1  0  0  0  0
 11 17  1  0  0  0  0
  9 10  1  0  0  0  0
  9 11  1  0  0  0  0
  9 24  1  0  0  0  0
  7  8  1  0  0  0  0
  7  9  1  0  0  0  0
 28 29  1  0  0  0  0
 28 30  1  0  0  0  0
 28 31  1  0  0  0  0
 26 27  1  0  0  0  0
 26 28  1  0  0  0  0
M  END
$$$$
default_name
  -OEChem-02102213163D

 31 30  0     1  0  0  0  0  0999 V2000
   -3.0760   -3.6390    1.5496 H   0  0  0  0  0  0  0  0  0  0  0  0
   -3.0940   -2.6290    1.1426 C   0  0  0  0  0  0  0  0  0  0  0  0
   -3.7160   -1.9930    1.7706 H   0  0  0  0  0  0  0  0  0  0  0  0
   -3.4880   -2.6500    0.1286 H   0  0  0  0  0  0  0  0  0  0  0  0
   -1.6860   -2.0850    1.1196 C   0  0  0  0  0  0  0  0  0  0  0  0
   -0.7540   -2.7700    1.5226 O   0  0  0  0  0  0  0  0  0  0  0  0
   -1.5320   -0.8490    0.6496 N   0  0  0  0  0  0  0  0  0  0  0  0
   -2.3500   -0.3360    0.3566 H   0  0  0  0  0  0  0  0  0  0  0  0
   -0.2470   -0.1410    0.5576 C   0  0  1  0  0  0  0  0  0  0  0  0
    0.4239   -0.7541   -0.0450 H   0  0  0  0  0  0  0  0  0  0  0  0
   -0.4317    1.2160   -0.1683 C   0  0  1  0  0  0  0  0  0  0  0  0
    0.5655    1.5957   -0.3989 H   0  0  0  0  0  0  0  0  0  0  0  0
   -1.1976    1.0728   -1.4974 C   0  0  0  0  0  0  0  0  0  0  0  0
   -2.2293    0.7667   -1.3150 H   0  0  0  0  0  0  0  0  0  0  0  0
   -1.1974    2.0181   -2.0379 H   0  0  0  0  0  0  0  0  0  0  0  0
   -0.7163    0.3270   -2.1310 H   0  0  0  0  0  0  0  0  0  0  0  0
   -1.1158    2.2494    0.7544 C   0  0  0  0  0  0  0  0  0  0  0  0
   -0.8113    3.2585    0.4733 H   0  0  0  0  0  0  0  0  0  0  0  0
   -2.1957    2.1707    0.6292 H   0  0  0  0  0  0  0  0  0  0  0  0
   -0.8115    2.0434    2.2445 C   0  0  0  0  0  0  0  0  0  0  0  0
    0.2453    2.2171    2.4465 H   0  0  0  0  0  0  0  0  0  0  0  0
   -1.3975    2.7504    2.8322 H   0  0  0  0  0  0  0  0  0  0  0  0
   -1.0776    1.0288    2.5428 H   0  0  0  0  0  0  0  0  0  0  0  0
    0.3833   -0.0008    1.9525 C   0  0  0  0  0  0  0  0  0  0  0  0
    1.5803   -0.2304    2.1189 O   0  0  0  0  0  0  0  0  0  0  0  0
   -0.4170    0.3858    2.9541 N   0  0  0  0  0  0  0  0  0  0  0  0
   -1.3850    0.5669    2.7398 H   0  0  0  0  0  0  0  0  0  0  0  0
    0.0265    0.5600    4.3358 C   0  0  0  0  0  0  0  0  0  0  0  0
    0.8964    1.2200    4.3632 H   0  0  0  0  0  0  0  0  0  0  0  0
   -0.7726    0.9946    4.9382 H   0  0  0  0  0  0  0  0  0  0  0  0
    0.3119   -0.4069    4.7547 H   0  0  0  0  0  0  0  0  0  0  0  0
  5  6  2  0  0  0  0
  5  7  1  0  0  0  0
  2  3  1  0  0  0  0
  2  4  1  0  0  0  0
  2  5  1  0  0  0  0
  1  2  1  0  0  0  0
 24 25  2  0  0  0  0
 24 26  1  0  0  0  0
 20 21  1  0  0  0  0
 20 22  1  0  0  0  0
 20 23  1  0  0  0  0
 17 18  1  0  0  0  0
 17 19  1  0  0  0  0
 17 20  1  0  0  0  0
 13 14  1  0  0  0  0
 13 15  1  0  0  0  0
 13 16  1  0  0  0  0
 11 12  1  0  0  0  0
 11 13  1  0  0  0  0
 11 17  1  0  0  0  0
  9 10  1  0  0  0  0
  9 11  1  0  0  0  0
  9 24  1  0  0  0  0
  7  8  1  0  0  0  0
  7  9  1  0  0  0  0
 28 29  1  0  0  0  0
 28 30  1  0  0  0  0
 28 31  1  0  0  0  0
 26 27  1  0  0  0  0
 26 28  1  0  0  0  0
M  END
$$$$
default_name
  -OEChem-02102213163D

 31 30  0     1  0  0  0  0  0999 V2000
   -3.0760   -3.6390    1.5496 H   0  0  0  0  0  0  0  0  0  0  0  0
   -3.0940   -2.6290    1.1426 C   0  0  0  0  0  0  0  0  0  0  0  0
   -3.7160   -1.9930    1.7706 H   0  0  0  0  0  0  0  0  0  0  0  0
   -3.4880   -2.6500    0.1286 H   0  0  0  0  0  0  0  0  0  0  0  0
   -1.6860   -2.0850    1.1196 C   0  0  0  0  0  0  0  0  0  0  0  0
   -0.7540   -2.7700    1.5226 O   0  0  0  0  0  0  0  0  0  0  0  0
   -1.5320   -0.8490    0.6496 N   0  0  0  0  0  0  0  0  0  0  0  0
   -2.3500   -0.3360    0.3566 H   0  0  0  0  0  0  0  0  0  0  0  0
   -0.2470   -0.1410    0.5576 C   0  0  1  0  0  0  0  0  0  0  0  0
    0.4239   -0.7541   -0.0450 H   0  0  0  0  0  0  0  0  0  0  0  0
   -0.4317    1.2160   -0.1683 C   0  0  1  0  0  0  0  0  0  0  0  0
    0.5655    1.5957   -0.3989 H   0  0  0  0  0  0  0  0  0  0  0  0
   -1.1976    1.0728   -1.4974 C   0  0  0  0  0  0  0  0  0  0  0  0
   -2.2293    0.7667   -1.3150 H   0  0  0  0  0  0  0  0  0  0  0  0
   -1.1974    2.0181   -2.0379 H   0  0  0  0  0  0  0  0  0  0  0  0
   -0.7163    0.3270   -2.1310 H   0  0  0  0  0  0  0  0  0  0  0  0
   -1.1158    2.2494    0.7544 C   0  0  0  0  0  0  0  0  0  0  0  0
   -1.0319    3.2474    0.3221 H   0  0  0  0  0  0  0  0  0  0  0  0
   -2.1736    2.0001    0.8366 H   0  0  0  0  0  0  0  0  0  0  0  0
   -0.5414    2.2823    2.1772 C   0  0  0  0  0  0  0  0  0  0  0  0
    0.4910    2.6313    2.1648 H   0  0  0  0  0  0  0  0  0  0  0  0
   -1.1313    2.9667    2.7873 H   0  0  0  0  0  0  0  0  0  0  0  0
   -0.5842    1.2865    2.6199 H   0  0  0  0  0  0  0  0  0  0  0  0
    0.3833   -0.0008    1.9525 C   0  0  0  0  0  0  0  0  0  0  0  0
    1.5803   -0.2304    2.1189 O   0  0  0  0  0  0  0  0  0  0  0  0
   -0.4170    0.3858    2.9541 N   0  0  0  0  0  0  0  0  0  0  0  0
   -1.3850    0.5669    2.7398 H   0  0  0  0  0  0  0  0  0  0  0  0
    0.0265    0.5600    4.3358 C   0  0  0  0  0  0  0  0  0  0  0  0
    0.8964    1.2200    4.3632 H   0  0  0  0  0  0  0  0  0  0  0  0
   -0.7726    0.9946    4.9382 H   0  0  0  0  0  0  0  0  0  0  0  0
    0.3119   -0.4069    4.7547 H   0  0  0  0  0  0  0  0  0  0  0  0
  5  6  2  0  0  0  0
  5  7  1  0  0  0  0
  2  3  1  0  0  0  0
  2  4  1  0  0  0  0
  2  5  1  0  0  0  0
  1  2  1  0  0  0  0
 24 25  2  0  0  0  0
 24 26  1  0  0  0  0
 20 21  1  0  0  0  0
 20 22  1  0  0  0  0
 20 23  1  0  0  0  0
 17 18  1  0  0  0  0
 17 19  1  0  0  0  0
 17 20  1  0  0  0  0
 13 14  1  0  0  0  0
 13 15  1  0  0  0  0
 13 16  1  0  0  0  0
 11 12  1  0  0  0  0
 11 13  1  0  0  0  0
 11 17  1  0  0  0  0
  9 10  1  0  0  0  0
  9 11  1  0  0  0  0
  9 24  1  0  0  0  0
  7  8  1  0  0  0  0
  7  9  1  0  0  0  0
 28 29  1  0  0  0  0
 28 30  1  0  0  0  0
 28 31  1  0  0  0  0
 26 27  1  0  0  0  0
 26 28  1  0  0  0  0
M  END
$$$$
default_name
  -OEChem-02102213163D

 31 30  0     1  0  0  0  0  0999 V2000
   -3.0760   -3.6390    1.5496 H   0  0  0  0  0  0  0  0  0  0  0  0
   -3.0940   -2.6290    1.1426 C   0  0  0  0  0  0  0  0  0  0  0  0
   -3.7160   -1.9930    1.7706 H   0  0  0  0  0  0  0  0  0  0  0  0
   -3.4880   -2.6500    0.1286 H   0  0  0  0  0  0  0  0  0  0  0  0
   -1.6860   -2.0850    1.1196 C   0  0  0  0  0  0  0  0  0  0  0  0
   -0.7540   -2.7700    1.5226 O   0  0  0  0  0  0  0  0  0  0  0  0
   -1.5320   -0.8490    0.6496 N   0  0  0  0  0  0  0  0  0  0  0  0
   -2.3500   -0.3360    0.3566 H   0  0  0  0  0  0  0  0  0  0  0  0
   -0.2470   -0.1410    0.5576 C   0  0  1  0  0  0  0  0  0  0  0  0
    0.4239   -0.7541   -0.0450 H   0  0  0  0  0  0  0  0  0  0  0  0
   -0.4317    1.2160   -0.1683 C   0  0  1  0  0  0  0  0  0  0  0  0
    0.5655    1.5957   -0.3989 H   0  0  0  0  0  0  0  0  0  0  0  0
   -1.1976    1.0728   -1.4974 C   0  0  0  0  0  0  0  0  0  0  0  0
   -2.2293    0.7667   -1.3150 H   0  0  0  0  0  0  0  0  0  0  0  0
   -1.1974    2.0181   -2.0379 H   0  0  0  0  0  0  0  0  0  0  0  0
   -0.7163    0.3270   -2.1310 H   0  0  0  0  0  0  0  0  0  0  0  0
   -1.1158    2.2494    0.7544 C   0  0  0  0  0  0  0  0  0  0  0  0
   -1.2695    3.1853    0.2155 H   0  0  0  0  0  0  0  0  0  0  0  0
   -2.0901    1.8625    1.0526 H   0  0  0  0  0  0  0  0  0  0  0  0
   -0.3291    2.5470    2.0381 C   0  0  0  0  0  0  0  0  0  0  0  0
    0.6155    3.0370    1.8027 H   0  0  0  0  0  0  0  0  0  0  0  0
   -0.9154    3.2115    2.6732 H   0  0  0  0  0  0  0  0  0  0  0  0
   -0.1341    1.6206    2.5794 H   0  0  0  0  0  0  0  0  0  0  0  0
    0.3833   -0.0008    1.9525 C   0  0  0  0  0  0  0  0  0  0  0  0
    1.5803   -0.2304    2.1189 O   0  0  0  0  0  0  0  0  0  0  0  0
   -0.4170    0.3858    2.9541 N   0  0  0  0  0  0  0  0  0  0  0  0
   -1.3850    0.5669    2.7398 H   0  0  0  0  0  0  0  0  0  0  0  0
    0.0265    0.5600    4.3358 C   0  0  0  0  0  0  0  0  0  0  0  0
    0.8964    1.2200    4.3632 H   0  0  0  0  0  0  0  0  0  0  0  0
   -0.7726    0.9946    4.9382 H   0  0  0  0  0  0  0  0  0  0  0  0
    0.3119   -0.4069    4.7547 H   0  0  0  0  0  0  0  0  0  0  0  0
  5  6  2  0  0  0  0
  5  7  1  0  0  0  0
  2  3  1  0  0  0  0
  2  4  1  0  0  0  0
  2  5  1  0  0  0  0
  1  2  1  0  0  0  0
 24 25  2  0  0  0  0
 24 26  1  0  0  0  0
 20 21  1  0  0  0  0
 20 22  1  0  0  0  0
 20 23  1  0  0  0  0
 17 18  1  0  0  0  0
 17 19  1  0  0  0  0
 17 20  1  0  0  0  0
 13 14  1  0  0  0  0
 13 15  1  0  0  0  0
 13 16  1  0  0  0  0
 11 12  1  0  0  0  0
 11 13  1  0  0  0  0
 11 17  1  0  0  0  0
  9 10  1  0  0  0  0
  9 11  1  0  0  0  0
  9 24  1  0  0  0  0
  7  8  1  0  0  0  0
  7  9  1  0  0  0  0
 28 29  1  0  0  0  0
 28 30  1  0  0  0  0
 28 31  1  0  0  0  0
 26 27  1  0  0  0  0
 26 28  1  0  0  0  0
M  END
$$$$
default_name
  -OEChem-02102213163D

 31 30  0     1  0  0  0  0  0999 V2000
   -3.0760   -3.6390    1.5496 H   0  0  0  0  0  0  0  0  0  0  0  0
   -3.0940   -2.6290    1.1426 C   0  0  0  0  0  0  0  0  0  0  0  0
   -3.7160   -1.9930    1.7706 H   0  0  0  0  0  0  0  0  0  0  0  0
   -3.4880   -2.6500    0.1286 H   0  0  0  0  0  0  0  0  0  0  0  0
   -1.6860   -2.0850    1.1196 C   0  0  0  0  0  0  0  0  0  0  0  0
   -0.7540   -2.7700    1.5226 O   0  0  0  0  0  0  0  0  0  0  0  0
   -1.5320   -0.8490    0.6496 N   0  0  0  0  0  0  0  0  0  0  0  0
   -2.3500   -0.3360    0.3566 H   0  0  0  0  0  0  0  0  0  0  0  0
   -0.2470   -0.1410    0.5576 C   0  0  1  0  0  0  0  0  0  0  0  0
    0.4239   -0.7541   -0.0450 H   0  0  0  0  0  0  0  0  0  0  0  0
   -0.4317    1.2160   -0.1683 C   0  0  1  0  0  0  0  0  0  0  0  0
    0.5655    1.5957   -0.3989 H   0  0  0  0  0  0  0  0  0  0  0  0
   -1.1976    1.0728   -1.4974 C   0  0  0  0  0  0  0  0  0  0  0  0
   -2.2293    0.7667   -1.3150 H   0  0  0  0  0  0  0  0  0  0  0  0
   -1.1974    2.0181   -2.0379 H   0  0  0  0  0  0  0  0  0  0  0  0
   -0.7163    0.3270   -2.1310 H   0  0  0  0  0  0  0  0  0  0  0  0
   -1.1158    2.2494    0.7544 C   0  0  0  0  0  0  0  0  0  0  0  0
   -1.5078    3.0764    0.1608 H   0  0  0  0  0  0  0  0  0  0  0  0
   -1.9508    1.7672    1.2626 H   0  0  0  0  0  0  0  0  0  0  0  0
   -0.1890    2.8197    1.8367 C   0  0  0  0  0  0  0  0  0  0  0  0
    0.6104    3.4067    1.3849 H   0  0  0  0  0  0  0  0  0  0  0  0
   -0.7644    3.4683    2.4975 H   0  0  0  0  0  0  0  0  0  0  0  0
    0.2421    2.0082    2.4241 H   0  0  0  0  0  0  0  0  0  0  0  0
    0.3833   -0.0008    1.9525 C   0  0  0  0  0  0  0  0  0  0  0  0
    1.5803   -0.2304    2.1189 O   0  0  0  0  0  0  0  0  0  0  0  0
   -0.4170    0.3858    2.9541 N   0  0  0  0  0  0  0  0  0  0  0  0
   -1.3850    0.5669    2.7398 H   0  0  0  0  0  0  0  0  0  0  0  0
    0.0265    0.5600    4.3358 C   0  0  0  0  0  0  0  0  0  0  0  0
    0.8964    1.2200    4.3632 H   0  0  0  0  0  0  0  0  0  0  0  0
   -0.7726    0.9946    4.9382 H   0  0  0  0  0  0  0  0  0  0  0  0
    0.3119   -0.4069    4.7547 H   0  0  0  0  0  0  0  0  0  0  0  0
  5  6  2  0  0  0  0
  5  7  1  0  0  0  0
  2  3  1  0  0  0  0
  2  4  1  0  0  0  0
  2  5  1  0  0  0  0
  1  2  1  0  0  0  0
 24 25  2  0  0  0  0
 24 26  1  0  0  0  0
 20 21  1  0  0  0  0
 20 22  1  0  0  0  0
 20 23  1  0  0  0  0
 17 18  1  0  0  0  0
 17 19  1  0  0  0  0
 17 20  1  0  0  0  0
 13 14  1  0  0  0  0
 13 15  1  0  0  0  0
 13 16  1  0  0  0  0
 11 12  1  0  0  0  0
 11 13  1  0  0  0  0
 11 17  1  0  0  0  0
  9 10  1  0  0  0  0
  9 11  1  0  0  0  0
  9 24  1  0  0  0  0
  7  8  1  0  0  0  0
  7  9  1  0  0  0  0
 28 29  1  0  0  0  0
 28 30  1  0  0  0  0
 28 31  1  0  0  0  0
 26 27  1  0  0  0  0
 26 28  1  0  0  0  0
M  END
$$$$
default_name
  -OEChem-02102213163D

 31 30  0     1  0  0  0  0  0999 V2000
   -3.0760   -3.6390    1.5496 H   0  0  0  0  0  0  0  0  0  0  0  0
   -3.0940   -2.6290    1.1426 C   0  0  0  0  0  0  0  0  0  0  0  0
   -3.7160   -1.9930    1.7706 H   0  0  0  0  0  0  0  0  0  0  0  0
   -3.4880   -2.6500    0.1286 H   0  0  0  0  0  0  0  0  0  0  0  0
   -1.6860   -2.0850    1.1196 C   0  0  0  0  0  0  0  0  0  0  0  0
   -0.7540   -2.7700    1.5226 O   0  0  0  0  0  0  0  0  0  0  0  0
   -1.5320   -0.8490    0.6496 N   0  0  0  0  0  0  0  0  0  0  0  0
   -2.3500   -0.3360    0.3566 H   0  0  0  0  0  0  0  0  0  0  0  0
   -0.2470   -0.1410    0.5576 C   0  0  1  0  0  0  0  0  0  0  0  0
    0.4239   -0.7541   -0.0450 H   0  0  0  0  0  0  0  0  0  0  0  0
   -0.4317    1.2160   -0.1683 C   0  0  1  0  0  0  0  0  0  0  0  0
    0.5655    1.5957   -0.3989 H   0  0  0  0  0  0  0  0  0  0  0  0
   -1.1976    1.0728   -1.4974 C   0  0  0  0  0  0  0  0  0  0  0  0
   -2.2293    0.7667   -1.3150 H   0  0  0  0  0  0  0  0  0  0  0  0
   -1.1974    2.0181   -2.0379 H   0  0  0  0  0  0  0  0  0  0  0  0
   -0.7163    0.3270   -2.1310 H   0  0  0  0  0  0  0  0  0  0  0  0
   -1.1158    2.2494    0.7544 C   0  0  0  0  0  0  0  0  0  0  0  0
   -1.7306    2.9281    0.1617 H   0  0  0  0  0  0  0  0  0  0  0  0
   -1.7651    1.7208    1.4523 H   0  0  0  0  0  0  0  0  0  0  0  0
   -0.1307    3.0815    1.5866 C   0  0  0  0  0  0  0  0  0  0  0  0
    0.4760    3.7151    0.9398 H   0  0  0  0  0  0  0  0  0  0  0  0
   -0.6887    3.7196    2.2722 H   0  0  0  0  0  0  0  0  0  0  0  0
    0.5186    2.4230    2.1646 H   0  0  0  0  0  0  0  0  0  0  0  0
    0.3833   -0.0008    1.9525 C   0  0  0  0  0  0  0  0  0  0  0  0
    1.5803   -0.2304    2.1189 O   0  0  0  0  0  0  0  0  0  0  0  0
   -0.4170    0.3858    2.9541 N   0  0  0  0  0  0  0  0  0  0  0  0
   -1.3850    0.5669    2.7398 H   0  0  0  0  0  0  0  0  0  0  0  0
    0.0265    0.5600    4.3358 C   0  0  0  0  0  0  0  0  0  0  0  0
    0.8964    1.2200    4.3632 H   0  0  0  0  0  0  0  0  0  0  0  0
   -0.7726    0.9946    4.9382 H   0  0  0  0  0  0  0  0  0  0  0  0
    0.3119   -0.4069    4.7547 H   0  0  0  0  0  0  0  0  0  0  0  0
  5  6  2  0  0  0  0
  5  7  1  0  0  0  0
  2  3  1  0  0  0  0
  2  4  1  0  0  0  0
  2  5  1  0  0  0  0
  1  2  1  0  0  0  0
 24 25  2  0  0  0  0
 24 26  1  0  0  0  0
 20 21  1  0  0  0  0
 20 22  1  0  0  0  0
 20 23  1  0  0  0  0
 17 18  1  0  0  0  0
 17 19  1  0  0  0  0
 17 20  1  0  0  0  0
 13 14  1  0  0  0  0
 13 15  1  0  0  0  0
 13 16  1  0  0  0  0
 11 12  1  0  0  0  0
 11 13  1  0  0  0  0
 11 17  1  0  0  0  0
  9 10  1  0  0  0  0
  9 11  1  0  0  0  0
  9 24  1  0  0  0  0
  7  8  1  0  0  0  0
  7  9  1  0  0  0  0
 28 29  1  0  0  0  0
 28 30  1  0  0  0  0
 28 31  1  0  0  0  0
 26 27  1  0  0  0  0
 26 28  1  0  0  0  0
M  END
$$$$
default_name
  -OEChem-02102213163D

 31 30  0     1  0  0  0  0  0999 V2000
   -3.0760   -3.6390    1.5496 H   0  0  0  0  0  0  0  0  0  0  0  0
   -3.0940   -2.6290    1.1426 C   0  0  0  0  0  0  0  0  0  0  0  0
   -3.7160   -1.9930    1.7706 H   0  0  0  0  0  0  0  0  0  0  0  0
   -3.4880   -2.6500    0.1286 H   0  0  0  0  0  0  0  0  0  0  0  0
   -1.6860   -2.0850    1.1196 C   0  0  0  0  0  0  0  0  0  0  0  0
   -0.7540   -2.7700    1.5226 O   0  0  0  0  0  0  0  0  0  0  0  0
   -1.5320   -0.8490    0.6496 N   0  0  0  0  0  0  0  0  0  0  0  0
   -2.3500   -0.3360    0.3566 H   0  0  0  0  0  0  0  0  0  0  0  0
   -0.2470   -0.1410    0.5576 C   0  0  1  0  0  0  0  0  0  0  0  0
    0.4239   -0.7541   -0.0450 H   0  0  0  0  0  0  0  0  0  0  0  0
   -0.4317    1.2160   -0.1683 C   0  0  1  0  0  0  0  0  0  0  0  0
    0.5655    1.5957   -0.3989 H   0  0  0  0  0  0  0  0  0  0  0  0
   -1.1976    1.0728   -1.4974 C   0  0  0  0  0  0  0  0  0  0  0  0
   -2.2293    0.7667   -1.3150 H   0  0  0  0  0  0  0  0  0  0  0  0
   -1.1974    2.0181   -2.0379 H   0  0  0  0  0  0  0  0  0  0  0  0
   -0.7163    0.3270   -2.1310 H   0  0  0  0  0  0  0  0  0  0  0  0
   -1.1158    2.2494    0.7544 C   0  0  0  0  0  0  0  0  0  0  0  0
   -1.9228    2.7505    0.2182 H   0  0  0  0  0  0  0  0  0  0  0  0
   -1.5458    1.7264    1.6086 H   0  0  0  0  0  0  0  0  0  0  0  0
   -0.1581    3.3149    1.3049 C   0  0  0  0  0  0  0  0  0  0  0  0
    0.2215    3.9413    0.4979 H   0  0  0  0  0  0  0  0  0  0  0  0
   -0.6934    3.9482    2.0127 H   0  0  0  0  0  0  0  0  0  0  0  0
    0.6766    2.8366    1.8185 H   0  0  0  0  0  0  0  0  0  0  0  0
    0.3833   -0.0008    1.9525 C   0  0  0  0  0  0  0  0  0  0  0  0
    1.5803   -0.2304    2.1189 O   0  0  0  0  0  0  0  0  0  0  0  0
   -0.4170    0.3858    2.9541 N   0  0  0  0  0  0  0  0  0  0  0  0
   -1.3850    0.5669    2.7398 H   0  0  0  0  0  0  0  0  0  0  0  0
    0.0265    0.5600    4.3358 C   0  0  0  0  0  0  0  0  0  0  0  0
    0.8964    1.2200    4.3632 H   0  0  0  0  0  0  0  0  0  0  0  0
   -0.7726    0.9946    4.9382 H   0  0  0  0  0  0  0  0  0  0  0  0
    0.3119   -0.4069    4.7547 H   0  0  0  0  0  0  0  0  0  0  0  0
  5  6  2  0  0  0  0
  5  7  1  0  0  0  0
  2  3  1  0  0  0  0
  2  4  1  0  0  0  0
  2  5  1  0  0  0  0
  1  2  1  0  0  0  0
 24 25  2  0  0  0  0
 24 26  1  0  0  0  0
 20 21  1  0  0  0  0
 20 22  1  0  0  0  0
 20 23  1  0  0  0  0
 17 18  1  0  0  0  0
 17 19  1  0  0  0  0
 17 20  1  0  0  0  0
 13 14  1  0  0  0  0
 13 15  1  0  0  0  0
 13 16  1  0  0  0  0
 11 12  1  0  0  0  0
 11 13  1  0  0  0  0
 11 17  1  0  0  0  0
  9 10  1  0  0  0  0
  9 11  1  0  0  0  0
  9 24  1  0  0  0  0
  7  8  1  0  0  0  0
  7  9  1  0  0  0  0
 28 29  1  0  0  0  0
 28 30  1  0  0  0  0
 28 31  1  0  0  0  0
 26 27  1  0  0  0  0
 26 28  1  0  0  0  0
M  END
$$$$
default_name
  -OEChem-02102213163D

 31 30  0     1  0  0  0  0  0999 V2000
   -3.0760   -3.6390    1.5496 H   0  0  0  0  0  0  0  0  0  0  0  0
   -3.0940   -2.6290    1.1426 C   0  0  0  0  0  0  0  0  0  0  0  0
   -3.7160   -1.9930    1.7706 H   0  0  0  0  0  0  0  0  0  0  0  0
   -3.4880   -2.6500    0.1286 H   0  0  0  0  0  0  0  0  0  0  0  0
   -1.6860   -2.0850    1.1196 C   0  0  0  0  0  0  0  0  0  0  0  0
   -0.7540   -2.7700    1.5226 O   0  0  0  0  0  0  0  0  0  0  0  0
   -1.5320   -0.8490    0.6496 N   0  0  0  0  0  0  0  0  0  0  0  0
   -2.3500   -0.3360    0.3566 H   0  0  0  0  0  0  0  0  0  0  0  0
   -0.2470   -0.1410    0.5576 C   0  0  1  0  0  0  0  0  0  0  0  0
    0.4239   -0.7541   -0.0450 H   0  0  0  0  0  0  0  0  0  0  0  0
   -0.4317    1.2160   -0.1683 C   0  0  1  0  0  0  0  0  0  0  0  0
    0.5655    1.5957   -0.3989 H   0  0  0  0  0  0  0  0  0  0  0  0
   -1.1976    1.0728   -1.4974 C   0  0  0  0  0  0  0  0  0  0  0  0
   -2.2293    0.7667   -1.3150 H   0  0  0  0  0  0  0  0  0  0  0  0
   -1.1974    2.0181   -2.0379 H   0  0  0  0  0  0  0  0  0  0  0  0
   -0.7163    0.3270   -2.1310 H   0  0  0  0  0  0  0  0  0  0  0  0
   -1.1158    2.2494    0.7544 C   0  0  0  0  0  0  0  0  0  0  0  0
   -2.0712    2.5557    0.3263 H   0  0  0  0  0  0  0  0  0  0  0  0
   -1.3077    1.7837    1.7210 H   0  0  0  0  0  0  0  0  0  0  0  0
   -0.2694    3.5037    1.0108 C   0  0  0  0  0  0  0  0  0  0  0  0
   -0.1358    4.0697    0.0891 H   0  0  0  0  0  0  0  0  0  0  0  0
   -0.7782    4.1385    1.7367 H   0  0  0  0  0  0  0  0  0  0  0  0
    0.7055    3.2209    1.4094 H   0  0  0  0  0  0  0  0  0  0  0  0
    0.3833   -0.0008    1.9525 C   0  0  0  0  0  0  0  0  0  0  0  0
    1.5803   -0.2304    2.1189 O   0  0  0  0  0  0  0  0  0  0  0  0
   -0.4170    0.3858    2.9541 N   0  0  0  0  0  0  0  0  0  0  0  0
   -1.3850    0.5669    2.7398 H   0  0  0  0  0  0  0  0  0  0  0  0
    0.0265    0.5600    4.3358 C   0  0  0  0  0  0  0  0  0  0  0  0
    0.8964    1.2200    4.3632 H   0  0  0  0  0  0  0  0  0  0  0  0
   -0.7726    0.9946    4.9382 H   0  0  0  0  0  0  0  0  0  0  0  0
    0.3119   -0.4069    4.7547 H   0  0  0  0  0  0  0  0  0  0  0  0
  5  6  2  0  0  0  0
  5  7  1  0  0  0  0
  2  3  1  0  0  0  0
  2  4  1  0  0  0  0
  2  5  1  0  0  0  0
  1  2  1  0  0  0  0
 24 25  2  0  0  0  0
 24 26  1  0  0  0  0
 20 21  1  0  0  0  0
 20 22  1  0  0  0  0
 20 23  1  0  0  0  0
 17 18  1  0  0  0  0
 17 19  1  0  0  0  0
 17 20  1  0  0  0  0
 13 14  1  0  0  0  0
 13 15  1  0  0  0  0
 13 16  1  0  0  0  0
 11 12  1  0  0  0  0
 11 13  1  0  0  0  0
 11 17  1  0  0  0  0
  9 10  1  0  0  0  0
  9 11  1  0  0  0  0
  9 24  1  0  0  0  0
  7  8  1  0  0  0  0
  7  9  1  0  0  0  0
 28 29  1  0  0  0  0
 28 30  1  0  0  0  0
 28 31  1  0  0  0  0
 26 27  1  0  0  0  0
 26 28  1  0  0  0  0
M  END
$$$$
default_name
  -OEChem-02102213163D

 31 30  0     1  0  0  0  0  0999 V2000
   -3.0760   -3.6390    1.5496 H   0  0  0  0  0  0  0  0  0  0  0  0
   -3.0940   -2.6290    1.1426 C   0  0  0  0  0  0  0  0  0  0  0  0
   -3.7160   -1.9930    1.7706 H   0  0  0  0  0  0  0  0  0  0  0  0
   -3.4880   -2.6500    0.1286 H   0  0  0  0  0  0  0  0  0  0  0  0
   -1.6860   -2.0850    1.1196 C   0  0  0  0  0  0  0  0  0  0  0  0
   -0.7540   -2.7700    1.5226 O   0  0  0  0  0  0  0  0  0  0  0  0
   -1.5320   -0.8490    0.6496 N   0  0  0  0  0  0  0  0  0  0  0  0
   -2.3500   -0.3360    0.3566 H   0  0  0  0  0  0  0  0  0  0  0  0
   -0.2470   -0.1410    0.5576 C   0  0  1  0  0  0  0  0  0  0  0  0
    0.4239   -0.7541   -0.0450 H   0  0  0  0  0  0  0  0  0  0  0  0
   -0.4317    1.2160   -0.1683 C   0  0  1  0  0  0  0  0  0  0  0  0
    0.5655    1.5957   -0.3989 H   0  0  0  0  0  0  0  0  0  0  0  0
   -1.1976    1.0728   -1.4974 C   0  0  0  0  0  0  0  0  0  0  0  0
   -2.2293    0.7667   -1.3150 H   0  0  0  0  0  0  0  0  0  0  0  0
   -1.1974    2.0181   -2.0379 H   0  0  0  0  0  0  0  0  0  0  0  0
   -0.7163    0.3270   -2.1310 H   0  0  0  0  0  0  0  0  0  0  0  0
   -1.1158    2.2494    0.7544 C   0  0  0  0  0  0  0  0  0  0  0  0
   -2.1657    2.3570    0.4788 H   0  0  0  0  0  0  0  0  0  0  0  0
   -1.0672    1.8886    1.7818 H   0  0  0  0  0  0  0  0  0  0  0  0
   -0.4571    3.6353    0.7244 C   0  0  0  0  0  0  0  0  0  0  0  0
   -0.5715    4.0917   -0.2586 H   0  0  0  0  0  0  0  0  0  0  0  0
   -0.9373    4.2776    1.4629 H   0  0  0  0  0  0  0  0  0  0  0  0
    0.6031    3.5497    0.9653 H   0  0  0  0  0  0  0  0  0  0  0  0
    0.3833   -0.0008    1.9525 C   0  0  0  0  0  0  0  0  0  0  0  0
    1.5803   -0.2304    2.1189 O   0  0  0  0  0  0  0  0  0  0  0  0
   -0.4170    0.3858    2.9541 N   0  0  0  0  0  0  0  0  0  0  0  0
   -1.3850    0.5669    2.7398 H   0  0  0  0  0  0  0  0  0  0  0  0
    0.0265    0.5600    4.3358 C   0  0  0  0  0  0  0  0  0  0  0  0
    0.8964    1.2200    4.3632 H   0  0  0  0  0  0  0  0  0  0  0  0
   -0.7726    0.9946    4.9382 H   0  0  0  0  0  0  0  0  0  0  0  0
    0.3119   -0.4069    4.7547 H   0  0  0  0  0  0  0  0  0  0  0  0
  5  6  2  0  0  0  0
  5  7  1  0  0  0  0
  2  3  1  0  0  0  0
  2  4  1  0  0  0  0
  2  5  1  0  0  0  0
  1  2  1  0  0  0  0
 24 25  2  0  0  0  0
 24 26  1  0  0  0  0
 20 21  1  0  0  0  0
 20 22  1  0  0  0  0
 20 23  1  0  0  0  0
 17 18  1  0  0  0  0
 17 19  1  0  0  0  0
 17 20  1  0  0  0  0
 13 14  1  0  0  0  0
 13 15  1  0  0  0  0
 13 16  1  0  0  0  0
 11 12  1  0  0  0  0
 11 13  1  0  0  0  0
 11 17  1  0  0  0  0
  9 10  1  0  0  0  0
  9 11  1  0  0  0  0
  9 24  1  0  0  0  0
  7  8  1  0  0  0  0
  7  9  1  0  0  0  0
 28 29  1  0  0  0  0
 28 30  1  0  0  0  0
 28 31  1  0  0  0  0
 26 27  1  0  0  0  0
 26 28  1  0  0  0  0
M  END
$$$$
default_name
  -OEChem-02102213163D

 31 30  0     1  0  0  0  0  0999 V2000
   -3.0760   -3.6390    1.5496 H   0  0  0  0  0  0  0  0  0  0  0  0
   -3.0940   -2.6290    1.1426 C   0  0  0  0  0  0  0  0  0  0  0  0
   -3.7160   -1.9930    1.7706 H   0  0  0  0  0  0  0  0  0  0  0  0
   -3.4880   -2.6500    0.1286 H   0  0  0  0  0  0  0  0  0  0  0  0
   -1.6860   -2.0850    1.1196 C   0  0  0  0  0  0  0  0  0  0  0  0
   -0.7540   -2.7700    1.5226 O   0  0  0  0  0  0  0  0  0  0  0  0
   -1.5320   -0.8490    0.6496 N   0  0  0  0  0  0  0  0  0  0  0  0
   -2.3500   -0.3360    0.3566 H   0  0  0  0  0  0  0  0  0  0  0  0
   -0.2470   -0.1410    0.5576 C   0  0  1  0  0  0  0  0  0  0  0  0
    0.4239   -0.7541   -0.0450 H   0  0  0  0  0  0  0  0  0  0  0  0
   -0.4317    1.2160   -0.1683 C   0  0  1  0  0  0  0  0  0  0  0  0
    0.5655    1.5957   -0.3989 H   0  0  0  0  0  0  0  0  0  0  0  0
   -1.1976    1.0728   -1.4974 C   0  0  0  0  0  0  0  0  0  0  0  0
   -2.2293    0.7667   -1.3150 H   0  0  0  0  0  0  0  0  0  0  0  0
   -1.1974    2.0181   -2.0379 H   0  0  0  0  0  0  0  0  0  0  0  0
   -0.7163    0.3270   -2.1310 H   0  0  0  0  0  0  0  0  0  0  0  0
   -1.1158    2.2494    0.7544 C   0  0  0  0  0  0  0  0  0  0  0  0
   -2.1999    2.1680    0.6652 H   0  0  0  0  0  0  0  0  0  0  0  0
   -0.8405    2.0341    1.7869 H   0  0  0  0  0  0  0  0  0  0  0  0
   -0.7082    3.7005    0.4652 C   0  0  0  0  0  0  0  0  0  0  0  0
   -1.0560    4.0058   -0.5215 H   0  0  0  0  0  0  0  0  0  0  0  0
   -1.1599    4.3560    1.2101 H   0  0  0  0  0  0  0  0  0  0  0  0
    0.3765    3.8006    0.5164 H   0  0  0  0  0  0  0  0  0  0  0  0
    0.3833   -0.0008    1.9525 C   0  0  0  0  0  0  0  0  0  0  0  0
    1.5803   -0.2304    2.1189 O   0  0  0  0  0  0  0  0  0  0  0  0
   -0.4170    0.3858    2.9541 N   0  0  0  0  0  0  0  0  0  0  0  0
   -1.3850    0.5669    2.7398 H   0  0  0  0  0  0  0  0  0  0  0  0
    0.0265    0.5600    4.3358 C   0  0  0  0  0  0  0  0  0  0  0  0
    0.8964    1.2200    4.3632 H   0  0  0  0  0  0  0  0  0  0  0  0
   -0.7726    0.9946    4.9382 H   0  0  0  0  0  0  0  0  0  0  0  0
    0.3119   -0.4069    4.7547 H   0  0  0  0  0  0  0  0  0  0  0  0
  5  6  2  0  0  0  0
  5  7  1  0  0  0  0
  2  3  1  0  0  0  0
  2  4  1  0  0  0  0
  2  5  1  0  0  0  0
  1  2  1  0  0  0  0
 24 25  2  0  0  0  0
 24 26  1  0  0  0  0
 20 21  1  0  0  0  0
 20 22  1  0  0  0  0
 20 23  1  0  0  0  0
 17 18  1  0  0  0  0
 17 19  1  0  0  0  0
 17 20  1  0  0  0  0
 13 14  1  0  0  0  0
 13 15  1  0  0  0  0
 13 16  1  0  0  0  0
 11 12  1  0  0  0  0
 11 13  1  0  0  0  0
 11 17  1  0  0  0  0
  9 10  1  0  0  0  0
  9 11  1  0  0  0  0
  9 24  1  0  0  0  0
  7  8  1  0  0  0  0
  7  9  1  0  0  0  0
 28 29  1  0  0  0  0
 28 30  1  0  0  0  0
 28 31  1  0  0  0  0
 26 27  1  0  0  0  0
 26 28  1  0  0  0  0
M  END
$$$$
default_name
  -OEChem-02102213163D

 31 30  0     1  0  0  0  0  0999 V2000
   -3.0760   -3.6390    1.5496 H   0  0  0  0  0  0  0  0  0  0  0  0
   -3.0940   -2.6290    1.1426 C   0  0  0  0  0  0  0  0  0  0  0  0
   -3.7160   -1.9930    1.7706 H   0  0  0  0  0  0  0  0  0  0  0  0
   -3.4880   -2.6500    0.1286 H   0  0  0  0  0  0  0  0  0  0  0  0
   -1.6860   -2.0850    1.1196 C   0  0  0  0  0  0  0  0  0  0  0  0
   -0.7540   -2.7700    1.5226 O   0  0  0  0  0  0  0  0  0  0  0  0
   -1.5320   -0.8490    0.6496 N   0  0  0  0  0  0  0  0  0  0  0  0
   -2.3500   -0.3360    0.3566 H   0  0  0  0  0  0  0  0  0  0  0  0
   -0.2470   -0.1410    0.5576 C   0  0  1  0  0  0  0  0  0  0  0  0
    0.4239   -0.7541   -0.0450 H   0  0  0  0  0  0  0  0  0  0  0  0
   -0.4317    1.2160   -0.1683 C   0  0  1  0  0  0  0  0  0  0  0  0
    0.5655    1.5957   -0.3989 H   0  0  0  0  0  0  0  0  0  0  0  0
   -1.1976    1.0728   -1.4974 C   0  0  0  0  0  0  0  0  0  0  0  0
   -2.2293    0.7667   -1.3150 H   0  0  0  0  0  0  0  0  0  0  0  0
   -1.1974    2.0181   -2.0379 H   0  0  0  0  0  0  0  0  0  0  0  0
   -0.7163    0.3270   -2.1310 H   0  0  0  0  0  0  0  0  0  0  0  0
   -1.1158    2.2494    0.7544 C   0  0  0  0  0  0  0  0  0  0  0  0
   -2.1714    2.0014    0.8728 H   0  0  0  0  0  0  0  0  0  0  0  0
   -0.6431    2.2103    1.7358 H   0  0  0  0  0  0  0  0  0  0  0  0
   -1.0058    3.6950    0.2508 C   0  0  0  0  0  0  0  0  0  0  0  0
   -1.5562    3.8178   -0.6818 H   0  0  0  0  0  0  0  0  0  0  0  0
   -1.4307    4.3684    0.9954 H   0  0  0  0  0  0  0  0  0  0  0  0
    0.0412    3.9564    0.0932 H   0  0  0  0  0  0  0  0  0  0  0  0
    0.3833   -0.0008    1.9525 C   0  0  0  0  0  0  0  0  0  0  0  0
    1.5803   -0.2304    2.1189 O   0  0  0  0  0  0  0  0  0  0  0  0
   -0.4170    0.3858    2.9541 N   0  0  0  0  0  0  0  0  0  0  0  0
   -1.3850    0.5669    2.7398 H   0  0  0  0  0  0  0  0  0  0  0  0
    0.0265    0.5600    4.3358 C   0  0  0  0  0  0  0  0  0  0  0  0
    0.8964    1.2200    4.3632 H   0  0  0  0  0  0  0  0  0  0  0  0
   -0.7726    0.9946    4.9382 H   0  0  0  0  0  0  0  0  0  0  0  0
    0.3119   -0.4069    4.7547 H   0  0  0  0  0  0  0  0  0  0  0  0
  5  6  2  0  0  0  0
  5  7  1  0  0  0  0
  2  3  1  0  0  0  0
  2  4  1  0  0  0  0
  2  5  1  0  0  0  0
  1  2  1  0  0  0  0
 24 25  2  0  0  0  0
 24 26  1  0  0  0  0
 20 21  1  0  0  0  0
 20 22  1  0  0  0  0
 20 23  1  0  0  0  0
 17 18  1  0  0  0  0
 17 19  1  0  0  0  0
 17 20  1  0  0  0  0
 13 14  1  0  0  0  0
 13 15  1  0  0  0  0
 13 16  1  0  0  0  0
 11 12  1  0  0  0  0
 11 13  1  0  0  0  0
 11 17  1  0  0  0  0
  9 10  1  0  0  0  0
  9 11  1  0  0  0  0
  9 24  1  0  0  0  0
  7  8  1  0  0  0  0
  7  9  1  0  0  0  0
 28 29  1  0  0  0  0
 28 30  1  0  0  0  0
 28 31  1  0  0  0  0
 26 27  1  0  0  0  0
 26 28  1  0  0  0  0
M  END
$$$$
default_name
  -OEChem-02102213163D

 31 30  0     1  0  0  0  0  0999 V2000
   -3.0760   -3.6390    1.5496 H   0  0  0  0  0  0  0  0  0  0  0  0
   -3.0940   -2.6290    1.1426 C   0  0  0  0  0  0  0  0  0  0  0  0
   -3.7160   -1.9930    1.7706 H   0  0  0  0  0  0  0  0  0  0  0  0
   -3.4880   -2.6500    0.1286 H   0  0  0  0  0  0  0  0  0  0  0  0
   -1.6860   -2.0850    1.1196 C   0  0  0  0  0  0  0  0  0  0  0  0
   -0.7540   -2.7700    1.5226 O   0  0  0  0  0  0  0  0  0  0  0  0
   -1.5320   -0.8490    0.6496 N   0  0  0  0  0  0  0  0  0  0  0  0
   -2.3500   -0.3360    0.3566 H   0  0  0  0  0  0  0  0  0  0  0  0
   -0.2470   -0.1410    0.5576 C   0  0  1  0  0  0  0  0  0  0  0  0
    0.4239   -0.7541   -0.0450 H   0  0  0  0  0  0  0  0  0  0  0  0
   -0.4317    1.2160   -0.1683 C   0  0  1  0  0  0  0  0  0  0  0  0
    0.5240    1.4643   -0.6338 H   0  0  0  0  0  0  0  0  0  0  0  0
   -1.4924    1.1471   -1.2835 C   0  0  0  0  0  0  0  0  0  0  0  0
   -2.4838    0.9752   -0.8605 H   0  0  0  0  0  0  0  0  0  0  0  0
   -1.5044    2.0757   -1.8520 H   0  0  0  0  0  0  0  0  0  0  0  0
   -1.2598    0.3365   -1.9750 H   0  0  0  0  0  0  0  0  0  0  0  0
   -0.7603    2.3421    0.8373 C   0  0  0  0  0  0  0  0  0  0  0  0
   -1.6630    2.0907    1.3957 H   0  0  0  0  0  0  0  0  0  0  0  0
    0.0646    2.4331    1.5438 H   0  0  0  0  0  0  0  0  0  0  0  0
   -0.9562    3.7164    0.1828 C   0  0  0  0  0  0  0  0  0  0  0  0
   -1.8386    3.7130   -0.4568 H   0  0  0  0  0  0  0  0  0  0  0  0
   -1.0944    4.4683    0.9601 H   0  0  0  0  0  0  0  0  0  0  0  0
   -0.0779    3.9762   -0.4092 H   0  0  0  0  0  0  0  0  0  0  0  0
    0.3833   -0.0008    1.9525 C   0  0  0  0  0  0  0  0  0  0  0  0
    1.5803   -0.2304    2.1189 O   0  0  0  0  0  0  0  0  0  0  0  0
   -0.4170    0.3858    2.9541 N   0  0  0  0  0  0  0  0  0  0  0  0
   -1.3850    0.5669    2.7398 H   0  0  0  0  0  0  0  0  0  0  0  0
    0.0265    0.5600    4.3358 C   0  0  0  0  0  0  0  0  0  0  0  0
    0.8964    1.2200    4.3632 H   0  0  0  0  0  0  0  0  0  0  0  0
   -0.7726    0.9946    4.9382 H   0  0  0  0  0  0  0  0  0  0  0  0
    0.3119   -0.4069    4.7547 H   0  0  0  0  0  0  0  0  0  0  0  0
  5  6  2  0  0  0  0
  5  7  1  0  0  0  0
  2  3  1  0  0  0  0
  2  4  1  0  0  0  0
  2  5  1  0  0  0  0
  1  2  1  0  0  0  0
 24 25  2  0  0  0  0
 24 26  1  0  0  0  0
 20 21  1  0  0  0  0
 20 22  1  0  0  0  0
 20 23  1  0  0  0  0
 17 18  1  0  0  0  0
 17 19  1  0  0  0  0
 17 20  1  0  0  0  0
 13 14  1  0  0  0  0
 13 15  1  0  0  0  0
 13 16  1  0  0  0  0
 11 12  1  0  0  0  0
 11 13  1  0  0  0  0
 11 17  1  0  0  0  0
  9 10  1  0  0  0  0
  9 11  1  0  0  0  0
  9 24  1  0  0  0  0
  7  8  1  0  0  0  0
  7  9  1  0  0  0  0
 28 29  1  0  0  0  0
 28 30  1  0  0  0  0
 28 31  1  0  0  0  0
 26 27  1  0  0  0  0
 26 28  1  0  0  0  0
M  END
$$$$
default_name
  -OEChem-02102213163D

 31 30  0     1  0  0  0  0  0999 V2000
   -3.0760   -3.6390    1.5496 H   0  0  0  0  0  0  0  0  0  0  0  0
   -3.0940   -2.6290    1.1426 C   0  0  0  0  0  0  0  0  0  0  0  0
   -3.7160   -1.9930    1.7706 H   0  0  0  0  0  0  0  0  0  0  0  0
   -3.4880   -2.6500    0.1286 H   0  0  0  0  0  0  0  0  0  0  0  0
   -1.6860   -2.0850    1.1196 C   0  0  0  0  0  0  0  0  0  0  0  0
   -0.7540   -2.7700    1.5226 O   0  0  0  0  0  0  0  0  0  0  0  0
   -1.5320   -0.8490    0.6496 N   0  0  0  0  0  0  0  0  0  0  0  0
   -2.3500   -0.3360    0.3566 H   0  0  0  0  0  0  0  0  0  0  0  0
   -0.2470   -0.1410    0.5576 C   0  0  1  0  0  0  0  0  0  0  0  0
    0.4239   -0.7541   -0.0450 H   0  0  0  0  0  0  0  0  0  0  0  0
   -0.4317    1.2160   -0.1683 C   0  0  1  0  0  0  0  0  0  0  0  0
    0.5240    1.4643   -0.6338 H   0  0  0  0  0  0  0  0  0  0  0  0
   -1.4924    1.1471   -1.2835 C   0  0  0  0  0  0  0  0  0  0  0  0
   -2.4838    0.9752   -0.8605 H   0  0  0  0  0  0  0  0  0  0  0  0
   -1.5044    2.0757   -1.8520 H   0  0  0  0  0  0  0  0  0  0  0  0
   -1.2598    0.3365   -1.9750 H   0  0  0  0  0  0  0  0  0  0  0  0
   -0.7603    2.3421    0.8373 C   0  0  0  0  0  0  0  0  0  0  0  0
   -1.4873    1.9872    1.5690 H   0  0  0  0  0  0  0  0  0  0  0  0
    0.1519    2.6166    1.3669 H   0  0  0  0  0  0  0  0  0  0  0  0
   -1.3089    3.6159    0.1801 C   0  0  0  0  0  0  0  0  0  0  0  0
   -2.2797    3.4230   -0.2762 H   0  0  0  0  0  0  0  0  0  0  0  0
   -1.4303    4.3886    0.9396 H   0  0  0  0  0  0  0  0  0  0  0  0
   -0.6133    3.9727   -0.5802 H   0  0  0  0  0  0  0  0  0  0  0  0
    0.3833   -0.0008    1.9525 C   0  0  0  0  0  0  0  0  0  0  0  0
    1.5803   -0.2304    2.1189 O   0  0  0  0  0  0  0  0  0  0  0  0
   -0.4170    0.3858    2.9541 N   0  0  0  0  0  0  0  0  0  0  0  0
   -1.3850    0.5669    2.7398 H   0  0  0  0  0  0  0  0  0  0  0  0
    0.0265    0.5600    4.3358 C   0  0  0  0  0  0  0  0  0  0  0  0
    0.8964    1.2200    4.3632 H   0  0  0  0  0  0  0  0  0  0  0  0
   -0.7726    0.9946    4.9382 H   0  0  0  0  0  0  0  0  0  0  0  0
    0.3119   -0.4069    4.7547 H   0  0  0  0  0  0  0  0  0  0  0  0
  5  6  2  0  0  0  0
  5  7  1  0  0  0  0
  2  3  1  0  0  0  0
  2  4  1  0  0  0  0
  2  5  1  0  0  0  0
  1  2  1  0  0  0  0
 24 25  2  0  0  0  0
 24 26  1  0  0  0  0
 20 21  1  0  0  0  0
 20 22  1  0  0  0  0
 20 23  1  0  0  0  0
 17 18  1  0  0  0  0
 17 19  1  0  0  0  0
 17 20  1  0  0  0  0
 13 14  1  0  0  0  0
 13 15  1  0  0  0  0
 13 16  1  0  0  0  0
 11 12  1  0  0  0  0
 11 13  1  0  0  0  0
 11 17  1  0  0  0  0
  9 10  1  0  0  0  0
  9 11  1  0  0  0  0
  9 24  1  0  0  0  0
  7  8  1  0  0  0  0
  7  9  1  0  0  0  0
 28 29  1  0  0  0  0
 28 30  1  0  0  0  0
 28 31  1  0  0  0  0
 26 27  1  0  0  0  0
 26 28  1  0  0  0  0
M  END
$$$$
default_name
  -OEChem-02102213163D

 31 30  0     1  0  0  0  0  0999 V2000
   -3.0760   -3.6390    1.5496 H   0  0  0  0  0  0  0  0  0  0  0  0
   -3.0940   -2.6290    1.1426 C   0  0  0  0  0  0  0  0  0  0  0  0
   -3.7160   -1.9930    1.7706 H   0  0  0  0  0  0  0  0  0  0  0  0
   -3.4880   -2.6500    0.1286 H   0  0  0  0  0  0  0  0  0  0  0  0
   -1.6860   -2.0850    1.1196 C   0  0  0  0  0  0  0  0  0  0  0  0
   -0.7540   -2.7700    1.5226 O   0  0  0  0  0  0  0  0  0  0  0  0
   -1.5320   -0.8490    0.6496 N   0  0  0  0  0  0  0  0  0  0  0  0
   -2.3500   -0.3360    0.3566 H   0  0  0  0  0  0  0  0  0  0  0  0
   -0.2470   -0.1410    0.5576 C   0  0  1  0  0  0  0  0  0  0  0  0
    0.4239   -0.7541   -0.0450 H   0  0  0  0  0  0  0  0  0  0  0  0
   -0.4317    1.2160   -0.1683 C   0  0  1  0  0  0  0  0  0  0  0  0
    0.5240    1.4643   -0.6338 H   0  0  0  0  0  0  0  0  0  0  0  0
   -1.4924    1.1471   -1.2835 C   0  0  0  0  0  0  0  0  0  0  0  0
   -2.4838    0.9752   -0.8605 H   0  0  0  0  0  0  0  0  0  0  0  0
   -1.5044    2.0757   -1.8520 H   0  0  0  0  0  0  0  0  0  0  0  0
   -1.2598    0.3365   -1.9750 H   0  0  0  0  0  0  0  0  0  0  0  0
   -0.7603    2.3421    0.8373 C   0  0  0  0  0  0  0  0  0  0  0  0
   -1.2674    1.9264    1.7090 H   0  0  0  0  0  0  0  0  0  0  0  0
    0.1720    2.7988    1.1694 H   0  0  0  0  0  0  0  0  0  0  0  0
   -1.6332    3.4593    0.2496 C   0  0  0  0  0  0  0  0  0  0  0  0
   -2.6228    3.0786   -0.0026 H   0  0  0  0  0  0  0  0  0  0  0  0
   -1.7452    4.2539    0.9876 H   0  0  0  0  0  0  0  0  0  0  0  0
   -1.1620    3.8697   -0.6442 H   0  0  0  0  0  0  0  0  0  0  0  0
    0.3833   -0.0008    1.9525 C   0  0  0  0  0  0  0  0  0  0  0  0
    1.5803   -0.2304    2.1189 O   0  0  0  0  0  0  0  0  0  0  0  0
   -0.4170    0.3858    2.9541 N   0  0  0  0  0  0  0  0  0  0  0  0
   -1.3850    0.5669    2.7398 H   0  0  0  0  0  0  0  0  0  0  0  0
    0.0265    0.5600    4.3358 C   0  0  0  0  0  0  0  0  0  0  0  0
    0.8964    1.2200    4.3632 H   0  0  0  0  0  0  0  0  0  0  0  0
   -0.7726    0.9946    4.9382 H   0  0  0  0  0  0  0  0  0  0  0  0
    0.3119   -0.4069    4.7547 H   0  0  0  0  0  0  0  0  0  0  0  0
  5  6  2  0  0  0  0
  5  7  1  0  0  0  0
  2  3  1  0  0  0  0
  2  4  1  0  0  0  0
  2  5  1  0  0  0  0
  1  2  1  0  0  0  0
 24 25  2  0  0  0  0
 24 26  1  0  0  0  0
 20 21  1  0  0  0  0
 20 22  1  0  0  0  0
 20 23  1  0  0  0  0
 17 18  1  0  0  0  0
 17 19  1  0  0  0  0
 17 20  1  0  0  0  0
 13 14  1  0  0  0  0
 13 15  1  0  0  0  0
 13 16  1  0  0  0  0
 11 12  1  0  0  0  0
 11 13  1  0  0  0  0
 11 17  1  0  0  0  0
  9 10  1  0  0  0  0
  9 11  1  0  0  0  0
  9 24  1  0  0  0  0
  7  8  1  0  0  0  0
  7  9  1  0  0  0  0
 28 29  1  0  0  0  0
 28 30  1  0  0  0  0
 28 31  1  0  0  0  0
 26 27  1  0  0  0  0
 26 28  1  0  0  0  0
M  END
$$$$
default_name
  -OEChem-02102213163D

 31 30  0     1  0  0  0  0  0999 V2000
   -3.0760   -3.6390    1.5496 H   0  0  0  0  0  0  0  0  0  0  0  0
   -3.0940   -2.6290    1.1426 C   0  0  0  0  0  0  0  0  0  0  0  0
   -3.7160   -1.9930    1.7706 H   0  0  0  0  0  0  0  0  0  0  0  0
   -3.4880   -2.6500    0.1286 H   0  0  0  0  0  0  0  0  0  0  0  0
   -1.6860   -2.0850    1.1196 C   0  0  0  0  0  0  0  0  0  0  0  0
   -0.7540   -2.7700    1.5226 O   0  0  0  0  0  0  0  0  0  0  0  0
   -1.5320   -0.8490    0.6496 N   0  0  0  0  0  0  0  0  0  0  0  0
   -2.3500   -0.3360    0.3566 H   0  0  0  0  0  0  0  0  0  0  0  0
   -0.2470   -0.1410    0.5576 C   0  0  1  0  0  0  0  0  0  0  0  0
    0.4239   -0.7541   -0.0450 H   0  0  0  0  0  0  0  0  0  0  0  0
   -0.4317    1.2160   -0.1683 C   0  0  1  0  0  0  0  0  0  0  0  0
    0.5240    1.4643   -0.6338 H   0  0  0  0  0  0  0  0  0  0  0  0
   -1.4924    1.1471   -1.2835 C   0  0  0  0  0  0  0  0  0  0  0  0
   -2.4838    0.9752   -0.8605 H   0  0  0  0  0  0  0  0  0  0  0  0
   -1.5044    2.0757   -1.8520 H   0  0  0  0  0  0  0  0  0  0  0  0
   -1.2598    0.3365   -1.9750 H   0  0  0  0  0  0  0  0  0  0  0  0
   -0.7603    2.3421    0.8373 C   0  0  0  0  0  0  0  0  0  0  0  0
   -1.0183    1.9124    1.8061 H   0  0  0  0  0  0  0  0  0  0  0  0
    0.1234    2.9672    0.9649 H   0  0  0  0  0  0  0  0  0  0  0  0
   -1.9070    3.2571    0.3864 C   0  0  0  0  0  0  0  0  0  0  0  0
   -2.8446    2.7031    0.3454 H   0  0  0  0  0  0  0  0  0  0  0  0
   -2.0176    4.0734    1.1007 H   0  0  0  0  0  0  0  0  0  0  0  0
   -1.6868    3.6743   -0.5968 H   0  0  0  0  0  0  0  0  0  0  0  0
    0.3833   -0.0008    1.9525 C   0  0  0  0  0  0  0  0  0  0  0  0
    1.5803   -0.2304    2.1189 O   0  0  0  0  0  0  0  0  0  0  0  0
   -0.4170    0.3858    2.9541 N   0  0  0  0  0  0  0  0  0  0  0  0
   -1.3850    0.5669    2.7398 H   0  0  0  0  0  0  0  0  0  0  0  0
    0.0265    0.5600    4.3358 C   0  0  0  0  0  0  0  0  0  0  0  0
    0.8964    1.2200    4.3632 H   0  0  0  0  0  0  0  0  0  0  0  0
   -0.7726    0.9946    4.9382 H   0  0  0  0  0  0  0  0  0  0  0  0
    0.3119   -0.4069    4.7547 H   0  0  0  0  0  0  0  0  0  0  0  0
  5  6  2  0  0  0  0
  5  7  1  0  0  0  0
  2  3  1  0  0  0  0
  2  4  1  0  0  0  0
  2  5  1  0  0  0  0
  1  2  1  0  0  0  0
 24 25  2  0  0  0  0
 24 26  1  0  0  0  0
 20 21  1  0  0  0  0
 20 22  1  0  0  0  0
 20 23  1  0  0  0  0
 17 18  1  0  0  0  0
 17 19  1  0  0  0  0
 17 20  1  0  0  0  0
 13 14  1  0  0  0  0
 13 15  1  0  0  0  0
 13 16  1  0  0  0  0
 11 12  1  0  0  0  0
 11 13  1  0  0  0  0
 11 17  1  0  0  0  0
  9 10  1  0  0  0  0
  9 11  1  0  0  0  0
  9 24  1  0  0  0  0
  7  8  1  0  0  0  0
  7  9  1  0  0  0  0
 28 29  1  0  0  0  0
 28 30  1  0  0  0  0
 28 31  1  0  0  0  0
 26 27  1  0  0  0  0
 26 28  1  0  0  0  0
M  END
$$$$
default_name
  -OEChem-02102213163D

 31 30  0     1  0  0  0  0  0999 V2000
   -3.0760   -3.6390    1.5496 H   0  0  0  0  0  0  0  0  0  0  0  0
   -3.0940   -2.6290    1.1426 C   0  0  0  0  0  0  0  0  0  0  0  0
   -3.7160   -1.9930    1.7706 H   0  0  0  0  0  0  0  0  0  0  0  0
   -3.4880   -2.6500    0.1286 H   0  0  0  0  0  0  0  0  0  0  0  0
   -1.6860   -2.0850    1.1196 C   0  0  0  0  0  0  0  0  0  0  0  0
   -0.7540   -2.7700    1.5226 O   0  0  0  0  0  0  0  0  0  0  0  0
   -1.5320   -0.8490    0.6496 N   0  0  0  0  0  0  0  0  0  0  0  0
   -2.3500   -0.3360    0.3566 H   0  0  0  0  0  0  0  0  0  0  0  0
   -0.2470   -0.1410    0.5576 C   0  0  1  0  0  0  0  0  0  0  0  0
    0.4239   -0.7541   -0.0450 H   0  0  0  0  0  0  0  0  0  0  0  0
   -0.4317    1.2160   -0.1683 C   0  0  1  0  0  0  0  0  0  0  0  0
    0.5240    1.4643   -0.6338 H   0  0  0  0  0  0  0  0  0  0  0  0
   -1.4924    1.1471   -1.2835 C   0  0  0  0  0  0  0  0  0  0  0  0
   -2.4838    0.9752   -0.8605 H   0  0  0  0  0  0  0  0  0  0  0  0
   -1.5044    2.0757   -1.8520 H   0  0  0  0  0  0  0  0  0  0  0  0
   -1.2598    0.3365   -1.9750 H   0  0  0  0  0  0  0  0  0  0  0  0
   -0.7603    2.3421    0.8373 C   0  0  0  0  0  0  0  0  0  0  0  0
   -0.7571    1.9461    1.8537 H   0  0  0  0  0  0  0  0  0  0  0  0
    0.0095    3.1105    0.7672 H   0  0  0  0  0  0  0  0  0  0  0  0
   -2.1116    3.0233    0.5814 C   0  0  0  0  0  0  0  0  0  0  0  0
   -2.9300    2.3222    0.7440 H   0  0  0  0  0  0  0  0  0  0  0  0
   -2.2290    3.8593    1.2713 H   0  0  0  0  0  0  0  0  0  0  0  0
   -2.1519    3.3997   -0.4413 H   0  0  0  0  0  0  0  0  0  0  0  0
    0.3833   -0.0008    1.9525 C   0  0  0  0  0  0  0  0  0  0  0  0
    1.5803   -0.2304    2.1189 O   0  0  0  0  0  0  0  0  0  0  0  0
   -0.4170    0.3858    2.9541 N   0  0  0  0  0  0  0  0  0  0  0  0
   -1.3850    0.5669    2.7398 H   0  0  0  0  0  0  0  0  0  0  0  0
    0.0265    0.5600    4.3358 C   0  0  0  0  0  0  0  0  0  0  0  0
    0.8964    1.2200    4.3632 H   0  0  0  0  0  0  0  0  0  0  0  0
   -0.7726    0.9946    4.9382 H   0  0  0  0  0  0  0  0  0  0  0  0
    0.3119   -0.4069    4.7547 H   0  0  0  0  0  0  0  0  0  0  0  0
  5  6  2  0  0  0  0
  5  7  1  0  0  0  0
  2  3  1  0  0  0  0
  2  4  1  0  0  0  0
  2  5  1  0  0  0  0
  1  2  1  0  0  0  0
 24 25  2  0  0  0  0
 24 26  1  0  0  0  0
 20 21  1  0  0  0  0
 20 22  1  0  0  0  0
 20 23  1  0  0  0  0
 17 18  1  0  0  0  0
 17 19  1  0  0  0  0
 17 20  1  0  0  0  0
 13 14  1  0  0  0  0
 13 15  1  0  0  0  0
 13 16  1  0  0  0  0
 11 12  1  0  0  0  0
 11 13  1  0  0  0  0
 11 17  1  0  0  0  0
  9 10  1  0  0  0  0
  9 11  1  0  0  0  0
  9 24  1  0  0  0  0
  7  8  1  0  0  0  0
  7  9  1  0  0  0  0
 28 29  1  0  0  0  0
 28 30  1  0  0  0  0
 28 31  1  0  0  0  0
 26 27  1  0  0  0  0
 26 28  1  0  0  0  0
M  END
$$$$
default_name
  -OEChem-02102213163D

 31 30  0     1  0  0  0  0  0999 V2000
   -3.0760   -3.6390    1.5496 H   0  0  0  0  0  0  0  0  0  0  0  0
   -3.0940   -2.6290    1.1426 C   0  0  0  0  0  0  0  0  0  0  0  0
   -3.7160   -1.9930    1.7706 H   0  0  0  0  0  0  0  0  0  0  0  0
   -3.4880   -2.6500    0.1286 H   0  0  0  0  0  0  0  0  0  0  0  0
   -1.6860   -2.0850    1.1196 C   0  0  0  0  0  0  0  0  0  0  0  0
   -0.7540   -2.7700    1.5226 O   0  0  0  0  0  0  0  0  0  0  0  0
   -1.5320   -0.8490    0.6496 N   0  0  0  0  0  0  0  0  0  0  0  0
   -2.3500   -0.3360    0.3566 H   0  0  0  0  0  0  0  0  0  0  0  0
   -0.2470   -0.1410    0.5576 C   0  0  1  0  0  0  0  0  0  0  0  0
    0.4239   -0.7541   -0.0450 H   0  0  0  0  0  0  0  0  0  0  0  0
   -0.4317    1.2160   -0.1683 C   0  0  1  0  0  0  0  0  0  0  0  0
    0.5240    1.4643   -0.6338 H   0  0  0  0  0  0  0  0  0  0  0  0
   -1.4924    1.1471   -1.2835 C   0  0  0  0  0  0  0  0  0  0  0  0
   -2.4838    0.9752   -0.8605 H   0  0  0  0  0  0  0  0  0  0  0  0
   -1.5044    2.0757   -1.8520 H   0  0  0  0  0  0  0  0  0  0  0  0
   -1.2598    0.3365   -1.9750 H   0  0  0  0  0  0  0  0  0  0  0  0
   -0.7603    2.3421    0.8373 C   0  0  0  0  0  0  0  0  0  0  0  0
   -0.5015    2.0254    1.8485 H   0  0  0  0  0  0  0  0  0  0  0  0
   -0.1619    3.2189    0.5898 H   0  0  0  0  0  0  0  0  0  0  0  0
   -2.2330    2.7738    0.8212 C   0  0  0  0  0  0  0  0  0  0  0  0
   -2.8731    1.9619    1.1661 H   0  0  0  0  0  0  0  0  0  0  0  0
   -2.3650    3.6264    1.4877 H   0  0  0  0  0  0  0  0  0  0  0  0
   -2.5255    3.0647   -0.1883 H   0  0  0  0  0  0  0  0  0  0  0  0
    0.3833   -0.0008    1.9525 C   0  0  0  0  0  0  0  0  0  0  0  0
    1.5803   -0.2304    2.1189 O   0  0  0  0  0  0  0  0  0  0  0  0
   -0.4170    0.3858    2.9541 N   0  0  0  0  0  0  0  0  0  0  0  0
   -1.3850    0.5669    2.7398 H   0  0  0  0  0  0  0  0  0  0  0  0
    0.0265    0.5600    4.3358 C   0  0  0  0  0  0  0  0  0  0  0  0
    0.8964    1.2200    4.3632 H   0  0  0  0  0  0  0  0  0  0  0  0
   -0.7726    0.9946    4.9382 H   0  0  0  0  0  0  0  0  0  0  0  0
    0.3119   -0.4069    4.7547 H   0  0  0  0  0  0  0  0  0  0  0  0
  5  6  2  0  0  0  0
  5  7  1  0  0  0  0
  2  3  1  0  0  0  0
  2  4  1  0  0  0  0
  2  5  1  0  0  0  0
  1  2  1  0  0  0  0
 24 25  2  0  0  0  0
 24 26  1  0  0  0  0
 20 21  1  0  0  0  0
 20 22  1  0  0  0  0
 20 23  1  0  0  0  0
 17 18  1  0  0  0  0
 17 19  1  0  0  0  0
 17 20  1  0  0  0  0
 13 14  1  0  0  0  0
 13 15  1  0  0  0  0
 13 16  1  0  0  0  0
 11 12  1  0  0  0  0
 11 13  1  0  0  0  0
 11 17  1  0  0  0  0
  9 10  1  0  0  0  0
  9 11  1  0  0  0  0
  9 24  1  0  0  0  0
  7  8  1  0  0  0  0
  7  9  1  0  0  0  0
 28 29  1  0  0  0  0
 28 30  1  0  0  0  0
 28 31  1  0  0  0  0
 26 27  1  0  0  0  0
 26 28  1  0  0  0  0
M  END
$$$$
default_name
  -OEChem-02102213163D

 31 30  0     1  0  0  0  0  0999 V2000
   -3.0760   -3.6390    1.5496 H   0  0  0  0  0  0  0  0  0  0  0  0
   -3.0940   -2.6290    1.1426 C   0  0  0  0  0  0  0  0  0  0  0  0
   -3.7160   -1.9930    1.7706 H   0  0  0  0  0  0  0  0  0  0  0  0
   -3.4880   -2.6500    0.1286 H   0  0  0  0  0  0  0  0  0  0  0  0
   -1.6860   -2.0850    1.1196 C   0  0  0  0  0  0  0  0  0  0  0  0
   -0.7540   -2.7700    1.5226 O   0  0  0  0  0  0  0  0  0  0  0  0
   -1.5320   -0.8490    0.6496 N   0  0  0  0  0  0  0  0  0  0  0  0
   -2.3500   -0.3360    0.3566 H   0  0  0  0  0  0  0  0  0  0  0  0
   -0.2470   -0.1410    0.5576 C   0  0  1  0  0  0  0  0  0  0  0  0
    0.4239   -0.7541   -0.0450 H   0  0  0  0  0  0  0  0  0  0  0  0
   -0.4317    1.2160   -0.1683 C   0  0  1  0  0  0  0  0  0  0  0  0
    0.5240    1.4643   -0.6338 H   0  0  0  0  0  0  0  0  0  0  0  0
   -1.4924    1.1471   -1.2835 C   0  0  0  0  0  0  0  0  0  0  0  0
   -2.4838    0.9752   -0.8605 H   0  0  0  0  0  0  0  0  0  0  0  0
   -1.5044    2.0757   -1.8520 H   0  0  0  0  0  0  0  0  0  0  0  0
   -1.2598    0.3365   -1.9750 H   0  0  0  0  0  0  0  0  0  0  0  0
   -0.7603    2.3421    0.8373 C   0  0  0  0  0  0  0  0  0  0  0  0
   -0.2689    2.1447    1.7909 H   0  0  0  0  0  0  0  0  0  0  0  0
   -0.3792    3.2849    0.4449 H   0  0  0  0  0  0  0  0  0  0  0  0
   -2.2630    2.5254    1.0895 C   0  0  0  0  0  0  0  0  0  0  0  0
   -2.6778    1.6467    1.5830 H   0  0  0  0  0  0  0  0  0  0  0  0
   -2.4163    3.3903    1.7353 H   0  0  0  0  0  0  0  0  0  0  0  0
   -2.7822    2.6921    0.1450 H   0  0  0  0  0  0  0  0  0  0  0  0
    0.3833   -0.0008    1.9525 C   0  0  0  0  0  0  0  0  0  0  0  0
    1.5803   -0.2304    2.1189 O   0  0  0  0  0  0  0  0  0  0  0  0
   -0.4170    0.3858    2.9541 N   0  0  0  0  0  0  0  0  0  0  0  0
   -1.3850    0.5669    2.7398 H   0  0  0  0  0  0  0  0  0  0  0  0
    0.0265    0.5600    4.3358 C   0  0  0  0  0  0  0  0  0  0  0  0
    0.8964    1.2200    4.3632 H   0  0  0  0  0  0  0  0  0  0  0  0
   -0.7726    0.9946    4.9382 H   0  0  0  0  0  0  0  0  0  0  0  0
    0.3119   -0.4069    4.7547 H   0  0  0  0  0  0  0  0  0  0  0  0
  5  6  2  0  0  0  0
  5  7  1  0  0  0  0
  2  3  1  0  0  0  0
  2  4  1  0  0  0  0
  2  5  1  0  0  0  0
  1  2  1  0  0  0  0
 24 25  2  0  0  0  0
 24 26  1  0  0  0  0
 20 21  1  0  0  0  0
 20 22  1  0  0  0  0
 20 23  1  0  0  0  0
 17 18  1  0  0  0  0
 17 19  1  0  0  0  0
 17 20  1  0  0  0  0
 13 14  1  0  0  0  0
 13 15  1  0  0  0  0
 13 16  1  0  0  0  0
 11 12  1  0  0  0  0
 11 13  1  0  0  0  0
 11 17  1  0  0  0  0
  9 10  1  0  0  0  0
  9 11  1  0  0  0  0
  9 24  1  0  0  0  0
  7  8  1  0  0  0  0
  7  9  1  0  0  0  0
 28 29  1  0  0  0  0
 28 30  1  0  0  0  0
 28 31  1  0  0  0  0
 26 27  1  0  0  0  0
 26 28  1  0  0  0  0
M  END
$$$$
default_name
  -OEChem-02102213163D

 31 30  0     1  0  0  0  0  0999 V2000
   -3.0760   -3.6390    1.5496 H   0  0  0  0  0  0  0  0  0  0  0  0
   -3.0940   -2.6290    1.1426 C   0  0  0  0  0  0  0  0  0  0  0  0
   -3.7160   -1.9930    1.7706 H   0  0  0  0  0  0  0  0  0  0  0  0
   -3.4880   -2.6500    0.1286 H   0  0  0  0  0  0  0  0  0  0  0  0
   -1.6860   -2.0850    1.1196 C   0  0  0  0  0  0  0  0  0  0  0  0
   -0.7540   -2.7700    1.5226 O   0  0  0  0  0  0  0  0  0  0  0  0
   -1.5320   -0.8490    0.6496 N   0  0  0  0  0  0  0  0  0  0  0  0
   -2.3500   -0.3360    0.3566 H   0  0  0  0  0  0  0  0  0  0  0  0
   -0.2470   -0.1410    0.5576 C   0  0  1  0  0  0  0  0  0  0  0  0
    0.4239   -0.7541   -0.0450 H   0  0  0  0  0  0  0  0  0  0  0  0
   -0.4317    1.2160   -0.1683 C   0  0  1  0  0  0  0  0  0  0  0  0
    0.5240    1.4643   -0.6338 H   0  0  0  0  0  0  0  0  0  0  0  0
   -1.4924    1.1471   -1.2835 C   0  0  0  0  0  0  0  0  0  0  0  0
   -2.4838    0.9752   -0.8605 H   0  0  0  0  0  0  0  0  0  0  0  0
   -1.5044    2.0757   -1.8520 H   0  0  0  0  0  0  0  0  0  0  0  0
   -1.2598    0.3365   -1.9750 H   0  0  0  0  0  0  0  0  0  0  0  0
   -0.7603    2.3421    0.8373 C   0  0  0  0  0  0  0  0  0  0  0  0
   -0.0752    2.2959    1.6848 H   0  0  0  0  0  0  0  0  0  0  0  0
   -0.6276    3.3041    0.3422 H   0  0  0  0  0  0  0  0  0  0  0  0
   -2.1996    2.2953    1.3680 C   0  0  0  0  0  0  0  0  0  0  0  0
   -2.3575    1.3981    1.9661 H   0  0  0  0  0  0  0  0  0  0  0  0
   -2.3794    3.1674    1.9971 H   0  0  0  0  0  0  0  0  0  0  0  0
   -2.9046    2.3074    0.5360 H   0  0  0  0  0  0  0  0  0  0  0  0
    0.3833   -0.0008    1.9525 C   0  0  0  0  0  0  0  0  0  0  0  0
    1.5803   -0.2304    2.1189 O   0  0  0  0  0  0  0  0  0  0  0  0
   -0.4170    0.3858    2.9541 N   0  0  0  0  0  0  0  0  0  0  0  0
   -1.3850    0.5669    2.7398 H   0  0  0  0  0  0  0  0  0  0  0  0
    0.0265    0.5600    4.3358 C   0  0  0  0  0  0  0  0  0  0  0  0
    0.8964    1.2200    4.3632 H   0  0  0  0  0  0  0  0  0  0  0  0
   -0.7726    0.9946    4.9382 H   0  0  0  0  0  0  0  0  0  0  0  0
    0.3119   -0.4069    4.7547 H   0  0  0  0  0  0  0  0  0  0  0  0
  5  6  2  0  0  0  0
  5  7  1  0  0  0  0
  2  3  1  0  0  0  0
  2  4  1  0  0  0  0
  2  5  1  0  0  0  0
  1  2  1  0  0  0  0
 24 25  2  0  0  0  0
 24 26  1  0  0  0  0
 20 21  1  0  0  0  0
 20 22  1  0  0  0  0
 20 23  1  0  0  0  0
 17 18  1  0  0  0  0
 17 19  1  0  0  0  0
 17 20  1  0  0  0  0
 13 14  1  0  0  0  0
 13 15  1  0  0  0  0
 13 16  1  0  0  0  0
 11 12  1  0  0  0  0
 11 13  1  0  0  0  0
 11 17  1  0  0  0  0
  9 10  1  0  0  0  0
  9 11  1  0  0  0  0
  9 24  1  0  0  0  0
  7  8  1  0  0  0  0
  7  9  1  0  0  0  0
 28 29  1  0  0  0  0
 28 30  1  0  0  0  0
 28 31  1  0  0  0  0
 26 27  1  0  0  0  0
 26 28  1  0  0  0  0
M  END
$$$$
default_name
  -OEChem-02102213163D

 31 30  0     1  0  0  0  0  0999 V2000
   -3.0760   -3.6390    1.5496 H   0  0  0  0  0  0  0  0  0  0  0  0
   -3.0940   -2.6290    1.1426 C   0  0  0  0  0  0  0  0  0  0  0  0
   -3.7160   -1.9930    1.7706 H   0  0  0  0  0  0  0  0  0  0  0  0
   -3.4880   -2.6500    0.1286 H   0  0  0  0  0  0  0  0  0  0  0  0
   -1.6860   -2.0850    1.1196 C   0  0  0  0  0  0  0  0  0  0  0  0
   -0.7540   -2.7700    1.5226 O   0  0  0  0  0  0  0  0  0  0  0  0
   -1.5320   -0.8490    0.6496 N   0  0  0  0  0  0  0  0  0  0  0  0
   -2.3500   -0.3360    0.3566 H   0  0  0  0  0  0  0  0  0  0  0  0
   -0.2470   -0.1410    0.5576 C   0  0  1  0  0  0  0  0  0  0  0  0
    0.4239   -0.7541   -0.0450 H   0  0  0  0  0  0  0  0  0  0  0  0
   -0.4317    1.2160   -0.1683 C   0  0  1  0  0  0  0  0  0  0  0  0
    0.5240    1.4643   -0.6338 H   0  0  0  0  0  0  0  0  0  0  0  0
   -1.4924    1.1471   -1.2835 C   0  0  0  0  0  0  0  0  0  0  0  0
   -2.4838    0.9752   -0.8605 H   0  0  0  0  0  0  0  0  0  0  0  0
   -1.5044    2.0757   -1.8520 H   0  0  0  0  0  0  0  0  0  0  0  0
   -1.2598    0.3365   -1.9750 H   0  0  0  0  0  0  0  0  0  0  0  0
   -0.7603    2.3421    0.8373 C   0  0  0  0  0  0  0  0  0  0  0  0
    0.0664    2.4688    1.5375 H   0  0  0  0  0  0  0  0  0  0  0  0
   -0.8900    3.2751    0.2889 H   0  0  0  0  0  0  0  0  0  0  0  0
   -2.0470    2.0990    1.6376 C   0  0  0  0  0  0  0  0  0  0  0  0
   -1.9339    1.2329    2.2895 H   0  0  0  0  0  0  0  0  0  0  0  0
   -2.2567    2.9726    2.2552 H   0  0  0  0  0  0  0  0  0  0  0  0
   -2.8842    1.9366    0.9578 H   0  0  0  0  0  0  0  0  0  0  0  0
    0.3833   -0.0008    1.9525 C   0  0  0  0  0  0  0  0  0  0  0  0
    1.5803   -0.2304    2.1189 O   0  0  0  0  0  0  0  0  0  0  0  0
   -0.4170    0.3858    2.9541 N   0  0  0  0  0  0  0  0  0  0  0  0
   -1.3850    0.5669    2.7398 H   0  0  0  0  0  0  0  0  0  0  0  0
    0.0265    0.5600    4.3358 C   0  0  0  0  0  0  0  0  0  0  0  0
    0.8964    1.2200    4.3632 H   0  0  0  0  0  0  0  0  0  0  0  0
   -0.7726    0.9946    4.9382 H   0  0  0  0  0  0  0  0  0  0  0  0
    0.3119   -0.4069    4.7547 H   0  0  0  0  0  0  0  0  0  0  0  0
  5  6  2  0  0  0  0
  5  7  1  0  0  0  0
  2  3  1  0  0  0  0
  2  4  1  0  0  0  0
  2  5  1  0  0  0  0
  1  2  1  0  0  0  0
 24 25  2  0  0  0  0
 24 26  1  0  0  0  0
 20 21  1  0  0  0  0
 20 22  1  0  0  0  0
 20 23  1  0  0  0  0
 17 18  1  0  0  0  0
 17 19  1  0  0  0  0
 17 20  1  0  0  0  0
 13 14  1  0  0  0  0
 13 15  1  0  0  0  0
 13 16  1  0  0  0  0
 11 12  1  0  0  0  0
 11 13  1  0  0  0  0
 11 17  1  0  0  0  0
  9 10  1  0  0  0  0
  9 11  1  0  0  0  0
  9 24  1  0  0  0  0
  7  8  1  0  0  0  0
  7  9  1  0  0  0  0
 28 29  1  0  0  0  0
 28 30  1  0  0  0  0
 28 31  1  0  0  0  0
 26 27  1  0  0  0  0
 26 28  1  0  0  0  0
M  END
$$$$
default_name
  -OEChem-02102213163D

 31 30  0     1  0  0  0  0  0999 V2000
   -3.0760   -3.6390    1.5496 H   0  0  0  0  0  0  0  0  0  0  0  0
   -3.0940   -2.6290    1.1426 C   0  0  0  0  0  0  0  0  0  0  0  0
   -3.7160   -1.9930    1.7706 H   0  0  0  0  0  0  0  0  0  0  0  0
   -3.4880   -2.6500    0.1286 H   0  0  0  0  0  0  0  0  0  0  0  0
   -1.6860   -2.0850    1.1196 C   0  0  0  0  0  0  0  0  0  0  0  0
   -0.7540   -2.7700    1.5226 O   0  0  0  0  0  0  0  0  0  0  0  0
   -1.5320   -0.8490    0.6496 N   0  0  0  0  0  0  0  0  0  0  0  0
   -2.3500   -0.3360    0.3566 H   0  0  0  0  0  0  0  0  0  0  0  0
   -0.2470   -0.1410    0.5576 C   0  0  1  0  0  0  0  0  0  0  0  0
    0.4239   -0.7541   -0.0450 H   0  0  0  0  0  0  0  0  0  0  0  0
   -0.4317    1.2160   -0.1683 C   0  0  1  0  0  0  0  0  0  0  0  0
    0.5240    1.4643   -0.6338 H   0  0  0  0  0  0  0  0  0  0  0  0
   -1.4924    1.1471   -1.2835 C   0  0  0  0  0  0  0  0  0  0  0  0
   -2.4838    0.9752   -0.8605 H   0  0  0  0  0  0  0  0  0  0  0  0
   -1.5044    2.0757   -1.8520 H   0  0  0  0  0  0  0  0  0  0  0  0
   -1.2598    0.3365   -1.9750 H   0  0  0  0  0  0  0  0  0  0  0  0
   -0.7603    2.3421    0.8373 C   0  0  0  0  0  0  0  0  0  0  0  0
    0.1463    2.6515    1.3589 H   0  0  0  0  0  0  0  0  0  0  0  0
   -1.1488    3.2000    0.2884 H   0  0  0  0  0  0  0  0  0  0  0  0
   -1.8157    1.9499    1.8802 C   0  0  0  0  0  0  0  0  0  0  0  0
   -1.4359    1.1626    2.5310 H   0  0  0  0  0  0  0  0  0  0  0  0
   -2.0568    2.8194    2.4922 H   0  0  0  0  0  0  0  0  0  0  0  0
   -2.7225    1.6051    1.3819 H   0  0  0  0  0  0  0  0  0  0  0  0
    0.3833   -0.0008    1.9525 C   0  0  0  0  0  0  0  0  0  0  0  0
    1.5803   -0.2304    2.1189 O   0  0  0  0  0  0  0  0  0  0  0  0
   -0.4170    0.3858    2.9541 N   0  0  0  0  0  0  0  0  0  0  0  0
   -1.3850    0.5669    2.7398 H   0  0  0  0  0  0  0  0  0  0  0  0
    0.0265    0.5600    4.3358 C   0  0  0  0  0  0  0  0  0  0  0  0
    0.8964    1.2200    4.3632 H   0  0  0  0  0  0  0  0  0  0  0  0
   -0.7726    0.9946    4.9382 H   0  0  0  0  0  0  0  0  0  0  0  0
    0.3119   -0.4069    4.7547 H   0  0  0  0  0  0  0  0  0  0  0  0
  5  6  2  0  0  0  0
  5  7  1  0  0  0  0
  2  3  1  0  0  0  0
  2  4  1  0  0  0  0
  2  5  1  0  0  0  0
  1  2  1  0  0  0  0
 24 25  2  0  0  0  0
 24 26  1  0  0  0  0
 20 21  1  0  0  0  0
 20 22  1  0  0  0  0
 20 23  1  0  0  0  0
 17 18  1  0  0  0  0
 17 19  1  0  0  0  0
 17 20  1  0  0  0  0
 13 14  1  0  0  0  0
 13 15  1  0  0  0  0
 13 16  1  0  0  0  0
 11 12  1  0  0  0  0
 11 13  1  0  0  0  0
 11 17  1  0  0  0  0
  9 10  1  0  0  0  0
  9 11  1  0  0  0  0
  9 24  1  0  0  0  0
  7  8  1  0  0  0  0
  7  9  1  0  0  0  0
 28 29  1  0  0  0  0
 28 30  1  0  0  0  0
 28 31  1  0  0  0  0
 26 27  1  0  0  0  0
 26 28  1  0  0  0  0
M  END
$$$$
default_name
  -OEChem-02102213163D

 31 30  0     1  0  0  0  0  0999 V2000
   -3.0760   -3.6390    1.5496 H   0  0  0  0  0  0  0  0  0  0  0  0
   -3.0940   -2.6290    1.1426 C   0  0  0  0  0  0  0  0  0  0  0  0
   -3.7160   -1.9930    1.7706 H   0  0  0  0  0  0  0  0  0  0  0  0
   -3.4880   -2.6500    0.1286 H   0  0  0  0  0  0  0  0  0  0  0  0
   -1.6860   -2.0850    1.1196 C   0  0  0  0  0  0  0  0  0  0  0  0
   -0.7540   -2.7700    1.5226 O   0  0  0  0  0  0  0  0  0  0  0  0
   -1.5320   -0.8490    0.6496 N   0  0  0  0  0  0  0  0  0  0  0  0
   -2.3500   -0.3360    0.3566 H   0  0  0  0  0  0  0  0  0  0  0  0
   -0.2470   -0.1410    0.5576 C   0  0  1  0  0  0  0  0  0  0  0  0
    0.4239   -0.7541   -0.0450 H   0  0  0  0  0  0  0  0  0  0  0  0
   -0.4317    1.2160   -0.1683 C   0  0  1  0  0  0  0  0  0  0  0  0
    0.5240    1.4643   -0.6338 H   0  0  0  0  0  0  0  0  0  0  0  0
   -1.4924    1.1471   -1.2835 C   0  0  0  0  0  0  0  0  0  0  0  0
   -2.4838    0.9752   -0.8605 H   0  0  0  0  0  0  0  0  0  0  0  0
   -1.5044    2.0757   -1.8520 H   0  0  0  0  0  0  0  0  0  0  0  0
   -1.2598    0.3365   -1.9750 H   0  0  0  0  0  0  0  0  0  0  0  0
   -0.7603    2.3421    0.8373 C   0  0  0  0  0  0  0  0  0  0  0  0
    0.1590    2.8317    1.1614 H   0  0  0  0  0  0  0  0  0  0  0  0
   -1.3861    3.0838    0.3410 H   0  0  0  0  0  0  0  0  0  0  0  0
   -1.5215    1.8583    2.0790 C   0  0  0  0  0  0  0  0  0  0  0  0
   -0.8975    1.1918    2.6742 H   0  0  0  0  0  0  0  0  0  0  0  0
   -1.7932    2.7181    2.6918 H   0  0  0  0  0  0  0  0  0  0  0  0
   -2.4304    1.3356    1.7792 H   0  0  0  0  0  0  0  0  0  0  0  0
    0.3833   -0.0008    1.9525 C   0  0  0  0  0  0  0  0  0  0  0  0
    1.5803   -0.2304    2.1189 O   0  0  0  0  0  0  0  0  0  0  0  0
   -0.4170    0.3858    2.9541 N   0  0  0  0  0  0  0  0  0  0  0  0
   -1.3850    0.5669    2.7398 H   0  0  0  0  0  0  0  0  0  0  0  0
    0.0265    0.5600    4.3358 C   0  0  0  0  0  0  0  0  0  0  0  0
    0.8964    1.2200    4.3632 H   0  0  0  0  0  0  0  0  0  0  0  0
   -0.7726    0.9946    4.9382 H   0  0  0  0  0  0  0  0  0  0  0  0
    0.3119   -0.4069    4.7547 H   0  0  0  0  0  0  0  0  0  0  0  0
  5  6  2  0  0  0  0
  5  7  1  0  0  0  0
  2  3  1  0  0  0  0
  2  4  1  0  0  0  0
  2  5  1  0  0  0  0
  1  2  1  0  0  0  0
 24 25  2  0  0  0  0
 24 26  1  0  0  0  0
 20 21  1  0  0  0  0
 20 22  1  0  0  0  0
 20 23  1  0  0  0  0
 17 18  1  0  0  0  0
 17 19  1  0  0  0  0
 17 20  1  0  0  0  0
 13 14  1  0  0  0  0
 13 15  1  0  0  0  0
 13 16  1  0  0  0  0
 11 12  1  0  0  0  0
 11 13  1  0  0  0  0
 11 17  1  0  0  0  0
  9 10  1  0  0  0  0
  9 11  1  0  0  0  0
  9 24  1  0  0  0  0
  7  8  1  0  0  0  0
  7  9  1  0  0  0  0
 28 29  1  0  0  0  0
 28 30  1  0  0  0  0
 28 31  1  0  0  0  0
 26 27  1  0  0  0  0
 26 28  1  0  0  0  0
M  END
$$$$
default_name
  -OEChem-02102213163D

 31 30  0     1  0  0  0  0  0999 V2000
   -3.0760   -3.6390    1.5496 H   0  0  0  0  0  0  0  0  0  0  0  0
   -3.0940   -2.6290    1.1426 C   0  0  0  0  0  0  0  0  0  0  0  0
   -3.7160   -1.9930    1.7706 H   0  0  0  0  0  0  0  0  0  0  0  0
   -3.4880   -2.6500    0.1286 H   0  0  0  0  0  0  0  0  0  0  0  0
   -1.6860   -2.0850    1.1196 C   0  0  0  0  0  0  0  0  0  0  0  0
   -0.7540   -2.7700    1.5226 O   0  0  0  0  0  0  0  0  0  0  0  0
   -1.5320   -0.8490    0.6496 N   0  0  0  0  0  0  0  0  0  0  0  0
   -2.3500   -0.3360    0.3566 H   0  0  0  0  0  0  0  0  0  0  0  0
   -0.2470   -0.1410    0.5576 C   0  0  1  0  0  0  0  0  0  0  0  0
    0.4239   -0.7541   -0.0450 H   0  0  0  0  0  0  0  0  0  0  0  0
   -0.4317    1.2160   -0.1683 C   0  0  1  0  0  0  0  0  0  0  0  0
    0.5240    1.4643   -0.6338 H   0  0  0  0  0  0  0  0  0  0  0  0
   -1.4924    1.1471   -1.2835 C   0  0  0  0  0  0  0  0  0  0  0  0
   -2.4838    0.9752   -0.8605 H   0  0  0  0  0  0  0  0  0  0  0  0
   -1.5044    2.0757   -1.8520 H   0  0  0  0  0  0  0  0  0  0  0  0
   -1.2598    0.3365   -1.9750 H   0  0  0  0  0  0  0  0  0  0  0  0
   -0.7603    2.3421    0.8373 C   0  0  0  0  0  0  0  0  0  0  0  0
    0.1037    2.9969    0.9582 H   0  0  0  0  0  0  0  0  0  0  0  0
   -1.5859    2.9345    0.4429 H   0  0  0  0  0  0  0  0  0  0  0  0
   -1.1843    1.8302    2.2206 C   0  0  0  0  0  0  0  0  0  0  0  0
   -0.3554    1.3186    2.7094 H   0  0  0  0  0  0  0  0  0  0  0  0
   -1.4838    2.6756    2.8405 H   0  0  0  0  0  0  0  0  0  0  0  0
   -2.0280    1.1462    2.1228 H   0  0  0  0  0  0  0  0  0  0  0  0
    0.3833   -0.0008    1.9525 C   0  0  0  0  0  0  0  0  0  0  0  0
    1.5803   -0.2304    2.1189 O   0  0  0  0  0  0  0  0  0  0  0  0
   -0.4170    0.3858    2.9541 N   0  0  0  0  0  0  0  0  0  0  0  0
   -1.3850    0.5669    2.7398 H   0  0  0  0  0  0  0  0  0  0  0  0
    0.0265    0.5600    4.3358 C   0  0  0  0  0  0  0  0  0  0  0  0
    0.8964    1.2200    4.3632 H   0  0  0  0  0  0  0  0  0  0  0  0
   -0.7726    0.9946    4.9382 H   0  0  0  0  0  0  0  0  0  0  0  0
    0.3119   -0.4069    4.7547 H   0  0  0  0  0  0  0  0  0  0  0  0
  5  6  2  0  0  0  0
  5  7  1  0  0  0  0
  2  3  1  0  0  0  0
  2  4  1  0  0  0  0
  2  5  1  0  0  0  0
  1  2  1  0  0  0  0
 24 25  2  0  0  0  0
 24 26  1  0  0  0  0
 20 21  1  0  0  0  0
 20 22  1  0  0  0  0
 20 23  1  0  0  0  0
 17 18  1  0  0  0  0
 17 19  1  0  0  0  0
 17 20  1  0  0  0  0
 13 14  1  0  0  0  0
 13 15  1  0  0  0  0
 13 16  1  0  0  0  0
 11 12  1  0  0  0  0
 11 13  1  0  0  0  0
 11 17  1  0  0  0  0
  9 10  1  0  0  0  0
  9 11  1  0  0  0  0
  9 24  1  0  0  0  0
  7  8  1  0  0  0  0
  7  9  1  0  0  0  0
 28 29  1  0  0  0  0
 28 30  1  0  0  0  0
 28 31  1  0  0  0  0
 26 27  1  0  0  0  0
 26 28  1  0  0  0  0
M  END
$$$$
default_name
  -OEChem-02102213163D

 31 30  0     1  0  0  0  0  0999 V2000
   -3.0760   -3.6390    1.5496 H   0  0  0  0  0  0  0  0  0  0  0  0
   -3.0940   -2.6290    1.1426 C   0  0  0  0  0  0  0  0  0  0  0  0
   -3.7160   -1.9930    1.7706 H   0  0  0  0  0  0  0  0  0  0  0  0
   -3.4880   -2.6500    0.1286 H   0  0  0  0  0  0  0  0  0  0  0  0
   -1.6860   -2.0850    1.1196 C   0  0  0  0  0  0  0  0  0  0  0  0
   -0.7540   -2.7700    1.5226 O   0  0  0  0  0  0  0  0  0  0  0  0
   -1.5320   -0.8490    0.6496 N   0  0  0  0  0  0  0  0  0  0  0  0
   -2.3500   -0.3360    0.3566 H   0  0  0  0  0  0  0  0  0  0  0  0
   -0.2470   -0.1410    0.5576 C   0  0  1  0  0  0  0  0  0  0  0  0
    0.4239   -0.7541   -0.0450 H   0  0  0  0  0  0  0  0  0  0  0  0
   -0.4317    1.2160   -0.1683 C   0  0  1  0  0  0  0  0  0  0  0  0
    0.5240    1.4643   -0.6338 H   0  0  0  0  0  0  0  0  0  0  0  0
   -1.4924    1.1471   -1.2835 C   0  0  0  0  0  0  0  0  0  0  0  0
   -2.4838    0.9752   -0.8605 H   0  0  0  0  0  0  0  0  0  0  0  0
   -1.5044    2.0757   -1.8520 H   0  0  0  0  0  0  0  0  0  0  0  0
   -1.2598    0.3365   -1.9750 H   0  0  0  0  0  0  0  0  0  0  0  0
   -0.7603    2.3421    0.8373 C   0  0  0  0  0  0  0  0  0  0  0  0
   -0.0160    3.1361    0.7633 H   0  0  0  0  0  0  0  0  0  0  0  0
   -1.7345    2.7623    0.5872 H   0  0  0  0  0  0  0  0  0  0  0  0
   -0.8271    1.8678    2.2953 C   0  0  0  0  0  0  0  0  0  0  0  0
    0.1536    1.5344    2.6341 H   0  0  0  0  0  0  0  0  0  0  0  0
   -1.1498    2.6949    2.9280 H   0  0  0  0  0  0  0  0  0  0  0  0
   -1.5426    1.0500    2.3891 H   0  0  0  0  0  0  0  0  0  0  0  0
    0.3833   -0.0008    1.9525 C   0  0  0  0  0  0  0  0  0  0  0  0
    1.5803   -0.2304    2.1189 O   0  0  0  0  0  0  0  0  0  0  0  0
   -0.4170    0.3858    2.9541 N   0  0  0  0  0  0  0  0  0  0  0  0
   -1.3850    0.5669    2.7398 H   0  0  0  0  0  0  0  0  0  0  0  0
    0.0265    0.5600    4.3358 C   0  0  0  0  0  0  0  0  0  0  0  0
    0.8964    1.2200    4.3632 H   0  0  0  0  0  0  0  0  0  0  0  0
   -0.7726    0.9946    4.9382 H   0  0  0  0  0  0  0  0  0  0  0  0
    0.3119   -0.4069    4.7547 H   0  0  0  0  0  0  0  0  0  0  0  0
  5  6  2  0  0  0  0
  5  7  1  0  0  0  0
  2  3  1  0  0  0  0
  2  4  1  0  0  0  0
  2  5  1  0  0  0  0
  1  2  1  0  0  0  0
 24 25  2  0  0  0  0
 24 26  1  0  0  0  0
 20 21  1  0  0  0  0
 20 22  1  0  0  0  0
 20 23  1  0  0  0  0
 17 18  1  0  0  0  0
 17 19  1  0  0  0  0
 17 20  1  0  0  0  0
 13 14  1  0  0  0  0
 13 15  1  0  0  0  0
 13 16  1  0  0  0  0
 11 12  1  0  0  0  0
 11 13  1  0  0  0  0
 11 17  1  0  0  0  0
  9 10  1  0  0  0  0
  9 11  1  0  0  0  0
  9 24  1  0  0  0  0
  7  8  1  0  0  0  0
  7  9  1  0  0  0  0
 28 29  1  0  0  0  0
 28 30  1  0  0  0  0
 28 31  1  0  0  0  0
 26 27  1  0  0  0  0
 26 28  1  0  0  0  0
M  END
$$$$
default_name
  -OEChem-02102213163D

 31 30  0     1  0  0  0  0  0999 V2000
   -3.0760   -3.6390    1.5496 H   0  0  0  0  0  0  0  0  0  0  0  0
   -3.0940   -2.6290    1.1426 C   0  0  0  0  0  0  0  0  0  0  0  0
   -3.7160   -1.9930    1.7706 H   0  0  0  0  0  0  0  0  0  0  0  0
   -3.4880   -2.6500    0.1286 H   0  0  0  0  0  0  0  0  0  0  0  0
   -1.6860   -2.0850    1.1196 C   0  0  0  0  0  0  0  0  0  0  0  0
   -0.7540   -2.7700    1.5226 O   0  0  0  0  0  0  0  0  0  0  0  0
   -1.5320   -0.8490    0.6496 N   0  0  0  0  0  0  0  0  0  0  0  0
   -2.3500   -0.3360    0.3566 H   0  0  0  0  0  0  0  0  0  0  0  0
   -0.2470   -0.1410    0.5576 C   0  0  1  0  0  0  0  0  0  0  0  0
    0.4239   -0.7541   -0.0450 H   0  0  0  0  0  0  0  0  0  0  0  0
   -0.4317    1.2160   -0.1683 C   0  0  1  0  0  0  0  0  0  0  0  0
    0.5240    1.4643   -0.6338 H   0  0  0  0  0  0  0  0  0  0  0  0
   -1.4924    1.1471   -1.2835 C   0  0  0  0  0  0  0  0  0  0  0  0
   -2.4838    0.9752   -0.8605 H   0  0  0  0  0  0  0  0  0  0  0  0
   -1.5044    2.0757   -1.8520 H   0  0  0  0  0  0  0  0  0  0  0  0
   -1.2598    0.3365   -1.9750 H   0  0  0  0  0  0  0  0  0  0  0  0
   -0.7603    2.3421    0.8373 C   0  0  0  0  0  0  0  0  0  0  0  0
   -0.1917    3.2396    0.5900 H   0  0  0  0  0  0  0  0  0  0  0  0
   -1.8218    2.5788    0.7641 H   0  0  0  0  0  0  0  0  0  0  0  0
   -0.4744    1.9683    2.2980 C   0  0  0  0  0  0  0  0  0  0  0  0
    0.5946    1.8243    2.4536 H   0  0  0  0  0  0  0  0  0  0  0  0
   -0.8138    2.7746    2.9485 H   0  0  0  0  0  0  0  0  0  0  0  0
   -1.0072    1.0536    2.5602 H   0  0  0  0  0  0  0  0  0  0  0  0
    0.3833   -0.0008    1.9525 C   0  0  0  0  0  0  0  0  0  0  0  0
    1.5803   -0.2304    2.1189 O   0  0  0  0  0  0  0  0  0  0  0  0
   -0.4170    0.3858    2.9541 N   0  0  0  0  0  0  0  0  0  0  0  0
   -1.3850    0.5669    2.7398 H   0  0  0  0  0  0  0  0  0  0  0  0
    0.0265    0.5600    4.3358 C   0  0  0  0  0  0  0  0  0  0  0  0
    0.8964    1.2200    4.3632 H   0  0  0  0  0  0  0  0  0  0  0  0
   -0.7726    0.9946    4.9382 H   0  0  0  0  0  0  0  0  0  0  0  0
    0.3119   -0.4069    4.7547 H   0  0  0  0  0  0  0  0  0  0  0  0
  5  6  2  0  0  0  0
  5  7  1  0  0  0  0
  2  3  1  0  0  0  0
  2  4  1  0  0  0  0
  2  5  1  0  0  0  0
  1  2  1  0  0  0  0
 24 25  2  0  0  0  0
 24 26  1  0  0  0  0
 20 21  1  0  0  0  0
 20 22  1  0  0  0  0
 20 23  1  0  0  0  0
 17 18  1  0  0  0  0
 17 19  1  0  0  0  0
 17 20  1  0  0  0  0
 13 14  1  0  0  0  0
 13 15  1  0  0  0  0
 13 16  1  0  0  0  0
 11 12  1  0  0  0  0
 11 13  1  0  0  0  0
 11 17  1  0  0  0  0
  9 10  1  0  0  0  0
  9 11  1  0  0  0  0
  9 24  1  0  0  0  0
  7  8  1  0  0  0  0
  7  9  1  0  0  0  0
 28 29  1  0  0  0  0
 28 30  1  0  0  0  0
 28 31  1  0  0  0  0
 26 27  1  0  0  0  0
 26 28  1  0  0  0  0
M  END
$$$$
default_name
  -OEChem-02102213163D

 31 30  0     1  0  0  0  0  0999 V2000
   -3.0760   -3.6390    1.5496 H   0  0  0  0  0  0  0  0  0  0  0  0
   -3.0940   -2.6290    1.1426 C   0  0  0  0  0  0  0  0  0  0  0  0
   -3.7160   -1.9930    1.7706 H   0  0  0  0  0  0  0  0  0  0  0  0
   -3.4880   -2.6500    0.1286 H   0  0  0  0  0  0  0  0  0  0  0  0
   -1.6860   -2.0850    1.1196 C   0  0  0  0  0  0  0  0  0  0  0  0
   -0.7540   -2.7700    1.5226 O   0  0  0  0  0  0  0  0  0  0  0  0
   -1.5320   -0.8490    0.6496 N   0  0  0  0  0  0  0  0  0  0  0  0
   -2.3500   -0.3360    0.3566 H   0  0  0  0  0  0  0  0  0  0  0  0
   -0.2470   -0.1410    0.5576 C   0  0  1  0  0  0  0  0  0  0  0  0
    0.4239   -0.7541   -0.0450 H   0  0  0  0  0  0  0  0  0  0  0  0
   -0.4317    1.2160   -0.1683 C   0  0  1  0  0  0  0  0  0  0  0  0
    0.5240    1.4643   -0.6338 H   0  0  0  0  0  0  0  0  0  0  0  0
   -1.4924    1.1471   -1.2835 C   0  0  0  0  0  0  0  0  0  0  0  0
   -2.4838    0.9752   -0.8605 H   0  0  0  0  0  0  0  0  0  0  0  0
   -1.5044    2.0757   -1.8520 H   0  0  0  0  0  0  0  0  0  0  0  0
   -1.2598    0.3365   -1.9750 H   0  0  0  0  0  0  0  0  0  0  0  0
   -0.7603    2.3421    0.8373 C   0  0  0  0  0  0  0  0  0  0  0  0
   -0.4116    3.3004    0.4500 H   0  0  0  0  0  0  0  0  0  0  0  0
   -1.8418    2.3966    0.9616 H   0  0  0  0  0  0  0  0  0  0  0  0
   -0.1501    2.1249    2.2286 C   0  0  0  0  0  0  0  0  0  0  0  0
    0.9378    2.1688    2.1800 H   0  0  0  0  0  0  0  0  0  0  0  0
   -0.4989    2.9093    2.9006 H   0  0  0  0  0  0  0  0  0  0  0  0
   -0.4585    1.1566    2.6242 H   0  0  0  0  0  0  0  0  0  0  0  0
    0.3833   -0.0008    1.9525 C   0  0  0  0  0  0  0  0  0  0  0  0
    1.5803   -0.2304    2.1189 O   0  0  0  0  0  0  0  0  0  0  0  0
   -0.4170    0.3858    2.9541 N   0  0  0  0  0  0  0  0  0  0  0  0
   -1.3850    0.5669    2.7398 H   0  0  0  0  0  0  0  0  0  0  0  0
    0.0265    0.5600    4.3358 C   0  0  0  0  0  0  0  0  0  0  0  0
    0.8964    1.2200    4.3632 H   0  0  0  0  0  0  0  0  0  0  0  0
   -0.7726    0.9946    4.9382 H   0  0  0  0  0  0  0  0  0  0  0  0
    0.3119   -0.4069    4.7547 H   0  0  0  0  0  0  0  0  0  0  0  0
  5  6  2  0  0  0  0
  5  7  1  0  0  0  0
  2  3  1  0  0  0  0
  2  4  1  0  0  0  0
  2  5  1  0  0  0  0
  1  2  1  0  0  0  0
 24 25  2  0  0  0  0
 24 26  1  0  0  0  0
 20 21  1  0  0  0  0
 20 22  1  0  0  0  0
 20 23  1  0  0  0  0
 17 18  1  0  0  0  0
 17 19  1  0  0  0  0
 17 20  1  0  0  0  0
 13 14  1  0  0  0  0
 13 15  1  0  0  0  0
 13 16  1  0  0  0  0
 11 12  1  0  0  0  0
 11 13  1  0  0  0  0
 11 17  1  0  0  0  0
  9 10  1  0  0  0  0
  9 11  1  0  0  0  0
  9 24  1  0  0  0  0
  7  8  1  0  0  0  0
  7  9  1  0  0  0  0
 28 29  1  0  0  0  0
 28 30  1  0  0  0  0
 28 31  1  0  0  0  0
 26 27  1  0  0  0  0
 26 28  1  0  0  0  0
M  END
$$$$
default_name
  -OEChem-02102213163D

 31 30  0     1  0  0  0  0  0999 V2000
   -3.0760   -3.6390    1.5496 H   0  0  0  0  0  0  0  0  0  0  0  0
   -3.0940   -2.6290    1.1426 C   0  0  0  0  0  0  0  0  0  0  0  0
   -3.7160   -1.9930    1.7706 H   0  0  0  0  0  0  0  0  0  0  0  0
   -3.4880   -2.6500    0.1286 H   0  0  0  0  0  0  0  0  0  0  0  0
   -1.6860   -2.0850    1.1196 C   0  0  0  0  0  0  0  0  0  0  0  0
   -0.7540   -2.7700    1.5226 O   0  0  0  0  0  0  0  0  0  0  0  0
   -1.5320   -0.8490    0.6496 N   0  0  0  0  0  0  0  0  0  0  0  0
   -2.3500   -0.3360    0.3566 H   0  0  0  0  0  0  0  0  0  0  0  0
   -0.2470   -0.1410    0.5576 C   0  0  1  0  0  0  0  0  0  0  0  0
    0.4239   -0.7541   -0.0450 H   0  0  0  0  0  0  0  0  0  0  0  0
   -0.4317    1.2160   -0.1683 C   0  0  1  0  0  0  0  0  0  0  0  0
    0.5240    1.4643   -0.6338 H   0  0  0  0  0  0  0  0  0  0  0  0
   -1.4924    1.1471   -1.2835 C   0  0  0  0  0  0  0  0  0  0  0  0
   -2.4838    0.9752   -0.8605 H   0  0  0  0  0  0  0  0  0  0  0  0
   -1.5044    2.0757   -1.8520 H   0  0  0  0  0  0  0  0  0  0  0  0
   -1.2598    0.3365   -1.9750 H   0  0  0  0  0  0  0  0  0  0  0  0
   -0.7603    2.3421    0.8373 C   0  0  0  0  0  0  0  0  0  0  0  0
   -0.6607    3.3144    0.3529 H   0  0  0  0  0  0  0  0  0  0  0  0
   -1.7933    2.2282    1.1661 H   0  0  0  0  0  0  0  0  0  0  0  0
    0.1237    2.3270    2.0917 C   0  0  0  0  0  0  0  0  0  0  0  0
    1.1596    2.5442    1.8320 H   0  0  0  0  0  0  0  0  0  0  0  0
   -0.2265    3.0899    2.7875 H   0  0  0  0  0  0  0  0  0  0  0  0
    0.0663    1.3520    2.5768 H   0  0  0  0  0  0  0  0  0  0  0  0
    0.3833   -0.0008    1.9525 C   0  0  0  0  0  0  0  0  0  0  0  0
    1.5803   -0.2304    2.1189 O   0  0  0  0  0  0  0  0  0  0  0  0
   -0.4170    0.3858    2.9541 N   0  0  0  0  0  0  0  0  0  0  0  0
   -1.3850    0.5669    2.7398 H   0  0  0  0  0  0  0  0  0  0  0  0
    0.0265    0.5600    4.3358 C   0  0  0  0  0  0  0  0  0  0  0  0
    0.8964    1.2200    4.3632 H   0  0  0  0  0  0  0  0  0  0  0  0
   -0.7726    0.9946    4.9382 H   0  0  0  0  0  0  0  0  0  0  0  0
    0.3119   -0.4069    4.7547 H   0  0  0  0  0  0  0  0  0  0  0  0
  5  6  2  0  0  0  0
  5  7  1  0  0  0  0
  2  3  1  0  0  0  0
  2  4  1  0  0  0  0
  2  5  1  0  0  0  0
  1  2  1  0  0  0  0
 24 25  2  0  0  0  0
 24 26  1  0  0  0  0
 20 21  1  0  0  0  0
 20 22  1  0  0  0  0
 20 23  1  0  0  0  0
 17 18  1  0  0  0  0
 17 19  1  0  0  0  0
 17 20  1  0  0  0  0
 13 14  1  0  0  0  0
 13 15  1  0  0  0  0
 13 16  1  0  0  0  0
 11 12  1  0  0  0  0
 11 13  1  0  0  0  0
 11 17  1  0  0  0  0
  9 10  1  0  0  0  0
  9 11  1  0  0  0  0
  9 24  1  0  0  0  0
  7  8  1  0  0  0  0
  7  9  1  0  0  0  0
 28 29  1  0  0  0  0
 28 30  1  0  0  0  0
 28 31  1  0  0  0  0
 26 27  1  0  0  0  0
 26 28  1  0  0  0  0
M  END
$$$$
default_name
  -OEChem-02102213163D

 31 30  0     1  0  0  0  0  0999 V2000
   -3.0760   -3.6390    1.5496 H   0  0  0  0  0  0  0  0  0  0  0  0
   -3.0940   -2.6290    1.1426 C   0  0  0  0  0  0  0  0  0  0  0  0
   -3.7160   -1.9930    1.7706 H   0  0  0  0  0  0  0  0  0  0  0  0
   -3.4880   -2.6500    0.1286 H   0  0  0  0  0  0  0  0  0  0  0  0
   -1.6860   -2.0850    1.1196 C   0  0  0  0  0  0  0  0  0  0  0  0
   -0.7540   -2.7700    1.5226 O   0  0  0  0  0  0  0  0  0  0  0  0
   -1.5320   -0.8490    0.6496 N   0  0  0  0  0  0  0  0  0  0  0  0
   -2.3500   -0.3360    0.3566 H   0  0  0  0  0  0  0  0  0  0  0  0
   -0.2470   -0.1410    0.5576 C   0  0  1  0  0  0  0  0  0  0  0  0
    0.4239   -0.7541   -0.0450 H   0  0  0  0  0  0  0  0  0  0  0  0
   -0.4317    1.2160   -0.1683 C   0  0  1  0  0  0  0  0  0  0  0  0
    0.5240    1.4643   -0.6338 H   0  0  0  0  0  0  0  0  0  0  0  0
   -1.4924    1.1471   -1.2835 C   0  0  0  0  0  0  0  0  0  0  0  0
   -2.4838    0.9752   -0.8605 H   0  0  0  0  0  0  0  0  0  0  0  0
   -1.5044    2.0757   -1.8520 H   0  0  0  0  0  0  0  0  0  0  0  0
   -1.2598    0.3365   -1.9750 H   0  0  0  0  0  0  0  0  0  0  0  0
   -0.7603    2.3421    0.8373 C   0  0  0  0  0  0  0  0  0  0  0  0
   -0.9219    3.2806    0.3053 H   0  0  0  0  0  0  0  0  0  0  0  0
   -1.6794    2.0849    1.3638 H   0  0  0  0  0  0  0  0  0  0  0  0
    0.3283    2.5608    1.8967 C   0  0  0  0  0  0  0  0  0  0  0  0
    1.2450    2.9251    1.4334 H   0  0  0  0  0  0  0  0  0  0  0  0
   -0.0151    3.3039    2.6169 H   0  0  0  0  0  0  0  0  0  0  0  0
    0.5314    1.6266    2.4213 H   0  0  0  0  0  0  0  0  0  0  0  0
    0.3833   -0.0008    1.9525 C   0  0  0  0  0  0  0  0  0  0  0  0
    1.5803   -0.2304    2.1189 O   0  0  0  0  0  0  0  0  0  0  0  0
   -0.4170    0.3858    2.9541 N   0  0  0  0  0  0  0  0  0  0  0  0
   -1.3850    0.5669    2.7398 H   0  0  0  0  0  0  0  0  0  0  0  0
    0.0265    0.5600    4.3358 C   0  0  0  0  0  0  0  0  0  0  0  0
    0.8964    1.2200    4.3632 H   0  0  0  0  0  0  0  0  0  0  0  0
   -0.7726    0.9946    4.9382 H   0  0  0  0  0  0  0  0  0  0  0  0
    0.3119   -0.4069    4.7547 H   0  0  0  0  0  0  0  0  0  0  0  0
  5  6  2  0  0  0  0
  5  7  1  0  0  0  0
  2  3  1  0  0  0  0
  2  4  1  0  0  0  0
  2  5  1  0  0  0  0
  1  2  1  0  0  0  0
 24 25  2  0  0  0  0
 24 26  1  0  0  0  0
 20 21  1  0  0  0  0
 20 22  1  0  0  0  0
 20 23  1  0  0  0  0
 17 18  1  0  0  0  0
 17 19  1  0  0  0  0
 17 20  1  0  0  0  0
 13 14  1  0  0  0  0
 13 15  1  0  0  0  0
 13 16  1  0  0  0  0
 11 12  1  0  0  0  0
 11 13  1  0  0  0  0
 11 17  1  0  0  0  0
  9 10  1  0  0  0  0
  9 11  1  0  0  0  0
  9 24  1  0  0  0  0
  7  8  1  0  0  0  0
  7  9  1  0  0  0  0
 28 29  1  0  0  0  0
 28 30  1  0  0  0  0
 28 31  1  0  0  0  0
 26 27  1  0  0  0  0
 26 28  1  0  0  0  0
M  END
$$$$
default_name
  -OEChem-02102213163D

 31 30  0     1  0  0  0  0  0999 V2000
   -3.0760   -3.6390    1.5496 H   0  0  0  0  0  0  0  0  0  0  0  0
   -3.0940   -2.6290    1.1426 C   0  0  0  0  0  0  0  0  0  0  0  0
   -3.7160   -1.9930    1.7706 H   0  0  0  0  0  0  0  0  0  0  0  0
   -3.4880   -2.6500    0.1286 H   0  0  0  0  0  0  0  0  0  0  0  0
   -1.6860   -2.0850    1.1196 C   0  0  0  0  0  0  0  0  0  0  0  0
   -0.7540   -2.7700    1.5226 O   0  0  0  0  0  0  0  0  0  0  0  0
   -1.5320   -0.8490    0.6496 N   0  0  0  0  0  0  0  0  0  0  0  0
   -2.3500   -0.3360    0.3566 H   0  0  0  0  0  0  0  0  0  0  0  0
   -0.2470   -0.1410    0.5576 C   0  0  1  0  0  0  0  0  0  0  0  0
    0.4239   -0.7541   -0.0450 H   0  0  0  0  0  0  0  0  0  0  0  0
   -0.4317    1.2160   -0.1683 C   0  0  1  0  0  0  0  0  0  0  0  0
    0.5240    1.4643   -0.6338 H   0  0  0  0  0  0  0  0  0  0  0  0
   -1.4924    1.1471   -1.2835 C   0  0  0  0  0  0  0  0  0  0  0  0
   -2.4838    0.9752   -0.8605 H   0  0  0  0  0  0  0  0  0  0  0  0
   -1.5044    2.0757   -1.8520 H   0  0  0  0  0  0  0  0  0  0  0  0
   -1.2598    0.3365   -1.9750 H   0  0  0  0  0  0  0  0  0  0  0  0
   -0.7603    2.3421    0.8373 C   0  0  0  0  0  0  0  0  0  0  0  0
   -1.1775    3.2014    0.3105 H   0  0  0  0  0  0  0  0  0  0  0  0
   -1.5079    1.9765    1.5412 H   0  0  0  0  0  0  0  0  0  0  0  0
    0.4497    2.8104    1.6569 C   0  0  0  0  0  0  0  0  0  0  0  0
    1.1881    3.2854    1.0112 H   0  0  0  0  0  0  0  0  0  0  0  0
    0.1209    3.5369    2.4004 H   0  0  0  0  0  0  0  0  0  0  0  0
    0.9050    1.9616    2.1683 H   0  0  0  0  0  0  0  0  0  0  0  0
    0.3833   -0.0008    1.9525 C   0  0  0  0  0  0  0  0  0  0  0  0
    1.5803   -0.2304    2.1189 O   0  0  0  0  0  0  0  0  0  0  0  0
   -0.4170    0.3858    2.9541 N   0  0  0  0  0  0  0  0  0  0  0  0
   -1.3850    0.5669    2.7398 H   0  0  0  0  0  0  0  0  0  0  0  0
    0.0265    0.5600    4.3358 C   0  0  0  0  0  0  0  0  0  0  0  0
    0.8964    1.2200    4.3632 H   0  0  0  0  0  0  0  0  0  0  0  0
   -0.7726    0.9946    4.9382 H   0  0  0  0  0  0  0  0  0  0  0  0
    0.3119   -0.4069    4.7547 H   0  0  0  0  0  0  0  0  0  0  0  0
  5  6  2  0  0  0  0
  5  7  1  0  0  0  0
  2  3  1  0  0  0  0
  2  4  1  0  0  0  0
  2  5  1  0  0  0  0
  1  2  1  0  0  0  0
 24 25  2  0  0  0  0
 24 26  1  0  0  0  0
 20 21  1  0  0  0  0
 20 22  1  0  0  0  0
 20 23  1  0  0  0  0
 17 18  1  0  0  0  0
 17 19  1  0  0  0  0
 17 20  1  0  0  0  0
 13 14  1  0  0  0  0
 13 15  1  0  0  0  0
 13 16  1  0  0  0  0
 11 12  1  0  0  0  0
 11 13  1  0  0  0  0
 11 17  1  0  0  0  0
  9 10  1  0  0  0  0
  9 11  1  0  0  0  0
  9 24  1  0  0  0  0
  7  8  1  0  0  0  0
  7  9  1  0  0  0  0
 28 29  1  0  0  0  0
 28 30  1  0  0  0  0
 28 31  1  0  0  0  0
 26 27  1  0  0  0  0
 26 28  1  0  0  0  0
M  END
$$$$
default_name
  -OEChem-02102213163D

 31 30  0     1  0  0  0  0  0999 V2000
   -3.0760   -3.6390    1.5496 H   0  0  0  0  0  0  0  0  0  0  0  0
   -3.0940   -2.6290    1.1426 C   0  0  0  0  0  0  0  0  0  0  0  0
   -3.7160   -1.9930    1.7706 H   0  0  0  0  0  0  0  0  0  0  0  0
   -3.4880   -2.6500    0.1286 H   0  0  0  0  0  0  0  0  0  0  0  0
   -1.6860   -2.0850    1.1196 C   0  0  0  0  0  0  0  0  0  0  0  0
   -0.7540   -2.7700    1.5226 O   0  0  0  0  0  0  0  0  0  0  0  0
   -1.5320   -0.8490    0.6496 N   0  0  0  0  0  0  0  0  0  0  0  0
   -2.3500   -0.3360    0.3566 H   0  0  0  0  0  0  0  0  0  0  0  0
   -0.2470   -0.1410    0.5576 C   0  0  1  0  0  0  0  0  0  0  0  0
    0.4239   -0.7541   -0.0450 H   0  0  0  0  0  0  0  0  0  0  0  0
   -0.4317    1.2160   -0.1683 C   0  0  1  0  0  0  0  0  0  0  0  0
    0.5240    1.4643   -0.6338 H   0  0  0  0  0  0  0  0  0  0  0  0
   -1.4924    1.1471   -1.2835 C   0  0  0  0  0  0  0  0  0  0  0  0
   -2.4838    0.9752   -0.8605 H   0  0  0  0  0  0  0  0  0  0  0  0
   -1.5044    2.0757   -1.8520 H   0  0  0  0  0  0  0  0  0  0  0  0
   -1.2598    0.3365   -1.9750 H   0  0  0  0  0  0  0  0  0  0  0  0
   -0.7603    2.3421    0.8373 C   0  0  0  0  0  0  0  0  0  0  0  0
   -1.4101    3.0821    0.3681 H   0  0  0  0  0  0  0  0  0  0  0  0
   -1.2906    1.9105    1.6861 H   0  0  0  0  0  0  0  0  0  0  0  0
    0.4797    3.0587    1.3887 C   0  0  0  0  0  0  0  0  0  0  0  0
    0.9928    3.6007    0.5944 H   0  0  0  0  0  0  0  0  0  0  0  0
    0.1722    3.7729    2.1529 H   0  0  0  0  0  0  0  0  0  0  0  0
    1.1617    2.3341    1.8349 H   0  0  0  0  0  0  0  0  0  0  0  0
    0.3833   -0.0008    1.9525 C   0  0  0  0  0  0  0  0  0  0  0  0
    1.5803   -0.2304    2.1189 O   0  0  0  0  0  0  0  0  0  0  0  0
   -0.4170    0.3858    2.9541 N   0  0  0  0  0  0  0  0  0  0  0  0
   -1.3850    0.5669    2.7398 H   0  0  0  0  0  0  0  0  0  0  0  0
    0.0265    0.5600    4.3358 C   0  0  0  0  0  0  0  0  0  0  0  0
    0.8964    1.2200    4.3632 H   0  0  0  0  0  0  0  0  0  0  0  0
   -0.7726    0.9946    4.9382 H   0  0  0  0  0  0  0  0  0  0  0  0
    0.3119   -0.4069    4.7547 H   0  0  0  0  0  0  0  0  0  0  0  0
  5  6  2  0  0  0  0
  5  7  1  0  0  0  0
  2  3  1  0  0  0  0
  2  4  1  0  0  0  0
  2  5  1  0  0  0  0
  1  2  1  0  0  0  0
 24 25  2  0  0  0  0
 24 26  1  0  0  0  0
 20 21  1  0  0  0  0
 20 22  1  0  0  0  0
 20 23  1  0  0  0  0
 17 18  1  0  0  0  0
 17 19  1  0  0  0  0
 17 20  1  0  0  0  0
 13 14  1  0  0  0  0
 13 15  1  0  0  0  0
 13 16  1  0  0  0  0
 11 12  1  0  0  0  0
 11 13  1  0  0  0  0
 11 17  1  0  0  0  0
  9 10  1  0  0  0  0
  9 11  1  0  0  0  0
  9 24  1  0  0  0  0
  7  8  1  0  0  0  0
  7  9  1  0  0  0  0
 28 29  1  0  0  0  0
 28 30  1  0  0  0  0
 28 31  1  0  0  0  0
 26 27  1  0  0  0  0
 26 28  1  0  0  0  0
M  END
$$$$
default_name
  -OEChem-02102213163D

 31 30  0     1  0  0  0  0  0999 V2000
   -3.0760   -3.6390    1.5496 H   0  0  0  0  0  0  0  0  0  0  0  0
   -3.0940   -2.6290    1.1426 C   0  0  0  0  0  0  0  0  0  0  0  0
   -3.7160   -1.9930    1.7706 H   0  0  0  0  0  0  0  0  0  0  0  0
   -3.4880   -2.6500    0.1286 H   0  0  0  0  0  0  0  0  0  0  0  0
   -1.6860   -2.0850    1.1196 C   0  0  0  0  0  0  0  0  0  0  0  0
   -0.7540   -2.7700    1.5226 O   0  0  0  0  0  0  0  0  0  0  0  0
   -1.5320   -0.8490    0.6496 N   0  0  0  0  0  0  0  0  0  0  0  0
   -2.3500   -0.3360    0.3566 H   0  0  0  0  0  0  0  0  0  0  0  0
   -0.2470   -0.1410    0.5576 C   0  0  1  0  0  0  0  0  0  0  0  0
    0.4239   -0.7541   -0.0450 H   0  0  0  0  0  0  0  0  0  0  0  0
   -0.4317    1.2160   -0.1683 C   0  0  1  0  0  0  0  0  0  0  0  0
    0.5240    1.4643   -0.6338 H   0  0  0  0  0  0  0  0  0  0  0  0
   -1.4924    1.1471   -1.2835 C   0  0  0  0  0  0  0  0  0  0  0  0
   -2.4838    0.9752   -0.8605 H   0  0  0  0  0  0  0  0  0  0  0  0
   -1.5044    2.0757   -1.8520 H   0  0  0  0  0  0  0  0  0  0  0  0
   -1.2598    0.3365   -1.9750 H   0  0  0  0  0  0  0  0  0  0  0  0
   -0.7603    2.3421    0.8373 C   0  0  0  0  0  0  0  0  0  0  0  0
   -1.6038    2.9308    0.4742 H   0  0  0  0  0  0  0  0  0  0  0  0
   -1.0423    1.8913    1.7888 H   0  0  0  0  0  0  0  0  0  0  0  0
    0.4163    3.2889    1.1102 C   0  0  0  0  0  0  0  0  0  0  0  0
    0.6725    3.8493    0.2113 H   0  0  0  0  0  0  0  0  0  0  0  0
    0.1352    3.9959    1.8911 H   0  0  0  0  0  0  0  0  0  0  0  0
    1.2841    2.7189    1.4440 H   0  0  0  0  0  0  0  0  0  0  0  0
    0.3833   -0.0008    1.9525 C   0  0  0  0  0  0  0  0  0  0  0  0
    1.5803   -0.2304    2.1189 O   0  0  0  0  0  0  0  0  0  0  0  0
   -0.4170    0.3858    2.9541 N   0  0  0  0  0  0  0  0  0  0  0  0
   -1.3850    0.5669    2.7398 H   0  0  0  0  0  0  0  0  0  0  0  0
    0.0265    0.5600    4.3358 C   0  0  0  0  0  0  0  0  0  0  0  0
    0.8964    1.2200    4.3632 H   0  0  0  0  0  0  0  0  0  0  0  0
   -0.7726    0.9946    4.9382 H   0  0  0  0  0  0  0  0  0  0  0  0
    0.3119   -0.4069    4.7547 H   0  0  0  0  0  0  0  0  0  0  0  0
  5  6  2  0  0  0  0
  5  7  1  0  0  0  0
  2  3  1  0  0  0  0
  2  4  1  0  0  0  0
  2  5  1  0  0  0  0
  1  2  1  0  0  0  0
 24 25  2  0  0  0  0
 24 26  1  0  0  0  0
 20 21  1  0  0  0  0
 20 22  1  0  0  0  0
 20 23  1  0  0  0  0
 17 18  1  0  0  0  0
 17 19  1  0  0  0  0
 17 20  1  0  0  0  0
 13 14  1  0  0  0  0
 13 15  1  0  0  0  0
 13 16  1  0  0  0  0
 11 12  1  0  0  0  0
 11 13  1  0  0  0  0
 11 17  1  0  0  0  0
  9 10  1  0  0  0  0
  9 11  1  0  0  0  0
  9 24  1  0  0  0  0
  7  8  1  0  0  0  0
  7  9  1  0  0  0  0
 28 29  1  0  0  0  0
 28 30  1  0  0  0  0
 28 31  1  0  0  0  0
 26 27  1  0  0  0  0
 26 28  1  0  0  0  0
M  END
$$$$
default_name
  -OEChem-02102213163D

 31 30  0     1  0  0  0  0  0999 V2000
   -3.0760   -3.6390    1.5496 H   0  0  0  0  0  0  0  0  0  0  0  0
   -3.0940   -2.6290    1.1426 C   0  0  0  0  0  0  0  0  0  0  0  0
   -3.7160   -1.9930    1.7706 H   0  0  0  0  0  0  0  0  0  0  0  0
   -3.4880   -2.6500    0.1286 H   0  0  0  0  0  0  0  0  0  0  0  0
   -1.6860   -2.0850    1.1196 C   0  0  0  0  0  0  0  0  0  0  0  0
   -0.7540   -2.7700    1.5226 O   0  0  0  0  0  0  0  0  0  0  0  0
   -1.5320   -0.8490    0.6496 N   0  0  0  0  0  0  0  0  0  0  0  0
   -2.3500   -0.3360    0.3566 H   0  0  0  0  0  0  0  0  0  0  0  0
   -0.2470   -0.1410    0.5576 C   0  0  1  0  0  0  0  0  0  0  0  0
    0.4239   -0.7541   -0.0450 H   0  0  0  0  0  0  0  0  0  0  0  0
   -0.4317    1.2160   -0.1683 C   0  0  1  0  0  0  0  0  0  0  0  0
    0.5240    1.4643   -0.6338 H   0  0  0  0  0  0  0  0  0  0  0  0
   -1.4924    1.1471   -1.2835 C   0  0  0  0  0  0  0  0  0  0  0  0
   -2.4838    0.9752   -0.8605 H   0  0  0  0  0  0  0  0  0  0  0  0
   -1.5044    2.0757   -1.8520 H   0  0  0  0  0  0  0  0  0  0  0  0
   -1.2598    0.3365   -1.9750 H   0  0  0  0  0  0  0  0  0  0  0  0
   -0.7603    2.3421    0.8373 C   0  0  0  0  0  0  0  0  0  0  0  0
   -1.7454    2.7580    0.6215 H   0  0  0  0  0  0  0  0  0  0  0  0
   -0.7798    1.9203    1.8421 H   0  0  0  0  0  0  0  0  0  0  0  0
    0.2637    3.4852    0.8405 C   0  0  0  0  0  0  0  0  0  0  0  0
    0.2489    4.0144   -0.1121 H   0  0  0  0  0  0  0  0  0  0  0  0
    0.0126    4.1906    1.6329 H   0  0  0  0  0  0  0  0  0  0  0  0
    1.2637    3.0897    1.0221 H   0  0  0  0  0  0  0  0  0  0  0  0
    0.3833   -0.0008    1.9525 C   0  0  0  0  0  0  0  0  0  0  0  0
    1.5803   -0.2304    2.1189 O   0  0  0  0  0  0  0  0  0  0  0  0
   -0.4170    0.3858    2.9541 N   0  0  0  0  0  0  0  0  0  0  0  0
   -1.3850    0.5669    2.7398 H   0  0  0  0  0  0  0  0  0  0  0  0
    0.0265    0.5600    4.3358 C   0  0  0  0  0  0  0  0  0  0  0  0
    0.8964    1.2200    4.3632 H   0  0  0  0  0  0  0  0  0  0  0  0
   -0.7726    0.9946    4.9382 H   0  0  0  0  0  0  0  0  0  0  0  0
    0.3119   -0.4069    4.7547 H   0  0  0  0  0  0  0  0  0  0  0  0
  5  6  2  0  0  0  0
  5  7  1  0  0  0  0
  2  3  1  0  0  0  0
  2  4  1  0  0  0  0
  2  5  1  0  0  0  0
  1  2  1  0  0  0  0
 24 25  2  0  0  0  0
 24 26  1  0  0  0  0
 20 21  1  0  0  0  0
 20 22  1  0  0  0  0
 20 23  1  0  0  0  0
 17 18  1  0  0  0  0
 17 19  1  0  0  0  0
 17 20  1  0  0  0  0
 13 14  1  0  0  0  0
 13 15  1  0  0  0  0
 13 16  1  0  0  0  0
 11 12  1  0  0  0  0
 11 13  1  0  0  0  0
 11 17  1  0  0  0  0
  9 10  1  0  0  0  0
  9 11  1  0  0  0  0
  9 24  1  0  0  0  0
  7  8  1  0  0  0  0
  7  9  1  0  0  0  0
 28 29  1  0  0  0  0
 28 30  1  0  0  0  0
 28 31  1  0  0  0  0
 26 27  1  0  0  0  0
 26 28  1  0  0  0  0
M  END
$$$$
default_name
  -OEChem-02102213163D

 31 30  0     1  0  0  0  0  0999 V2000
   -3.0760   -3.6390    1.5496 H   0  0  0  0  0  0  0  0  0  0  0  0
   -3.0940   -2.6290    1.1426 C   0  0  0  0  0  0  0  0  0  0  0  0
   -3.7160   -1.9930    1.7706 H   0  0  0  0  0  0  0  0  0  0  0  0
   -3.4880   -2.6500    0.1286 H   0  0  0  0  0  0  0  0  0  0  0  0
   -1.6860   -2.0850    1.1196 C   0  0  0  0  0  0  0  0  0  0  0  0
   -0.7540   -2.7700    1.5226 O   0  0  0  0  0  0  0  0  0  0  0  0
   -1.5320   -0.8490    0.6496 N   0  0  0  0  0  0  0  0  0  0  0  0
   -2.3500   -0.3360    0.3566 H   0  0  0  0  0  0  0  0  0  0  0  0
   -0.2470   -0.1410    0.5576 C   0  0  1  0  0  0  0  0  0  0  0  0
    0.4239   -0.7541   -0.0450 H   0  0  0  0  0  0  0  0  0  0  0  0
   -0.4317    1.2160   -0.1683 C   0  0  1  0  0  0  0  0  0  0  0  0
    0.5240    1.4643   -0.6338 H   0  0  0  0  0  0  0  0  0  0  0  0
   -1.4924    1.1471   -1.2835 C   0  0  0  0  0  0  0  0  0  0  0  0
   -2.4838    0.9752   -0.8605 H   0  0  0  0  0  0  0  0  0  0  0  0
   -1.5044    2.0757   -1.8520 H   0  0  0  0  0  0  0  0  0  0  0  0
   -1.2598    0.3365   -1.9750 H   0  0  0  0  0  0  0  0  0  0  0  0
   -0.7603    2.3421    0.8373 C   0  0  0  0  0  0  0  0  0  0  0  0
   -1.8253    2.5752    0.8001 H   0  0  0  0  0  0  0  0  0  0  0  0
   -0.5211    1.9954    1.8426 H   0  0  0  0  0  0  0  0  0  0  0  0
    0.0324    3.6342    0.5980 C   0  0  0  0  0  0  0  0  0  0  0  0
   -0.2491    4.0848   -0.3536 H   0  0  0  0  0  0  0  0  0  0  0  0
   -0.1873    4.3438    1.3960 H   0  0  0  0  0  0  0  0  0  0  0  0
    1.1020    3.4211    0.5981 H   0  0  0  0  0  0  0  0  0  0  0  0
    0.3833   -0.0008    1.9525 C   0  0  0  0  0  0  0  0  0  0  0  0
    1.5803   -0.2304    2.1189 O   0  0  0  0  0  0  0  0  0  0  0  0
   -0.4170    0.3858    2.9541 N   0  0  0  0  0  0  0  0  0  0  0  0
   -1.3850    0.5669    2.7398 H   0  0  0  0  0  0  0  0  0  0  0  0
    0.0265    0.5600    4.3358 C   0  0  0  0  0  0  0  0  0  0  0  0
    0.8964    1.2200    4.3632 H   0  0  0  0  0  0  0  0  0  0  0  0
   -0.7726    0.9946    4.9382 H   0  0  0  0  0  0  0  0  0  0  0  0
    0.3119   -0.4069    4.7547 H   0  0  0  0  0  0  0  0  0  0  0  0
  5  6  2  0  0  0  0
  5  7  1  0  0  0  0
  2  3  1  0  0  0  0
  2  4  1  0  0  0  0
  2  5  1  0  0  0  0
  1  2  1  0  0  0  0
 24 25  2  0  0  0  0
 24 26  1  0  0  0  0
 20 21  1  0  0  0  0
 20 22  1  0  0  0  0
 20 23  1  0  0  0  0
 17 18  1  0  0  0  0
 17 19  1  0  0  0  0
 17 20  1  0  0  0  0
 13 14  1  0  0  0  0
 13 15  1  0  0  0  0
 13 16  1  0  0  0  0
 11 12  1  0  0  0  0
 11 13  1  0  0  0  0
 11 17  1  0  0  0  0
  9 10  1  0  0  0  0
  9 11  1  0  0  0  0
  9 24  1  0  0  0  0
  7  8  1  0  0  0  0
  7  9  1  0  0  0  0
 28 29  1  0  0  0  0
 28 30  1  0  0  0  0
 28 31  1  0  0  0  0
 26 27  1  0  0  0  0
 26 28  1  0  0  0  0
M  END
$$$$
default_name
  -OEChem-02102213163D

 31 30  0     1  0  0  0  0  0999 V2000
   -3.0760   -3.6390    1.5496 H   0  0  0  0  0  0  0  0  0  0  0  0
   -3.0940   -2.6290    1.1426 C   0  0  0  0  0  0  0  0  0  0  0  0
   -3.7160   -1.9930    1.7706 H   0  0  0  0  0  0  0  0  0  0  0  0
   -3.4880   -2.6500    0.1286 H   0  0  0  0  0  0  0  0  0  0  0  0
   -1.6860   -2.0850    1.1196 C   0  0  0  0  0  0  0  0  0  0  0  0
   -0.7540   -2.7700    1.5226 O   0  0  0  0  0  0  0  0  0  0  0  0
   -1.5320   -0.8490    0.6496 N   0  0  0  0  0  0  0  0  0  0  0  0
   -2.3500   -0.3360    0.3566 H   0  0  0  0  0  0  0  0  0  0  0  0
   -0.2470   -0.1410    0.5576 C   0  0  1  0  0  0  0  0  0  0  0  0
    0.4239   -0.7541   -0.0450 H   0  0  0  0  0  0  0  0  0  0  0  0
   -0.4317    1.2160   -0.1683 C   0  0  1  0  0  0  0  0  0  0  0  0
    0.5240    1.4643   -0.6338 H   0  0  0  0  0  0  0  0  0  0  0  0
   -1.4924    1.1471   -1.2835 C   0  0  0  0  0  0  0  0  0  0  0  0
   -2.4838    0.9752   -0.8605 H   0  0  0  0  0  0  0  0  0  0  0  0
   -1.5044    2.0757   -1.8520 H   0  0  0  0  0  0  0  0  0  0  0  0
   -1.2598    0.3365   -1.9750 H   0  0  0  0  0  0  0  0  0  0  0  0
   -0.7603    2.3421    0.8373 C   0  0  0  0  0  0  0  0  0  0  0  0
   -1.8380    2.3951    0.9976 H   0  0  0  0  0  0  0  0  0  0  0  0
   -0.2837    2.1116    1.7900 H   0  0  0  0  0  0  0  0  0  0  0  0
   -0.2618    3.7259    0.3991 C   0  0  0  0  0  0  0  0  0  0  0  0
   -0.7875    4.0555   -0.4968 H   0  0  0  0  0  0  0  0  0  0  0  0
   -0.4510    4.4451    1.1963 H   0  0  0  0  0  0  0  0  0  0  0  0
    0.8099    3.6907    0.2007 H   0  0  0  0  0  0  0  0  0  0  0  0
    0.3833   -0.0008    1.9525 C   0  0  0  0  0  0  0  0  0  0  0  0
    1.5803   -0.2304    2.1189 O   0  0  0  0  0  0  0  0  0  0  0  0
   -0.4170    0.3858    2.9541 N   0  0  0  0  0  0  0  0  0  0  0  0
   -1.3850    0.5669    2.7398 H   0  0  0  0  0  0  0  0  0  0  0  0
    0.0265    0.5600    4.3358 C   0  0  0  0  0  0  0  0  0  0  0  0
    0.8964    1.2200    4.3632 H   0  0  0  0  0  0  0  0  0  0  0  0
   -0.7726    0.9946    4.9382 H   0  0  0  0  0  0  0  0  0  0  0  0
    0.3119   -0.4069    4.7547 H   0  0  0  0  0  0  0  0  0  0  0  0
  5  6  2  0  0  0  0
  5  7  1  0  0  0  0
  2  3  1  0  0  0  0
  2  4  1  0  0  0  0
  2  5  1  0  0  0  0
  1  2  1  0  0  0  0
 24 25  2  0  0  0  0
 24 26  1  0  0  0  0
 20 21  1  0  0  0  0
 20 22  1  0  0  0  0
 20 23  1  0  0  0  0
 17 18  1  0  0  0  0
 17 19  1  0  0  0  0
 17 20  1  0  0  0  0
 13 14  1  0  0  0  0
 13 15  1  0  0  0  0
 13 16  1  0  0  0  0
 11 12  1  0  0  0  0
 11 13  1  0  0  0  0
 11 17  1  0  0  0  0
  9 10  1  0  0  0  0
  9 11  1  0  0  0  0
  9 24  1  0  0  0  0
  7  8  1  0  0  0  0
  7  9  1  0  0  0  0
 28 29  1  0  0  0  0
 28 30  1  0  0  0  0
 28 31  1  0  0  0  0
 26 27  1  0  0  0  0
 26 28  1  0  0  0  0
M  END
$$$$
default_name
  -OEChem-02102213163D

 31 30  0     1  0  0  0  0  0999 V2000
   -3.0760   -3.6390    1.5496 H   0  0  0  0  0  0  0  0  0  0  0  0
   -3.0940   -2.6290    1.1426 C   0  0  0  0  0  0  0  0  0  0  0  0
   -3.7160   -1.9930    1.7706 H   0  0  0  0  0  0  0  0  0  0  0  0
   -3.4880   -2.6500    0.1286 H   0  0  0  0  0  0  0  0  0  0  0  0
   -1.6860   -2.0850    1.1196 C   0  0  0  0  0  0  0  0  0  0  0  0
   -0.7540   -2.7700    1.5226 O   0  0  0  0  0  0  0  0  0  0  0  0
   -1.5320   -0.8490    0.6496 N   0  0  0  0  0  0  0  0  0  0  0  0
   -2.3500   -0.3360    0.3566 H   0  0  0  0  0  0  0  0  0  0  0  0
   -0.2470   -0.1410    0.5576 C   0  0  1  0  0  0  0  0  0  0  0  0
    0.4239   -0.7541   -0.0450 H   0  0  0  0  0  0  0  0  0  0  0  0
   -0.4317    1.2160   -0.1683 C   0  0  1  0  0  0  0  0  0  0  0  0
    0.5240    1.4643   -0.6338 H   0  0  0  0  0  0  0  0  0  0  0  0
   -1.4924    1.1471   -1.2835 C   0  0  0  0  0  0  0  0  0  0  0  0
   -2.4838    0.9752   -0.8605 H   0  0  0  0  0  0  0  0  0  0  0  0
   -1.5044    2.0757   -1.8520 H   0  0  0  0  0  0  0  0  0  0  0  0
   -1.2598    0.3365   -1.9750 H   0  0  0  0  0  0  0  0  0  0  0  0
   -0.7603    2.3421    0.8373 C   0  0  0  0  0  0  0  0  0  0  0  0
   -1.7827    2.2298    1.2008 H   0  0  0  0  0  0  0  0  0  0  0  0
   -0.0840    2.2609    1.6881 H   0  0  0  0  0  0  0  0  0  0  0  0
   -0.5990    3.7539    0.2576 C   0  0  0  0  0  0  0  0  0  0  0  0
   -1.3296    3.9287   -0.5320 H   0  0  0  0  0  0  0  0  0  0  0  0
   -0.7603    4.4876    1.0477 H   0  0  0  0  0  0  0  0  0  0  0  0
    0.4075    3.8800   -0.1428 H   0  0  0  0  0  0  0  0  0  0  0  0
    0.3833   -0.0008    1.9525 C   0  0  0  0  0  0  0  0  0  0  0  0
    1.5803   -0.2304    2.1189 O   0  0  0  0  0  0  0  0  0  0  0  0
   -0.4170    0.3858    2.9541 N   0  0  0  0  0  0  0  0  0  0  0  0
   -1.3850    0.5669    2.7398 H   0  0  0  0  0  0  0  0  0  0  0  0
    0.0265    0.5600    4.3358 C   0  0  0  0  0  0  0  0  0  0  0  0
    0.8964    1.2200    4.3632 H   0  0  0  0  0  0  0  0  0  0  0  0
   -0.7726    0.9946    4.9382 H   0  0  0  0  0  0  0  0  0  0  0  0
    0.3119   -0.4069    4.7547 H   0  0  0  0  0  0  0  0  0  0  0  0
  5  6  2  0  0  0  0
  5  7  1  0  0  0  0
  2  3  1  0  0  0  0
  2  4  1  0  0  0  0
  2  5  1  0  0  0  0
  1  2  1  0  0  0  0
 24 25  2  0  0  0  0
 24 26  1  0  0  0  0
 20 21  1  0  0  0  0
 20 22  1  0  0  0  0
 20 23  1  0  0  0  0
 17 18  1  0  0  0  0
 17 19  1  0  0  0  0
 17 20  1  0  0  0  0
 13 14  1  0  0  0  0
 13 15  1  0  0  0  0
 13 16  1  0  0  0  0
 11 12  1  0  0  0  0
 11 13  1  0  0  0  0
 11 17  1  0  0  0  0
  9 10  1  0  0  0  0
  9 11  1  0  0  0  0
  9 24  1  0  0  0  0
  7  8  1  0  0  0  0
  7  9  1  0  0  0  0
 28 29  1  0  0  0  0
 28 30  1  0  0  0  0
 28 31  1  0  0  0  0
 26 27  1  0  0  0  0
 26 28  1  0  0  0  0
M  END
$$$$
default_name
  -OEChem-02102213163D

 31 30  0     1  0  0  0  0  0999 V2000
   -3.0760   -3.6390    1.5496 H   0  0  0  0  0  0  0  0  0  0  0  0
   -3.0940   -2.6290    1.1426 C   0  0  0  0  0  0  0  0  0  0  0  0
   -3.7160   -1.9930    1.7706 H   0  0  0  0  0  0  0  0  0  0  0  0
   -3.4880   -2.6500    0.1286 H   0  0  0  0  0  0  0  0  0  0  0  0
   -1.6860   -2.0850    1.1196 C   0  0  0  0  0  0  0  0  0  0  0  0
   -0.7540   -2.7700    1.5226 O   0  0  0  0  0  0  0  0  0  0  0  0
   -1.5320   -0.8490    0.6496 N   0  0  0  0  0  0  0  0  0  0  0  0
   -2.3500   -0.3360    0.3566 H   0  0  0  0  0  0  0  0  0  0  0  0
   -0.2470   -0.1410    0.5576 C   0  0  1  0  0  0  0  0  0  0  0  0
    0.4239   -0.7541   -0.0450 H   0  0  0  0  0  0  0  0  0  0  0  0
   -0.4317    1.2160   -0.1683 C   0  0  1  0  0  0  0  0  0  0  0  0
    0.4148    1.3353   -0.8473 H   0  0  0  0  0  0  0  0  0  0  0  0
   -1.7197    1.2612   -1.0125 C   0  0  0  0  0  0  0  0  0  0  0  0
   -2.6013    1.2215   -0.3702 H   0  0  0  0  0  0  0  0  0  0  0  0
   -1.7519    2.1743   -1.6047 H   0  0  0  0  0  0  0  0  0  0  0  0
   -1.7482    0.4163   -1.7015 H   0  0  0  0  0  0  0  0  0  0  0  0
   -0.3870    2.3911    0.8339 C   0  0  0  0  0  0  0  0  0  0  0  0
   -1.1614    2.2638    1.5916 H   0  0  0  0  0  0  0  0  0  0  0  0
    0.5824    2.3904    1.3322 H   0  0  0  0  0  0  0  0  0  0  0  0
   -0.5641    3.7679    0.1793 C   0  0  0  0  0  0  0  0  0  0  0  0
   -1.5634    3.8638   -0.2449 H   0  0  0  0  0  0  0  0  0  0  0  0
   -0.4316    4.5441    0.9333 H   0  0  0  0  0  0  0  0  0  0  0  0
    0.1799    3.9061   -0.6059 H   0  0  0  0  0  0  0  0  0  0  0  0
    0.3833   -0.0008    1.9525 C   0  0  0  0  0  0  0  0  0  0  0  0
    1.5803   -0.2304    2.1189 O   0  0  0  0  0  0  0  0  0  0  0  0
   -0.4170    0.3858    2.9541 N   0  0  0  0  0  0  0  0  0  0  0  0
   -1.3850    0.5669    2.7398 H   0  0  0  0  0  0  0  0  0  0  0  0
    0.0265    0.5600    4.3358 C   0  0  0  0  0  0  0  0  0  0  0  0
    0.8964    1.2200    4.3632 H   0  0  0  0  0  0  0  0  0  0  0  0
   -0.7726    0.9946    4.9382 H   0  0  0  0  0  0  0  0  0  0  0  0
    0.3119   -0.4069    4.7547 H   0  0  0  0  0  0  0  0  0  0  0  0
  5  6  2  0  0  0  0
  5  7  1  0  0  0  0
  2  3  1  0  0  0  0
  2  4  1  0  0  0  0
  2  5  1  0  0  0  0
  1  2  1  0  0  0  0
 24 25  2  0  0  0  0
 24 26  1  0  0  0  0
 20 21  1  0  0  0  0
 20 22  1  0  0  0  0
 20 23  1  0  0  0  0
 17 18  1  0  0  0  0
 17 19  1  0  0  0  0
 17 20  1  0  0  0  0
 13 14  1  0  0  0  0
 13 15  1  0  0  0  0
 13 16  1  0  0  0  0
 11 12  1  0  0  0  0
 11 13  1  0  0  0  0
 11 17  1  0  0  0  0
  9 10  1  0  0  0  0
  9 11  1  0  0  0  0
  9 24  1  0  0  0  0
  7  8  1  0  0  0  0
  7  9  1  0  0  0  0
 28 29  1  0  0  0  0
 28 30  1  0  0  0  0
 28 31  1  0  0  0  0
 26 27  1  0  0  0  0
 26 28  1  0  0  0  0
M  END
$$$$
default_name
  -OEChem-02102213163D

 31 30  0     1  0  0  0  0  0999 V2000
   -3.0760   -3.6390    1.5496 H   0  0  0  0  0  0  0  0  0  0  0  0
   -3.0940   -2.6290    1.1426 C   0  0  0  0  0  0  0  0  0  0  0  0
   -3.7160   -1.9930    1.7706 H   0  0  0  0  0  0  0  0  0  0  0  0
   -3.4880   -2.6500    0.1286 H   0  0  0  0  0  0  0  0  0  0  0  0
   -1.6860   -2.0850    1.1196 C   0  0  0  0  0  0  0  0  0  0  0  0
   -0.7540   -2.7700    1.5226 O   0  0  0  0  0  0  0  0  0  0  0  0
   -1.5320   -0.8490    0.6496 N   0  0  0  0  0  0  0  0  0  0  0  0
   -2.3500   -0.3360    0.3566 H   0  0  0  0  0  0  0  0  0  0  0  0
   -0.2470   -0.1410    0.5576 C   0  0  1  0  0  0  0  0  0  0  0  0
    0.4239   -0.7541   -0.0450 H   0  0  0  0  0  0  0  0  0  0  0  0
   -0.4317    1.2160   -0.1683 C   0  0  1  0  0  0  0  0  0  0  0  0
    0.4148    1.3353   -0.8473 H   0  0  0  0  0  0  0  0  0  0  0  0
   -1.7197    1.2612   -1.0125 C   0  0  0  0  0  0  0  0  0  0  0  0
   -2.6013    1.2215   -0.3702 H   0  0  0  0  0  0  0  0  0  0  0  0
   -1.7519    2.1743   -1.6047 H   0  0  0  0  0  0  0  0  0  0  0  0
   -1.7482    0.4163   -1.7015 H   0  0  0  0  0  0  0  0  0  0  0  0
   -0.3870    2.3911    0.8339 C   0  0  0  0  0  0  0  0  0  0  0  0
   -0.9641    2.1421    1.7255 H   0  0  0  0  0  0  0  0  0  0  0  0
    0.6479    2.5585    1.1322 H   0  0  0  0  0  0  0  0  0  0  0  0
   -0.9174    3.7121    0.2604 C   0  0  0  0  0  0  0  0  0  0  0  0
   -1.9825    3.6342    0.0430 H   0  0  0  0  0  0  0  0  0  0  0  0
   -0.7703    4.5066    0.9924 H   0  0  0  0  0  0  0  0  0  0  0  0
   -0.3769    3.9665   -0.6520 H   0  0  0  0  0  0  0  0  0  0  0  0
    0.3833   -0.0008    1.9525 C   0  0  0  0  0  0  0  0  0  0  0  0
    1.5803   -0.2304    2.1189 O   0  0  0  0  0  0  0  0  0  0  0  0
   -0.4170    0.3858    2.9541 N   0  0  0  0  0  0  0  0  0  0  0  0
   -1.3850    0.5669    2.7398 H   0  0  0  0  0  0  0  0  0  0  0  0
    0.0265    0.5600    4.3358 C   0  0  0  0  0  0  0  0  0  0  0  0
    0.8964    1.2200    4.3632 H   0  0  0  0  0  0  0  0  0  0  0  0
   -0.7726    0.9946    4.9382 H   0  0  0  0  0  0  0  0  0  0  0  0
    0.3119   -0.4069    4.7547 H   0  0  0  0  0  0  0  0  0  0  0  0
  5  6  2  0  0  0  0
  5  7  1  0  0  0  0
  2  3  1  0  0  0  0
  2  4  1  0  0  0  0
  2  5  1  0  0  0  0
  1  2  1  0  0  0  0
 24 25  2  0  0  0  0
 24 26  1  0  0  0  0
 20 21  1  0  0  0  0
 20 22  1  0  0  0  0
 20 23  1  0  0  0  0
 17 18  1  0  0  0  0
 17 19  1  0  0  0  0
 17 20  1  0  0  0  0
 13 14  1  0  0  0  0
 13 15  1  0  0  0  0
 13 16  1  0  0  0  0
 11 12  1  0  0  0  0
 11 13  1  0  0  0  0
 11 17  1  0  0  0  0
  9 10  1  0  0  0  0
  9 11  1  0  0  0  0
  9 24  1  0  0  0  0
  7  8  1  0  0  0  0
  7  9  1  0  0  0  0
 28 29  1  0  0  0  0
 28 30  1  0  0  0  0
 28 31  1  0  0  0  0
 26 27  1  0  0  0  0
 26 28  1  0  0  0  0
M  END
$$$$
default_name
  -OEChem-02102213163D

 31 30  0     1  0  0  0  0  0999 V2000
   -3.0760   -3.6390    1.5496 H   0  0  0  0  0  0  0  0  0  0  0  0
   -3.0940   -2.6290    1.1426 C   0  0  0  0  0  0  0  0  0  0  0  0
   -3.7160   -1.9930    1.7706 H   0  0  0  0  0  0  0  0  0  0  0  0
   -3.4880   -2.6500    0.1286 H   0  0  0  0  0  0  0  0  0  0  0  0
   -1.6860   -2.0850    1.1196 C   0  0  0  0  0  0  0  0  0  0  0  0
   -0.7540   -2.7700    1.5226 O   0  0  0  0  0  0  0  0  0  0  0  0
   -1.5320   -0.8490    0.6496 N   0  0  0  0  0  0  0  0  0  0  0  0
   -2.3500   -0.3360    0.3566 H   0  0  0  0  0  0  0  0  0  0  0  0
   -0.2470   -0.1410    0.5576 C   0  0  1  0  0  0  0  0  0  0  0  0
    0.4239   -0.7541   -0.0450 H   0  0  0  0  0  0  0  0  0  0  0  0
   -0.4317    1.2160   -0.1683 C   0  0  1  0  0  0  0  0  0  0  0  0
    0.4148    1.3353   -0.8473 H   0  0  0  0  0  0  0  0  0  0  0  0
   -1.7197    1.2612   -1.0125 C   0  0  0  0  0  0  0  0  0  0  0  0
   -2.6013    1.2215   -0.3702 H   0  0  0  0  0  0  0  0  0  0  0  0
   -1.7519    2.1743   -1.6047 H   0  0  0  0  0  0  0  0  0  0  0  0
   -1.7482    0.4163   -1.7015 H   0  0  0  0  0  0  0  0  0  0  0  0
   -0.3870    2.3911    0.8339 C   0  0  0  0  0  0  0  0  0  0  0  0
   -0.7268    2.0567    1.8150 H   0  0  0  0  0  0  0  0  0  0  0  0
    0.6436    2.7334    0.9273 H   0  0  0  0  0  0  0  0  0  0  0  0
   -1.2334    3.5984    0.4079 C   0  0  0  0  0  0  0  0  0  0  0  0
   -2.2922    3.3399    0.4019 H   0  0  0  0  0  0  0  0  0  0  0  0
   -1.0795    4.4131    1.1158 H   0  0  0  0  0  0  0  0  0  0  0  0
   -0.9340    3.9317   -0.5863 H   0  0  0  0  0  0  0  0  0  0  0  0
    0.3833   -0.0008    1.9525 C   0  0  0  0  0  0  0  0  0  0  0  0
    1.5803   -0.2304    2.1189 O   0  0  0  0  0  0  0  0  0  0  0  0
   -0.4170    0.3858    2.9541 N   0  0  0  0  0  0  0  0  0  0  0  0
   -1.3850    0.5669    2.7398 H   0  0  0  0  0  0  0  0  0  0  0  0
    0.0265    0.5600    4.3358 C   0  0  0  0  0  0  0  0  0  0  0  0
    0.8964    1.2200    4.3632 H   0  0  0  0  0  0  0  0  0  0  0  0
   -0.7726    0.9946    4.9382 H   0  0  0  0  0  0  0  0  0  0  0  0
    0.3119   -0.4069    4.7547 H   0  0  0  0  0  0  0  0  0  0  0  0
  5  6  2  0  0  0  0
  5  7  1  0  0  0  0
  2  3  1  0  0  0  0
  2  4  1  0  0  0  0
  2  5  1  0  0  0  0
  1  2  1  0  0  0  0
 24 25  2  0  0  0  0
 24 26  1  0  0  0  0
 20 21  1  0  0  0  0
 20 22  1  0  0  0  0
 20 23  1  0  0  0  0
 17 18  1  0  0  0  0
 17 19  1  0  0  0  0
 17 20  1  0  0  0  0
 13 14  1  0  0  0  0
 13 15  1  0  0  0  0
 13 16  1  0  0  0  0
 11 12  1  0  0  0  0
 11 13  1  0  0  0  0
 11 17  1  0  0  0  0
  9 10  1  0  0  0  0
  9 11  1  0  0  0  0
  9 24  1  0  0  0  0
  7  8  1  0  0  0  0
  7  9  1  0  0  0  0
 28 29  1  0  0  0  0
 28 30  1  0  0  0  0
 28 31  1  0  0  0  0
 26 27  1  0  0  0  0
 26 28  1  0  0  0  0
M  END
$$$$
default_name
  -OEChem-02102213163D

 31 30  0     1  0  0  0  0  0999 V2000
   -3.0760   -3.6390    1.5496 H   0  0  0  0  0  0  0  0  0  0  0  0
   -3.0940   -2.6290    1.1426 C   0  0  0  0  0  0  0  0  0  0  0  0
   -3.7160   -1.9930    1.7706 H   0  0  0  0  0  0  0  0  0  0  0  0
   -3.4880   -2.6500    0.1286 H   0  0  0  0  0  0  0  0  0  0  0  0
   -1.6860   -2.0850    1.1196 C   0  0  0  0  0  0  0  0  0  0  0  0
   -0.7540   -2.7700    1.5226 O   0  0  0  0  0  0  0  0  0  0  0  0
   -1.5320   -0.8490    0.6496 N   0  0  0  0  0  0  0  0  0  0  0  0
   -2.3500   -0.3360    0.3566 H   0  0  0  0  0  0  0  0  0  0  0  0
   -0.2470   -0.1410    0.5576 C   0  0  1  0  0  0  0  0  0  0  0  0
    0.4239   -0.7541   -0.0450 H   0  0  0  0  0  0  0  0  0  0  0  0
   -0.4317    1.2160   -0.1683 C   0  0  1  0  0  0  0  0  0  0  0  0
    0.4148    1.3353   -0.8473 H   0  0  0  0  0  0  0  0  0  0  0  0
   -1.7197    1.2612   -1.0125 C   0  0  0  0  0  0  0  0  0  0  0  0
   -2.6013    1.2215   -0.3702 H   0  0  0  0  0  0  0  0  0  0  0  0
   -1.7519    2.1743   -1.6047 H   0  0  0  0  0  0  0  0  0  0  0  0
   -1.7482    0.4163   -1.7015 H   0  0  0  0  0  0  0  0  0  0  0  0
   -0.3870    2.3911    0.8339 C   0  0  0  0  0  0  0  0  0  0  0  0
   -0.4655    2.0133    1.8542 H   0  0  0  0  0  0  0  0  0  0  0  0
    0.5697    2.9032    0.7315 H   0  0  0  0  0  0  0  0  0  0  0  0
   -1.4905    3.4343    0.6117 C   0  0  0  0  0  0  0  0  0  0  0  0
   -2.4712    3.0010    0.8073 H   0  0  0  0  0  0  0  0  0  0  0  0
   -1.3382    4.2699    1.2952 H   0  0  0  0  0  0  0  0  0  0  0  0
   -1.4533    3.8041   -0.4136 H   0  0  0  0  0  0  0  0  0  0  0  0
    0.3833   -0.0008    1.9525 C   0  0  0  0  0  0  0  0  0  0  0  0
    1.5803   -0.2304    2.1189 O   0  0  0  0  0  0  0  0  0  0  0  0
   -0.4170    0.3858    2.9541 N   0  0  0  0  0  0  0  0  0  0  0  0
   -1.3850    0.5669    2.7398 H   0  0  0  0  0  0  0  0  0  0  0  0
    0.0265    0.5600    4.3358 C   0  0  0  0  0  0  0  0  0  0  0  0
    0.8964    1.2200    4.3632 H   0  0  0  0  0  0  0  0  0  0  0  0
   -0.7726    0.9946    4.9382 H   0  0  0  0  0  0  0  0  0  0  0  0
    0.3119   -0.4069    4.7547 H   0  0  0  0  0  0  0  0  0  0  0  0
  5  6  2  0  0  0  0
  5  7  1  0  0  0  0
  2  3  1  0  0  0  0
  2  4  1  0  0  0  0
  2  5  1  0  0  0  0
  1  2  1  0  0  0  0
 24 25  2  0  0  0  0
 24 26  1  0  0  0  0
 20 21  1  0  0  0  0
 20 22  1  0  0  0  0
 20 23  1  0  0  0  0
 17 18  1  0  0  0  0
 17 19  1  0  0  0  0
 17 20  1  0  0  0  0
 13 14  1  0  0  0  0
 13 15  1  0  0  0  0
 13 16  1  0  0  0  0
 11 12  1  0  0  0  0
 11 13  1  0  0  0  0
 11 17  1  0  0  0  0
  9 10  1  0  0  0  0
  9 11  1  0  0  0  0
  9 24  1  0  0  0  0
  7  8  1  0  0  0  0
  7  9  1  0  0  0  0
 28 29  1  0  0  0  0
 28 30  1  0  0  0  0
 28 31  1  0  0  0  0
 26 27  1  0  0  0  0
 26 28  1  0  0  0  0
M  END
$$$$
default_name
  -OEChem-02102213163D

 31 30  0     1  0  0  0  0  0999 V2000
   -3.0760   -3.6390    1.5496 H   0  0  0  0  0  0  0  0  0  0  0  0
   -3.0940   -2.6290    1.1426 C   0  0  0  0  0  0  0  0  0  0  0  0
   -3.7160   -1.9930    1.7706 H   0  0  0  0  0  0  0  0  0  0  0  0
   -3.4880   -2.6500    0.1286 H   0  0  0  0  0  0  0  0  0  0  0  0
   -1.6860   -2.0850    1.1196 C   0  0  0  0  0  0  0  0  0  0  0  0
   -0.7540   -2.7700    1.5226 O   0  0  0  0  0  0  0  0  0  0  0  0
   -1.5320   -0.8490    0.6496 N   0  0  0  0  0  0  0  0  0  0  0  0
   -2.3500   -0.3360    0.3566 H   0  0  0  0  0  0  0  0  0  0  0  0
   -0.2470   -0.1410    0.5576 C   0  0  1  0  0  0  0  0  0  0  0  0
    0.4239   -0.7541   -0.0450 H   0  0  0  0  0  0  0  0  0  0  0  0
   -0.4317    1.2160   -0.1683 C   0  0  1  0  0  0  0  0  0  0  0  0
    0.4148    1.3353   -0.8473 H   0  0  0  0  0  0  0  0  0  0  0  0
   -1.7197    1.2612   -1.0125 C   0  0  0  0  0  0  0  0  0  0  0  0
   -2.6013    1.2215   -0.3702 H   0  0  0  0  0  0  0  0  0  0  0  0
   -1.7519    2.1743   -1.6047 H   0  0  0  0  0  0  0  0  0  0  0  0
   -1.7482    0.4163   -1.7015 H   0  0  0  0  0  0  0  0  0  0  0  0
   -0.3870    2.3911    0.8339 C   0  0  0  0  0  0  0  0  0  0  0  0
   -0.1982    2.0150    1.8403 H   0  0  0  0  0  0  0  0  0  0  0  0
    0.4314    3.0562    0.5583 H   0  0  0  0  0  0  0  0  0  0  0  0
   -1.6712    3.2312    0.8579 C   0  0  0  0  0  0  0  0  0  0  0  0
   -2.5074    2.6406    1.2315 H   0  0  0  0  0  0  0  0  0  0  0  0
   -1.5287    4.0868    1.5184 H   0  0  0  0  0  0  0  0  0  0  0  0
   -1.8995    3.5923   -0.1454 H   0  0  0  0  0  0  0  0  0  0  0  0
    0.3833   -0.0008    1.9525 C   0  0  0  0  0  0  0  0  0  0  0  0
    1.5803   -0.2304    2.1189 O   0  0  0  0  0  0  0  0  0  0  0  0
   -0.4170    0.3858    2.9541 N   0  0  0  0  0  0  0  0  0  0  0  0
   -1.3850    0.5669    2.7398 H   0  0  0  0  0  0  0  0  0  0  0  0
    0.0265    0.5600    4.3358 C   0  0  0  0  0  0  0  0  0  0  0  0
    0.8964    1.2200    4.3632 H   0  0  0  0  0  0  0  0  0  0  0  0
   -0.7726    0.9946    4.9382 H   0  0  0  0  0  0  0  0  0  0  0  0
    0.3119   -0.4069    4.7547 H   0  0  0  0  0  0  0  0  0  0  0  0
  5  6  2  0  0  0  0
  5  7  1  0  0  0  0
  2  3  1  0  0  0  0
  2  4  1  0  0  0  0
  2  5  1  0  0  0  0
  1  2  1  0  0  0  0
 24 25  2  0  0  0  0
 24 26  1  0  0  0  0
 20 21  1  0  0  0  0
 20 22  1  0  0  0  0
 20 23  1  0  0  0  0
 17 18  1  0  0  0  0
 17 19  1  0  0  0  0
 17 20  1  0  0  0  0
 13 14  1  0  0  0  0
 13 15  1  0  0  0  0
 13 16  1  0  0  0  0
 11 12  1  0  0  0  0
 11 13  1  0  0  0  0
 11 17  1  0  0  0  0
  9 10  1  0  0  0  0
  9 11  1  0  0  0  0
  9 24  1  0  0  0  0
  7  8  1  0  0  0  0
  7  9  1  0  0  0  0
 28 29  1  0  0  0  0
 28 30  1  0  0  0  0
 28 31  1  0  0  0  0
 26 27  1  0  0  0  0
 26 28  1  0  0  0  0
M  END
$$$$
default_name
  -OEChem-02102213163D

 31 30  0     1  0  0  0  0  0999 V2000
   -3.0760   -3.6390    1.5496 H   0  0  0  0  0  0  0  0  0  0  0  0
   -3.0940   -2.6290    1.1426 C   0  0  0  0  0  0  0  0  0  0  0  0
   -3.7160   -1.9930    1.7706 H   0  0  0  0  0  0  0  0  0  0  0  0
   -3.4880   -2.6500    0.1286 H   0  0  0  0  0  0  0  0  0  0  0  0
   -1.6860   -2.0850    1.1196 C   0  0  0  0  0  0  0  0  0  0  0  0
   -0.7540   -2.7700    1.5226 O   0  0  0  0  0  0  0  0  0  0  0  0
   -1.5320   -0.8490    0.6496 N   0  0  0  0  0  0  0  0  0  0  0  0
   -2.3500   -0.3360    0.3566 H   0  0  0  0  0  0  0  0  0  0  0  0
   -0.2470   -0.1410    0.5576 C   0  0  1  0  0  0  0  0  0  0  0  0
    0.4239   -0.7541   -0.0450 H   0  0  0  0  0  0  0  0  0  0  0  0
   -0.4317    1.2160   -0.1683 C   0  0  1  0  0  0  0  0  0  0  0  0
    0.4148    1.3353   -0.8473 H   0  0  0  0  0  0  0  0  0  0  0  0
   -1.7197    1.2612   -1.0125 C   0  0  0  0  0  0  0  0  0  0  0  0
   -2.6013    1.2215   -0.3702 H   0  0  0  0  0  0  0  0  0  0  0  0
   -1.7519    2.1743   -1.6047 H   0  0  0  0  0  0  0  0  0  0  0  0
   -1.7482    0.4163   -1.7015 H   0  0  0  0  0  0  0  0  0  0  0  0
   -0.3870    2.3911    0.8339 C   0  0  0  0  0  0  0  0  0  0  0  0
    0.0569    2.0616    1.7743 H   0  0  0  0  0  0  0  0  0  0  0  0
    0.2379    3.1821    0.4193 H   0  0  0  0  0  0  0  0  0  0  0  0
   -1.7631    3.0028    1.1298 C   0  0  0  0  0  0  0  0  0  0  0  0
   -2.3984    2.2831    1.6458 H   0  0  0  0  0  0  0  0  0  0  0  0
   -1.6381    3.8763    1.7701 H   0  0  0  0  0  0  0  0  0  0  0  0
   -2.2422    3.3109    0.1998 H   0  0  0  0  0  0  0  0  0  0  0  0
    0.3833   -0.0008    1.9525 C   0  0  0  0  0  0  0  0  0  0  0  0
    1.5803   -0.2304    2.1189 O   0  0  0  0  0  0  0  0  0  0  0  0
   -0.4170    0.3858    2.9541 N   0  0  0  0  0  0  0  0  0  0  0  0
   -1.3850    0.5669    2.7398 H   0  0  0  0  0  0  0  0  0  0  0  0
    0.0265    0.5600    4.3358 C   0  0  0  0  0  0  0  0  0  0  0  0
    0.8964    1.2200    4.3632 H   0  0  0  0  0  0  0  0  0  0  0  0
   -0.7726    0.9946    4.9382 H   0  0  0  0  0  0  0  0  0  0  0  0
    0.3119   -0.4069    4.7547 H   0  0  0  0  0  0  0  0  0  0  0  0
  5  6  2  0  0  0  0
  5  7  1  0  0  0  0
  2  3  1  0  0  0  0
  2  4  1  0  0  0  0
  2  5  1  0  0  0  0
  1  2  1  0  0  0  0
 24 25  2  0  0  0  0
 24 26  1  0  0  0  0
 20 21  1  0  0  0  0
 20 22  1  0  0  0  0
 20 23  1  0  0  0  0
 17 18  1  0  0  0  0
 17 19  1  0  0  0  0
 17 20  1  0  0  0  0
 13 14  1  0  0  0  0
 13 15  1  0  0  0  0
 13 16  1  0  0  0  0
 11 12  1  0  0  0  0
 11 13  1  0  0  0  0
 11 17  1  0  0  0  0
  9 10  1  0  0  0  0
  9 11  1  0  0  0  0
  9 24  1  0  0  0  0
  7  8  1  0  0  0  0
  7  9  1  0  0  0  0
 28 29  1  0  0  0  0
 28 30  1  0  0  0  0
 28 31  1  0  0  0  0
 26 27  1  0  0  0  0
 26 28  1  0  0  0  0
M  END
$$$$
default_name
  -OEChem-02102213163D

 31 30  0     1  0  0  0  0  0999 V2000
   -3.0760   -3.6390    1.5496 H   0  0  0  0  0  0  0  0  0  0  0  0
   -3.0940   -2.6290    1.1426 C   0  0  0  0  0  0  0  0  0  0  0  0
   -3.7160   -1.9930    1.7706 H   0  0  0  0  0  0  0  0  0  0  0  0
   -3.4880   -2.6500    0.1286 H   0  0  0  0  0  0  0  0  0  0  0  0
   -1.6860   -2.0850    1.1196 C   0  0  0  0  0  0  0  0  0  0  0  0
   -0.7540   -2.7700    1.5226 O   0  0  0  0  0  0  0  0  0  0  0  0
   -1.5320   -0.8490    0.6496 N   0  0  0  0  0  0  0  0  0  0  0  0
   -2.3500   -0.3360    0.3566 H   0  0  0  0  0  0  0  0  0  0  0  0
   -0.2470   -0.1410    0.5576 C   0  0  1  0  0  0  0  0  0  0  0  0
    0.4239   -0.7541   -0.0450 H   0  0  0  0  0  0  0  0  0  0  0  0
   -0.4317    1.2160   -0.1683 C   0  0  1  0  0  0  0  0  0  0  0  0
    0.4148    1.3353   -0.8473 H   0  0  0  0  0  0  0  0  0  0  0  0
   -1.7197    1.2612   -1.0125 C   0  0  0  0  0  0  0  0  0  0  0  0
   -2.6013    1.2215   -0.3702 H   0  0  0  0  0  0  0  0  0  0  0  0
   -1.7519    2.1743   -1.6047 H   0  0  0  0  0  0  0  0  0  0  0  0
   -1.7482    0.4163   -1.7015 H   0  0  0  0  0  0  0  0  0  0  0  0
   -0.3870    2.3911    0.8339 C   0  0  0  0  0  0  0  0  0  0  0  0
    0.2826    2.1500    1.6606 H   0  0  0  0  0  0  0  0  0  0  0  0
    0.0026    3.2722    0.3241 H   0  0  0  0  0  0  0  0  0  0  0  0
   -1.7600    2.7647    1.4088 C   0  0  0  0  0  0  0  0  0  0  0  0
   -2.1515    1.9531    2.0218 H   0  0  0  0  0  0  0  0  0  0  0  0
   -1.6588    3.6528    2.0331 H   0  0  0  0  0  0  0  0  0  0  0  0
   -2.4580    2.9790    0.5987 H   0  0  0  0  0  0  0  0  0  0  0  0
    0.3833   -0.0008    1.9525 C   0  0  0  0  0  0  0  0  0  0  0  0
    1.5803   -0.2304    2.1189 O   0  0  0  0  0  0  0  0  0  0  0  0
   -0.4170    0.3858    2.9541 N   0  0  0  0  0  0  0  0  0  0  0  0
   -1.3850    0.5669    2.7398 H   0  0  0  0  0  0  0  0  0  0  0  0
    0.0265    0.5600    4.3358 C   0  0  0  0  0  0  0  0  0  0  0  0
    0.8964    1.2200    4.3632 H   0  0  0  0  0  0  0  0  0  0  0  0
   -0.7726    0.9946    4.9382 H   0  0  0  0  0  0  0  0  0  0  0  0
    0.3119   -0.4069    4.7547 H   0  0  0  0  0  0  0  0  0  0  0  0
  5  6  2  0  0  0  0
  5  7  1  0  0  0  0
  2  3  1  0  0  0  0
  2  4  1  0  0  0  0
  2  5  1  0  0  0  0
  1  2  1  0  0  0  0
 24 25  2  0  0  0  0
 24 26  1  0  0  0  0
 20 21  1  0  0  0  0
 20 22  1  0  0  0  0
 20 23  1  0  0  0  0
 17 18  1  0  0  0  0
 17 19  1  0  0  0  0
 17 20  1  0  0  0  0
 13 14  1  0  0  0  0
 13 15  1  0  0  0  0
 13 16  1  0  0  0  0
 11 12  1  0  0  0  0
 11 13  1  0  0  0  0
 11 17  1  0  0  0  0
  9 10  1  0  0  0  0
  9 11  1  0  0  0  0
  9 24  1  0  0  0  0
  7  8  1  0  0  0  0
  7  9  1  0  0  0  0
 28 29  1  0  0  0  0
 28 30  1  0  0  0  0
 28 31  1  0  0  0  0
 26 27  1  0  0  0  0
 26 28  1  0  0  0  0
M  END
$$$$
default_name
  -OEChem-02102213163D

 31 30  0     1  0  0  0  0  0999 V2000
   -3.0760   -3.6390    1.5496 H   0  0  0  0  0  0  0  0  0  0  0  0
   -3.0940   -2.6290    1.1426 C   0  0  0  0  0  0  0  0  0  0  0  0
   -3.7160   -1.9930    1.7706 H   0  0  0  0  0  0  0  0  0  0  0  0
   -3.4880   -2.6500    0.1286 H   0  0  0  0  0  0  0  0  0  0  0  0
   -1.6860   -2.0850    1.1196 C   0  0  0  0  0  0  0  0  0  0  0  0
   -0.7540   -2.7700    1.5226 O   0  0  0  0  0  0  0  0  0  0  0  0
   -1.5320   -0.8490    0.6496 N   0  0  0  0  0  0  0  0  0  0  0  0
   -2.3500   -0.3360    0.3566 H   0  0  0  0  0  0  0  0  0  0  0  0
   -0.2470   -0.1410    0.5576 C   0  0  1  0  0  0  0  0  0  0  0  0
    0.4239   -0.7541   -0.0450 H   0  0  0  0  0  0  0  0  0  0  0  0
   -0.4317    1.2160   -0.1683 C   0  0  1  0  0  0  0  0  0  0  0  0
    0.4148    1.3353   -0.8473 H   0  0  0  0  0  0  0  0  0  0  0  0
   -1.7197    1.2612   -1.0125 C   0  0  0  0  0  0  0  0  0  0  0  0
   -2.6013    1.2215   -0.3702 H   0  0  0  0  0  0  0  0  0  0  0  0
   -1.7519    2.1743   -1.6047 H   0  0  0  0  0  0  0  0  0  0  0  0
   -1.7482    0.4163   -1.7015 H   0  0  0  0  0  0  0  0  0  0  0  0
   -0.3870    2.3911    0.8339 C   0  0  0  0  0  0  0  0  0  0  0  0
    0.4633    2.2741    1.5070 H   0  0  0  0  0  0  0  0  0  0  0  0
   -0.2586    3.3205    0.2791 H   0  0  0  0  0  0  0  0  0  0  0  0
   -1.6622    2.5332    1.6760 C   0  0  0  0  0  0  0  0  0  0  0  0
   -1.7837    1.6729    2.3339 H   0  0  0  0  0  0  0  0  0  0  0  0
   -1.5895    3.4314    2.2897 H   0  0  0  0  0  0  0  0  0  0  0  0
   -2.5321    2.6191    1.0239 H   0  0  0  0  0  0  0  0  0  0  0  0
    0.3833   -0.0008    1.9525 C   0  0  0  0  0  0  0  0  0  0  0  0
    1.5803   -0.2304    2.1189 O   0  0  0  0  0  0  0  0  0  0  0  0
   -0.4170    0.3858    2.9541 N   0  0  0  0  0  0  0  0  0  0  0  0
   -1.3850    0.5669    2.7398 H   0  0  0  0  0  0  0  0  0  0  0  0
    0.0265    0.5600    4.3358 C   0  0  0  0  0  0  0  0  0  0  0  0
    0.8964    1.2200    4.3632 H   0  0  0  0  0  0  0  0  0  0  0  0
   -0.7726    0.9946    4.9382 H   0  0  0  0  0  0  0  0  0  0  0  0
    0.3119   -0.4069    4.7547 H   0  0  0  0  0  0  0  0  0  0  0  0
  5  6  2  0  0  0  0
  5  7  1  0  0  0  0
  2  3  1  0  0  0  0
  2  4  1  0  0  0  0
  2  5  1  0  0  0  0
  1  2  1  0  0  0  0
 24 25  2  0  0  0  0
 24 26  1  0  0  0  0
 20 21  1  0  0  0  0
 20 22  1  0  0  0  0
 20 23  1  0  0  0  0
 17 18  1  0  0  0  0
 17 19  1  0  0  0  0
 17 20  1  0  0  0  0
 13 14  1  0  0  0  0
 13 15  1  0  0  0  0
 13 16  1  0  0  0  0
 11 12  1  0  0  0  0
 11 13  1  0  0  0  0
 11 17  1  0  0  0  0
  9 10  1  0  0  0  0
  9 11  1  0  0  0  0
  9 24  1  0  0  0  0
  7  8  1  0  0  0  0
  7  9  1  0  0  0  0
 28 29  1  0  0  0  0
 28 30  1  0  0  0  0
 28 31  1  0  0  0  0
 26 27  1  0  0  0  0
 26 28  1  0  0  0  0
M  END
$$$$
default_name
  -OEChem-02102213163D

 31 30  0     1  0  0  0  0  0999 V2000
   -3.0760   -3.6390    1.5496 H   0  0  0  0  0  0  0  0  0  0  0  0
   -3.0940   -2.6290    1.1426 C   0  0  0  0  0  0  0  0  0  0  0  0
   -3.7160   -1.9930    1.7706 H   0  0  0  0  0  0  0  0  0  0  0  0
   -3.4880   -2.6500    0.1286 H   0  0  0  0  0  0  0  0  0  0  0  0
   -1.6860   -2.0850    1.1196 C   0  0  0  0  0  0  0  0  0  0  0  0
   -0.7540   -2.7700    1.5226 O   0  0  0  0  0  0  0  0  0  0  0  0
   -1.5320   -0.8490    0.6496 N   0  0  0  0  0  0  0  0  0  0  0  0
   -2.3500   -0.3360    0.3566 H   0  0  0  0  0  0  0  0  0  0  0  0
   -0.2470   -0.1410    0.5576 C   0  0  1  0  0  0  0  0  0  0  0  0
    0.4239   -0.7541   -0.0450 H   0  0  0  0  0  0  0  0  0  0  0  0
   -0.4317    1.2160   -0.1683 C   0  0  1  0  0  0  0  0  0  0  0  0
    0.4148    1.3353   -0.8473 H   0  0  0  0  0  0  0  0  0  0  0  0
   -1.7197    1.2612   -1.0125 C   0  0  0  0  0  0  0  0  0  0  0  0
   -2.6013    1.2215   -0.3702 H   0  0  0  0  0  0  0  0  0  0  0  0
   -1.7519    2.1743   -1.6047 H   0  0  0  0  0  0  0  0  0  0  0  0
   -1.7482    0.4163   -1.7015 H   0  0  0  0  0  0  0  0  0  0  0  0
   -0.3870    2.3911    0.8339 C   0  0  0  0  0  0  0  0  0  0  0  0
    0.5869    2.4255    1.3241 H   0  0  0  0  0  0  0  0  0  0  0  0
   -0.5279    3.3236    0.2874 H   0  0  0  0  0  0  0  0  0  0  0  0
   -1.4762    2.3240    1.9130 C   0  0  0  0  0  0  0  0  0  0  0  0
   -1.3199    1.4617    2.5609 H   0  0  0  0  0  0  0  0  0  0  0  0
   -1.4350    3.2272    2.5221 H   0  0  0  0  0  0  0  0  0  0  0  0
   -2.4597    2.2559    1.4466 H   0  0  0  0  0  0  0  0  0  0  0  0
    0.3833   -0.0008    1.9525 C   0  0  0  0  0  0  0  0  0  0  0  0
    1.5803   -0.2304    2.1189 O   0  0  0  0  0  0  0  0  0  0  0  0
   -0.4170    0.3858    2.9541 N   0  0  0  0  0  0  0  0  0  0  0  0
   -1.3850    0.5669    2.7398 H   0  0  0  0  0  0  0  0  0  0  0  0
    0.0265    0.5600    4.3358 C   0  0  0  0  0  0  0  0  0  0  0  0
    0.8964    1.2200    4.3632 H   0  0  0  0  0  0  0  0  0  0  0  0
   -0.7726    0.9946    4.9382 H   0  0  0  0  0  0  0  0  0  0  0  0
    0.3119   -0.4069    4.7547 H   0  0  0  0  0  0  0  0  0  0  0  0
  5  6  2  0  0  0  0
  5  7  1  0  0  0  0
  2  3  1  0  0  0  0
  2  4  1  0  0  0  0
  2  5  1  0  0  0  0
  1  2  1  0  0  0  0
 24 25  2  0  0  0  0
 24 26  1  0  0  0  0
 20 21  1  0  0  0  0
 20 22  1  0  0  0  0
 20 23  1  0  0  0  0
 17 18  1  0  0  0  0
 17 19  1  0  0  0  0
 17 20  1  0  0  0  0
 13 14  1  0  0  0  0
 13 15  1  0  0  0  0
 13 16  1  0  0  0  0
 11 12  1  0  0  0  0
 11 13  1  0  0  0  0
 11 17  1  0  0  0  0
  9 10  1  0  0  0  0
  9 11  1  0  0  0  0
  9 24  1  0  0  0  0
  7  8  1  0  0  0  0
  7  9  1  0  0  0  0
 28 29  1  0  0  0  0
 28 30  1  0  0  0  0
 28 31  1  0  0  0  0
 26 27  1  0  0  0  0
 26 28  1  0  0  0  0
M  END
$$$$
default_name
  -OEChem-02102213163D

 31 30  0     1  0  0  0  0  0999 V2000
   -3.0760   -3.6390    1.5496 H   0  0  0  0  0  0  0  0  0  0  0  0
   -3.0940   -2.6290    1.1426 C   0  0  0  0  0  0  0  0  0  0  0  0
   -3.7160   -1.9930    1.7706 H   0  0  0  0  0  0  0  0  0  0  0  0
   -3.4880   -2.6500    0.1286 H   0  0  0  0  0  0  0  0  0  0  0  0
   -1.6860   -2.0850    1.1196 C   0  0  0  0  0  0  0  0  0  0  0  0
   -0.7540   -2.7700    1.5226 O   0  0  0  0  0  0  0  0  0  0  0  0
   -1.5320   -0.8490    0.6496 N   0  0  0  0  0  0  0  0  0  0  0  0
   -2.3500   -0.3360    0.3566 H   0  0  0  0  0  0  0  0  0  0  0  0
   -0.2470   -0.1410    0.5576 C   0  0  1  0  0  0  0  0  0  0  0  0
    0.4239   -0.7541   -0.0450 H   0  0  0  0  0  0  0  0  0  0  0  0
   -0.4317    1.2160   -0.1683 C   0  0  1  0  0  0  0  0  0  0  0  0
    0.4148    1.3353   -0.8473 H   0  0  0  0  0  0  0  0  0  0  0  0
   -1.7197    1.2612   -1.0125 C   0  0  0  0  0  0  0  0  0  0  0  0
   -2.6013    1.2215   -0.3702 H   0  0  0  0  0  0  0  0  0  0  0  0
   -1.7519    2.1743   -1.6047 H   0  0  0  0  0  0  0  0  0  0  0  0
   -1.7482    0.4163   -1.7015 H   0  0  0  0  0  0  0  0  0  0  0  0
   -0.3870    2.3911    0.8339 C   0  0  0  0  0  0  0  0  0  0  0  0
    0.6448    2.5938    1.1241 H   0  0  0  0  0  0  0  0  0  0  0  0
   -0.7869    3.2814    0.3485 H   0  0  0  0  0  0  0  0  0  0  0  0
   -1.2148    2.1513    2.1038 C   0  0  0  0  0  0  0  0  0  0  0  0
   -0.7917    1.3338    2.6872 H   0  0  0  0  0  0  0  0  0  0  0  0
   -1.2056    3.0543    2.7147 H   0  0  0  0  0  0  0  0  0  0  0  0
   -2.2455    1.9140    1.8379 H   0  0  0  0  0  0  0  0  0  0  0  0
    0.3833   -0.0008    1.9525 C   0  0  0  0  0  0  0  0  0  0  0  0
    1.5803   -0.2304    2.1189 O   0  0  0  0  0  0  0  0  0  0  0  0
   -0.4170    0.3858    2.9541 N   0  0  0  0  0  0  0  0  0  0  0  0
   -1.3850    0.5669    2.7398 H   0  0  0  0  0  0  0  0  0  0  0  0
    0.0265    0.5600    4.3358 C   0  0  0  0  0  0  0  0  0  0  0  0
    0.8964    1.2200    4.3632 H   0  0  0  0  0  0  0  0  0  0  0  0
   -0.7726    0.9946    4.9382 H   0  0  0  0  0  0  0  0  0  0  0  0
    0.3119   -0.4069    4.7547 H   0  0  0  0  0  0  0  0  0  0  0  0
  5  6  2  0  0  0  0
  5  7  1  0  0  0  0
  2  3  1  0  0  0  0
  2  4  1  0  0  0  0
  2  5  1  0  0  0  0
  1  2  1  0  0  0  0
 24 25  2  0  0  0  0
 24 26  1  0  0  0  0
 20 21  1  0  0  0  0
 20 22  1  0  0  0  0
 20 23  1  0  0  0  0
 17 18  1  0  0  0  0
 17 19  1  0  0  0  0
 17 20  1  0  0  0  0
 13 14  1  0  0  0  0
 13 15  1  0  0  0  0
 13 16  1  0  0  0  0
 11 12  1  0  0  0  0
 11 13  1  0  0  0  0
 11 17  1  0  0  0  0
  9 10  1  0  0  0  0
  9 11  1  0  0  0  0
  9 24  1  0  0  0  0
  7  8  1  0  0  0  0
  7  9  1  0  0  0  0
 28 29  1  0  0  0  0
 28 30  1  0  0  0  0
 28 31  1  0  0  0  0
 26 27  1  0  0  0  0
 26 28  1  0  0  0  0
M  END
$$$$
default_name
  -OEChem-02102213163D

 31 30  0     1  0  0  0  0  0999 V2000
   -3.0760   -3.6390    1.5496 H   0  0  0  0  0  0  0  0  0  0  0  0
   -3.0940   -2.6290    1.1426 C   0  0  0  0  0  0  0  0  0  0  0  0
   -3.7160   -1.9930    1.7706 H   0  0  0  0  0  0  0  0  0  0  0  0
   -3.4880   -2.6500    0.1286 H   0  0  0  0  0  0  0  0  0  0  0  0
   -1.6860   -2.0850    1.1196 C   0  0  0  0  0  0  0  0  0  0  0  0
   -0.7540   -2.7700    1.5226 O   0  0  0  0  0  0  0  0  0  0  0  0
   -1.5320   -0.8490    0.6496 N   0  0  0  0  0  0  0  0  0  0  0  0
   -2.3500   -0.3360    0.3566 H   0  0  0  0  0  0  0  0  0  0  0  0
   -0.2470   -0.1410    0.5576 C   0  0  1  0  0  0  0  0  0  0  0  0
    0.4239   -0.7541   -0.0450 H   0  0  0  0  0  0  0  0  0  0  0  0
   -0.4317    1.2160   -0.1683 C   0  0  1  0  0  0  0  0  0  0  0  0
    0.4148    1.3353   -0.8473 H   0  0  0  0  0  0  0  0  0  0  0  0
   -1.7197    1.2612   -1.0125 C   0  0  0  0  0  0  0  0  0  0  0  0
   -2.6013    1.2215   -0.3702 H   0  0  0  0  0  0  0  0  0  0  0  0
   -1.7519    2.1743   -1.6047 H   0  0  0  0  0  0  0  0  0  0  0  0
   -1.7482    0.4163   -1.7015 H   0  0  0  0  0  0  0  0  0  0  0  0
   -0.3870    2.3911    0.8339 C   0  0  0  0  0  0  0  0  0  0  0  0
    0.6331    2.7675    0.9209 H   0  0  0  0  0  0  0  0  0  0  0  0
   -1.0179    3.1966    0.4582 H   0  0  0  0  0  0  0  0  0  0  0  0
   -0.8958    2.0270    2.2353 C   0  0  0  0  0  0  0  0  0  0  0  0
   -0.2352    1.2981    2.7044 H   0  0  0  0  0  0  0  0  0  0  0  0
   -0.9172    2.9242    2.8543 H   0  0  0  0  0  0  0  0  0  0  0  0
   -1.9042    1.6168    2.1712 H   0  0  0  0  0  0  0  0  0  0  0  0
    0.3833   -0.0008    1.9525 C   0  0  0  0  0  0  0  0  0  0  0  0
    1.5803   -0.2304    2.1189 O   0  0  0  0  0  0  0  0  0  0  0  0
   -0.4170    0.3858    2.9541 N   0  0  0  0  0  0  0  0  0  0  0  0
   -1.3850    0.5669    2.7398 H   0  0  0  0  0  0  0  0  0  0  0  0
    0.0265    0.5600    4.3358 C   0  0  0  0  0  0  0  0  0  0  0  0
    0.8964    1.2200    4.3632 H   0  0  0  0  0  0  0  0  0  0  0  0
   -0.7726    0.9946    4.9382 H   0  0  0  0  0  0  0  0  0  0  0  0
    0.3119   -0.4069    4.7547 H   0  0  0  0  0  0  0  0  0  0  0  0
  5  6  2  0  0  0  0
  5  7  1  0  0  0  0
  2  3  1  0  0  0  0
  2  4  1  0  0  0  0
  2  5  1  0  0  0  0
  1  2  1  0  0  0  0
 24 25  2  0  0  0  0
 24 26  1  0  0  0  0
 20 21  1  0  0  0  0
 20 22  1  0  0  0  0
 20 23  1  0  0  0  0
 17 18  1  0  0  0  0
 17 19  1  0  0  0  0
 17 20  1  0  0  0  0
 13 14  1  0  0  0  0
 13 15  1  0  0  0  0
 13 16  1  0  0  0  0
 11 12  1  0  0  0  0
 11 13  1  0  0  0  0
 11 17  1  0  0  0  0
  9 10  1  0  0  0  0
  9 11  1  0  0  0  0
  9 24  1  0  0  0  0
  7  8  1  0  0  0  0
  7  9  1  0  0  0  0
 28 29  1  0  0  0  0
 28 30  1  0  0  0  0
 28 31  1  0  0  0  0
 26 27  1  0  0  0  0
 26 28  1  0  0  0  0
M  END
$$$$
default_name
  -OEChem-02102213163D

 31 30  0     1  0  0  0  0  0999 V2000
   -3.0760   -3.6390    1.5496 H   0  0  0  0  0  0  0  0  0  0  0  0
   -3.0940   -2.6290    1.1426 C   0  0  0  0  0  0  0  0  0  0  0  0
   -3.7160   -1.9930    1.7706 H   0  0  0  0  0  0  0  0  0  0  0  0
   -3.4880   -2.6500    0.1286 H   0  0  0  0  0  0  0  0  0  0  0  0
   -1.6860   -2.0850    1.1196 C   0  0  0  0  0  0  0  0  0  0  0  0
   -0.7540   -2.7700    1.5226 O   0  0  0  0  0  0  0  0  0  0  0  0
   -1.5320   -0.8490    0.6496 N   0  0  0  0  0  0  0  0  0  0  0  0
   -2.3500   -0.3360    0.3566 H   0  0  0  0  0  0  0  0  0  0  0  0
   -0.2470   -0.1410    0.5576 C   0  0  1  0  0  0  0  0  0  0  0  0
    0.4239   -0.7541   -0.0450 H   0  0  0  0  0  0  0  0  0  0  0  0
   -0.4317    1.2160   -0.1683 C   0  0  1  0  0  0  0  0  0  0  0  0
    0.4148    1.3353   -0.8473 H   0  0  0  0  0  0  0  0  0  0  0  0
   -1.7197    1.2612   -1.0125 C   0  0  0  0  0  0  0  0  0  0  0  0
   -2.6013    1.2215   -0.3702 H   0  0  0  0  0  0  0  0  0  0  0  0
   -1.7519    2.1743   -1.6047 H   0  0  0  0  0  0  0  0  0  0  0  0
   -1.7482    0.4163   -1.7015 H   0  0  0  0  0  0  0  0  0  0  0  0
   -0.3870    2.3911    0.8339 C   0  0  0  0  0  0  0  0  0  0  0  0
    0.5526    2.9350    0.7282 H   0  0  0  0  0  0  0  0  0  0  0  0
   -1.2053    3.0752    0.6089 H   0  0  0  0  0  0  0  0  0  0  0  0
   -0.5409    1.9595    2.2986 C   0  0  0  0  0  0  0  0  0  0  0  0
    0.3117    1.3568    2.6111 H   0  0  0  0  0  0  0  0  0  0  0  0
   -0.5892    2.8460    2.9314 H   0  0  0  0  0  0  0  0  0  0  0  0
   -1.4591    1.3846    2.4236 H   0  0  0  0  0  0  0  0  0  0  0  0
    0.3833   -0.0008    1.9525 C   0  0  0  0  0  0  0  0  0  0  0  0
    1.5803   -0.2304    2.1189 O   0  0  0  0  0  0  0  0  0  0  0  0
   -0.4170    0.3858    2.9541 N   0  0  0  0  0  0  0  0  0  0  0  0
   -1.3850    0.5669    2.7398 H   0  0  0  0  0  0  0  0  0  0  0  0
    0.0265    0.5600    4.3358 C   0  0  0  0  0  0  0  0  0  0  0  0
    0.8964    1.2200    4.3632 H   0  0  0  0  0  0  0  0  0  0  0  0
   -0.7726    0.9946    4.9382 H   0  0  0  0  0  0  0  0  0  0  0  0
    0.3119   -0.4069    4.7547 H   0  0  0  0  0  0  0  0  0  0  0  0
  5  6  2  0  0  0  0
  5  7  1  0  0  0  0
  2  3  1  0  0  0  0
  2  4  1  0  0  0  0
  2  5  1  0  0  0  0
  1  2  1  0  0  0  0
 24 25  2  0  0  0  0
 24 26  1  0  0  0  0
 20 21  1  0  0  0  0
 20 22  1  0  0  0  0
 20 23  1  0  0  0  0
 17 18  1  0  0  0  0
 17 19  1  0  0  0  0
 17 20  1  0  0  0  0
 13 14  1  0  0  0  0
 13 15  1  0  0  0  0
 13 16  1  0  0  0  0
 11 12  1  0  0  0  0
 11 13  1  0  0  0  0
 11 17  1  0  0  0  0
  9 10  1  0  0  0  0
  9 11  1  0  0  0  0
  9 24  1  0  0  0  0
  7  8  1  0  0  0  0
  7  9  1  0  0  0  0
 28 29  1  0  0  0  0
 28 30  1  0  0  0  0
 28 31  1  0  0  0  0
 26 27  1  0  0  0  0
 26 28  1  0  0  0  0
M  END
$$$$
default_name
  -OEChem-02102213163D

 31 30  0     1  0  0  0  0  0999 V2000
   -3.0760   -3.6390    1.5496 H   0  0  0  0  0  0  0  0  0  0  0  0
   -3.0940   -2.6290    1.1426 C   0  0  0  0  0  0  0  0  0  0  0  0
   -3.7160   -1.9930    1.7706 H   0  0  0  0  0  0  0  0  0  0  0  0
   -3.4880   -2.6500    0.1286 H   0  0  0  0  0  0  0  0  0  0  0  0
   -1.6860   -2.0850    1.1196 C   0  0  0  0  0  0  0  0  0  0  0  0
   -0.7540   -2.7700    1.5226 O   0  0  0  0  0  0  0  0  0  0  0  0
   -1.5320   -0.8490    0.6496 N   0  0  0  0  0  0  0  0  0  0  0  0
   -2.3500   -0.3360    0.3566 H   0  0  0  0  0  0  0  0  0  0  0  0
   -0.2470   -0.1410    0.5576 C   0  0  1  0  0  0  0  0  0  0  0  0
    0.4239   -0.7541   -0.0450 H   0  0  0  0  0  0  0  0  0  0  0  0
   -0.4317    1.2160   -0.1683 C   0  0  1  0  0  0  0  0  0  0  0  0
    0.4148    1.3353   -0.8473 H   0  0  0  0  0  0  0  0  0  0  0  0
   -1.7197    1.2612   -1.0125 C   0  0  0  0  0  0  0  0  0  0  0  0
   -2.6013    1.2215   -0.3702 H   0  0  0  0  0  0  0  0  0  0  0  0
   -1.7519    2.1743   -1.6047 H   0  0  0  0  0  0  0  0  0  0  0  0
   -1.7482    0.4163   -1.7015 H   0  0  0  0  0  0  0  0  0  0  0  0
   -0.3870    2.3911    0.8339 C   0  0  0  0  0  0  0  0  0  0  0  0
    0.4089    3.0846    0.5591 H   0  0  0  0  0  0  0  0  0  0  0  0
   -1.3361    2.9253    0.7905 H   0  0  0  0  0  0  0  0  0  0  0  0
   -0.1742    1.9535    2.2894 C   0  0  0  0  0  0  0  0  0  0  0  0
    0.8117    1.5061    2.4138 H   0  0  0  0  0  0  0  0  0  0  0  0
   -0.2441    2.8250    2.9407 H   0  0  0  0  0  0  0  0  0  0  0  0
   -0.9404    1.2331    2.5782 H   0  0  0  0  0  0  0  0  0  0  0  0
    0.3833   -0.0008    1.9525 C   0  0  0  0  0  0  0  0  0  0  0  0
    1.5803   -0.2304    2.1189 O   0  0  0  0  0  0  0  0  0  0  0  0
   -0.4170    0.3858    2.9541 N   0  0  0  0  0  0  0  0  0  0  0  0
   -1.3850    0.5669    2.7398 H   0  0  0  0  0  0  0  0  0  0  0  0
    0.0265    0.5600    4.3358 C   0  0  0  0  0  0  0  0  0  0  0  0
    0.8964    1.2200    4.3632 H   0  0  0  0  0  0  0  0  0  0  0  0
   -0.7726    0.9946    4.9382 H   0  0  0  0  0  0  0  0  0  0  0  0
    0.3119   -0.4069    4.7547 H   0  0  0  0  0  0  0  0  0  0  0  0
  5  6  2  0  0  0  0
  5  7  1  0  0  0  0
  2  3  1  0  0  0  0
  2  4  1  0  0  0  0
  2  5  1  0  0  0  0
  1  2  1  0  0  0  0
 24 25  2  0  0  0  0
 24 26  1  0  0  0  0
 20 21  1  0  0  0  0
 20 22  1  0  0  0  0
 20 23  1  0  0  0  0
 17 18  1  0  0  0  0
 17 19  1  0  0  0  0
 17 20  1  0  0  0  0
 13 14  1  0  0  0  0
 13 15  1  0  0  0  0
 13 16  1  0  0  0  0
 11 12  1  0  0  0  0
 11 13  1  0  0  0  0
 11 17  1  0  0  0  0
  9 10  1  0  0  0  0
  9 11  1  0  0  0  0
  9 24  1  0  0  0  0
  7  8  1  0  0  0  0
  7  9  1  0  0  0  0
 28 29  1  0  0  0  0
 28 30  1  0  0  0  0
 28 31  1  0  0  0  0
 26 27  1  0  0  0  0
 26 28  1  0  0  0  0
M  END
$$$$
default_name
  -OEChem-02102213163D

 31 30  0     1  0  0  0  0  0999 V2000
   -3.0760   -3.6390    1.5496 H   0  0  0  0  0  0  0  0  0  0  0  0
   -3.0940   -2.6290    1.1426 C   0  0  0  0  0  0  0  0  0  0  0  0
   -3.7160   -1.9930    1.7706 H   0  0  0  0  0  0  0  0  0  0  0  0
   -3.4880   -2.6500    0.1286 H   0  0  0  0  0  0  0  0  0  0  0  0
   -1.6860   -2.0850    1.1196 C   0  0  0  0  0  0  0  0  0  0  0  0
   -0.7540   -2.7700    1.5226 O   0  0  0  0  0  0  0  0  0  0  0  0
   -1.5320   -0.8490    0.6496 N   0  0  0  0  0  0  0  0  0  0  0  0
   -2.3500   -0.3360    0.3566 H   0  0  0  0  0  0  0  0  0  0  0  0
   -0.2470   -0.1410    0.5576 C   0  0  1  0  0  0  0  0  0  0  0  0
    0.4239   -0.7541   -0.0450 H   0  0  0  0  0  0  0  0  0  0  0  0
   -0.4317    1.2160   -0.1683 C   0  0  1  0  0  0  0  0  0  0  0  0
    0.4148    1.3353   -0.8473 H   0  0  0  0  0  0  0  0  0  0  0  0
   -1.7197    1.2612   -1.0125 C   0  0  0  0  0  0  0  0  0  0  0  0
   -2.6013    1.2215   -0.3702 H   0  0  0  0  0  0  0  0  0  0  0  0
   -1.7519    2.1743   -1.6047 H   0  0  0  0  0  0  0  0  0  0  0  0
   -1.7482    0.4163   -1.7015 H   0  0  0  0  0  0  0  0  0  0  0  0
   -0.3870    2.3911    0.8339 C   0  0  0  0  0  0  0  0  0  0  0  0
    0.2116    3.2063    0.4252 H   0  0  0  0  0  0  0  0  0  0  0  0
   -1.4017    2.7571    0.9906 H   0  0  0  0  0  0  0  0  0  0  0  0
    0.1791    2.0092    2.2083 C   0  0  0  0  0  0  0  0  0  0  0  0
    1.2308    1.7357    2.1259 H   0  0  0  0  0  0  0  0  0  0  0  0
    0.0946    2.8625    2.8817 H   0  0  0  0  0  0  0  0  0  0  0  0
   -0.3836    1.1727    2.6242 H   0  0  0  0  0  0  0  0  0  0  0  0
    0.3833   -0.0008    1.9525 C   0  0  0  0  0  0  0  0  0  0  0  0
    1.5803   -0.2304    2.1189 O   0  0  0  0  0  0  0  0  0  0  0  0
   -0.4170    0.3858    2.9541 N   0  0  0  0  0  0  0  0  0  0  0  0
   -1.3850    0.5669    2.7398 H   0  0  0  0  0  0  0  0  0  0  0  0
    0.0265    0.5600    4.3358 C   0  0  0  0  0  0  0  0  0  0  0  0
    0.8964    1.2200    4.3632 H   0  0  0  0  0  0  0  0  0  0  0  0
   -0.7726    0.9946    4.9382 H   0  0  0  0  0  0  0  0  0  0  0  0
    0.3119   -0.4069    4.7547 H   0  0  0  0  0  0  0  0  0  0  0  0
  5  6  2  0  0  0  0
  5  7  1  0  0  0  0
  2  3  1  0  0  0  0
  2  4  1  0  0  0  0
  2  5  1  0  0  0  0
  1  2  1  0  0  0  0
 24 25  2  0  0  0  0
 24 26  1  0  0  0  0
 20 21  1  0  0  0  0
 20 22  1  0  0  0  0
 20 23  1  0  0  0  0
 17 18  1  0  0  0  0
 17 19  1  0  0  0  0
 17 20  1  0  0  0  0
 13 14  1  0  0  0  0
 13 15  1  0  0  0  0
 13 16  1  0  0  0  0
 11 12  1  0  0  0  0
 11 13  1  0  0  0  0
 11 17  1  0  0  0  0
  9 10  1  0  0  0  0
  9 11  1  0  0  0  0
  9 24  1  0  0  0  0
  7  8  1  0  0  0  0
  7  9  1  0  0  0  0
 28 29  1  0  0  0  0
 28 30  1  0  0  0  0
 28 31  1  0  0  0  0
 26 27  1  0  0  0  0
 26 28  1  0  0  0  0
M  END
$$$$
default_name
  -OEChem-02102213163D

 31 30  0     1  0  0  0  0  0999 V2000
   -3.0760   -3.6390    1.5496 H   0  0  0  0  0  0  0  0  0  0  0  0
   -3.0940   -2.6290    1.1426 C   0  0  0  0  0  0  0  0  0  0  0  0
   -3.7160   -1.9930    1.7706 H   0  0  0  0  0  0  0  0  0  0  0  0
   -3.4880   -2.6500    0.1286 H   0  0  0  0  0  0  0  0  0  0  0  0
   -1.6860   -2.0850    1.1196 C   0  0  0  0  0  0  0  0  0  0  0  0
   -0.7540   -2.7700    1.5226 O   0  0  0  0  0  0  0  0  0  0  0  0
   -1.5320   -0.8490    0.6496 N   0  0  0  0  0  0  0  0  0  0  0  0
   -2.3500   -0.3360    0.3566 H   0  0  0  0  0  0  0  0  0  0  0  0
   -0.2470   -0.1410    0.5576 C   0  0  1  0  0  0  0  0  0  0  0  0
    0.4239   -0.7541   -0.0450 H   0  0  0  0  0  0  0  0  0  0  0  0
   -0.4317    1.2160   -0.1683 C   0  0  1  0  0  0  0  0  0  0  0  0
    0.4148    1.3353   -0.8473 H   0  0  0  0  0  0  0  0  0  0  0  0
   -1.7197    1.2612   -1.0125 C   0  0  0  0  0  0  0  0  0  0  0  0
   -2.6013    1.2215   -0.3702 H   0  0  0  0  0  0  0  0  0  0  0  0
   -1.7519    2.1743   -1.6047 H   0  0  0  0  0  0  0  0  0  0  0  0
   -1.7482    0.4163   -1.7015 H   0  0  0  0  0  0  0  0  0  0  0  0
   -0.3870    2.3911    0.8339 C   0  0  0  0  0  0  0  0  0  0  0  0
   -0.0258    3.2917    0.3356 H   0  0  0  0  0  0  0  0  0  0  0  0
   -1.3974    2.5822    1.1955 H   0  0  0  0  0  0  0  0  0  0  0  0
    0.4951    2.1230    2.0608 C   0  0  0  0  0  0  0  0  0  0  0  0
    1.5405    2.0299    1.7671 H   0  0  0  0  0  0  0  0  0  0  0  0
    0.4038    2.9560    2.7582 H   0  0  0  0  0  0  0  0  0  0  0  0
    0.1735    1.2075    2.5586 H   0  0  0  0  0  0  0  0  0  0  0  0
    0.3833   -0.0008    1.9525 C   0  0  0  0  0  0  0  0  0  0  0  0
    1.5803   -0.2304    2.1189 O   0  0  0  0  0  0  0  0  0  0  0  0
   -0.4170    0.3858    2.9541 N   0  0  0  0  0  0  0  0  0  0  0  0
   -1.3850    0.5669    2.7398 H   0  0  0  0  0  0  0  0  0  0  0  0
    0.0265    0.5600    4.3358 C   0  0  0  0  0  0  0  0  0  0  0  0
    0.8964    1.2200    4.3632 H   0  0  0  0  0  0  0  0  0  0  0  0
   -0.7726    0.9946    4.9382 H   0  0  0  0  0  0  0  0  0  0  0  0
    0.3119   -0.4069    4.7547 H   0  0  0  0  0  0  0  0  0  0  0  0
  5  6  2  0  0  0  0
  5  7  1  0  0  0  0
  2  3  1  0  0  0  0
  2  4  1  0  0  0  0
  2  5  1  0  0  0  0
  1  2  1  0  0  0  0
 24 25  2  0  0  0  0
 24 26  1  0  0  0  0
 20 21  1  0  0  0  0
 20 22  1  0  0  0  0
 20 23  1  0  0  0  0
 17 18  1  0  0  0  0
 17 19  1  0  0  0  0
 17 20  1  0  0  0  0
 13 14  1  0  0  0  0
 13 15  1  0  0  0  0
 13 16  1  0  0  0  0
 11 12  1  0  0  0  0
 11 13  1  0  0  0  0
 11 17  1  0  0  0  0
  9 10  1  0  0  0  0
  9 11  1  0  0  0  0
  9 24  1  0  0  0  0
  7  8  1  0  0  0  0
  7  9  1  0  0  0  0
 28 29  1  0  0  0  0
 28 30  1  0  0  0  0
 28 31  1  0  0  0  0
 26 27  1  0  0  0  0
 26 28  1  0  0  0  0
M  END
$$$$
default_name
  -OEChem-02102213163D

 31 30  0     1  0  0  0  0  0999 V2000
   -3.0760   -3.6390    1.5496 H   0  0  0  0  0  0  0  0  0  0  0  0
   -3.0940   -2.6290    1.1426 C   0  0  0  0  0  0  0  0  0  0  0  0
   -3.7160   -1.9930    1.7706 H   0  0  0  0  0  0  0  0  0  0  0  0
   -3.4880   -2.6500    0.1286 H   0  0  0  0  0  0  0  0  0  0  0  0
   -1.6860   -2.0850    1.1196 C   0  0  0  0  0  0  0  0  0  0  0  0
   -0.7540   -2.7700    1.5226 O   0  0  0  0  0  0  0  0  0  0  0  0
   -1.5320   -0.8490    0.6496 N   0  0  0  0  0  0  0  0  0  0  0  0
   -2.3500   -0.3360    0.3566 H   0  0  0  0  0  0  0  0  0  0  0  0
   -0.2470   -0.1410    0.5576 C   0  0  1  0  0  0  0  0  0  0  0  0
    0.4239   -0.7541   -0.0450 H   0  0  0  0  0  0  0  0  0  0  0  0
   -0.4317    1.2160   -0.1683 C   0  0  1  0  0  0  0  0  0  0  0  0
    0.4148    1.3353   -0.8473 H   0  0  0  0  0  0  0  0  0  0  0  0
   -1.7197    1.2612   -1.0125 C   0  0  0  0  0  0  0  0  0  0  0  0
   -2.6013    1.2215   -0.3702 H   0  0  0  0  0  0  0  0  0  0  0  0
   -1.7519    2.1743   -1.6047 H   0  0  0  0  0  0  0  0  0  0  0  0
   -1.7482    0.4163   -1.7015 H   0  0  0  0  0  0  0  0  0  0  0  0
   -0.3870    2.3911    0.8339 C   0  0  0  0  0  0  0  0  0  0  0  0
   -0.2870    3.3351    0.2964 H   0  0  0  0  0  0  0  0  0  0  0  0
   -1.3235    2.4125    1.3912 H   0  0  0  0  0  0  0  0  0  0  0  0
    0.7522    2.2870    1.8570 C   0  0  0  0  0  0  0  0  0  0  0  0
    1.7195    2.3689    1.3617 H   0  0  0  0  0  0  0  0  0  0  0  0
    0.6625    3.0992    2.5788 H   0  0  0  0  0  0  0  0  0  0  0  0
    0.6928    1.3351    2.3858 H   0  0  0  0  0  0  0  0  0  0  0  0
    0.3833   -0.0008    1.9525 C   0  0  0  0  0  0  0  0  0  0  0  0
    1.5803   -0.2304    2.1189 O   0  0  0  0  0  0  0  0  0  0  0  0
   -0.4170    0.3858    2.9541 N   0  0  0  0  0  0  0  0  0  0  0  0
   -1.3850    0.5669    2.7398 H   0  0  0  0  0  0  0  0  0  0  0  0
    0.0265    0.5600    4.3358 C   0  0  0  0  0  0  0  0  0  0  0  0
    0.8964    1.2200    4.3632 H   0  0  0  0  0  0  0  0  0  0  0  0
   -0.7726    0.9946    4.9382 H   0  0  0  0  0  0  0  0  0  0  0  0
    0.3119   -0.4069    4.7547 H   0  0  0  0  0  0  0  0  0  0  0  0
  5  6  2  0  0  0  0
  5  7  1  0  0  0  0
  2  3  1  0  0  0  0
  2  4  1  0  0  0  0
  2  5  1  0  0  0  0
  1  2  1  0  0  0  0
 24 25  2  0  0  0  0
 24 26  1  0  0  0  0
 20 21  1  0  0  0  0
 20 22  1  0  0  0  0
 20 23  1  0  0  0  0
 17 18  1  0  0  0  0
 17 19  1  0  0  0  0
 17 20  1  0  0  0  0
 13 14  1  0  0  0  0
 13 15  1  0  0  0  0
 13 16  1  0  0  0  0
 11 12  1  0  0  0  0
 11 13  1  0  0  0  0
 11 17  1  0  0  0  0
  9 10  1  0  0  0  0
  9 11  1  0  0  0  0
  9 24  1  0  0  0  0
  7  8  1  0  0  0  0
  7  9  1  0  0  0  0
 28 29  1  0  0  0  0
 28 30  1  0  0  0  0
 28 31  1  0  0  0  0
 26 27  1  0  0  0  0
 26 28  1  0  0  0  0
M  END
$$$$
default_name
  -OEChem-02102213163D

 31 30  0     1  0  0  0  0  0999 V2000
   -3.0760   -3.6390    1.5496 H   0  0  0  0  0  0  0  0  0  0  0  0
   -3.0940   -2.6290    1.1426 C   0  0  0  0  0  0  0  0  0  0  0  0
   -3.7160   -1.9930    1.7706 H   0  0  0  0  0  0  0  0  0  0  0  0
   -3.4880   -2.6500    0.1286 H   0  0  0  0  0  0  0  0  0  0  0  0
   -1.6860   -2.0850    1.1196 C   0  0  0  0  0  0  0  0  0  0  0  0
   -0.7540   -2.7700    1.5226 O   0  0  0  0  0  0  0  0  0  0  0  0
   -1.5320   -0.8490    0.6496 N   0  0  0  0  0  0  0  0  0  0  0  0
   -2.3500   -0.3360    0.3566 H   0  0  0  0  0  0  0  0  0  0  0  0
   -0.2470   -0.1410    0.5576 C   0  0  1  0  0  0  0  0  0  0  0  0
    0.4239   -0.7541   -0.0450 H   0  0  0  0  0  0  0  0  0  0  0  0
   -0.4317    1.2160   -0.1683 C   0  0  1  0  0  0  0  0  0  0  0  0
    0.4148    1.3353   -0.8473 H   0  0  0  0  0  0  0  0  0  0  0  0
   -1.7197    1.2612   -1.0125 C   0  0  0  0  0  0  0  0  0  0  0  0
   -2.6013    1.2215   -0.3702 H   0  0  0  0  0  0  0  0  0  0  0  0
   -1.7519    2.1743   -1.6047 H   0  0  0  0  0  0  0  0  0  0  0  0
   -1.7482    0.4163   -1.7015 H   0  0  0  0  0  0  0  0  0  0  0  0
   -0.3870    2.3911    0.8339 C   0  0  0  0  0  0  0  0  0  0  0  0
   -0.5543    3.3334    0.3104 H   0  0  0  0  0  0  0  0  0  0  0  0
   -1.1851    2.2595    1.5645 H   0  0  0  0  0  0  0  0  0  0  0  0
    0.9328    2.4901    1.6108 C   0  0  0  0  0  0  0  0  0  0  0  0
    1.7557    2.7293    0.9374 H   0  0  0  0  0  0  0  0  0  0  0  0
    0.8530    3.2823    2.3556 H   0  0  0  0  0  0  0  0  0  0  0  0
    1.1390    1.5468    2.1176 H   0  0  0  0  0  0  0  0  0  0  0  0
    0.3833   -0.0008    1.9525 C   0  0  0  0  0  0  0  0  0  0  0  0
    1.5803   -0.2304    2.1189 O   0  0  0  0  0  0  0  0  0  0  0  0
   -0.4170    0.3858    2.9541 N   0  0  0  0  0  0  0  0  0  0  0  0
   -1.3850    0.5669    2.7398 H   0  0  0  0  0  0  0  0  0  0  0  0
    0.0265    0.5600    4.3358 C   0  0  0  0  0  0  0  0  0  0  0  0
    0.8964    1.2200    4.3632 H   0  0  0  0  0  0  0  0  0  0  0  0
   -0.7726    0.9946    4.9382 H   0  0  0  0  0  0  0  0  0  0  0  0
    0.3119   -0.4069    4.7547 H   0  0  0  0  0  0  0  0  0  0  0  0
  5  6  2  0  0  0  0
  5  7  1  0  0  0  0
  2  3  1  0  0  0  0
  2  4  1  0  0  0  0
  2  5  1  0  0  0  0
  1  2  1  0  0  0  0
 24 25  2  0  0  0  0
 24 26  1  0  0  0  0
 20 21  1  0  0  0  0
 20 22  1  0  0  0  0
 20 23  1  0  0  0  0
 17 18  1  0  0  0  0
 17 19  1  0  0  0  0
 17 20  1  0  0  0  0
 13 14  1  0  0  0  0
 13 15  1  0  0  0  0
 13 16  1  0  0  0  0
 11 12  1  0  0  0  0
 11 13  1  0  0  0  0
 11 17  1  0  0  0  0
  9 10  1  0  0  0  0
  9 11  1  0  0  0  0
  9 24  1  0  0  0  0
  7  8  1  0  0  0  0
  7  9  1  0  0  0  0
 28 29  1  0  0  0  0
 28 30  1  0  0  0  0
 28 31  1  0  0  0  0
 26 27  1  0  0  0  0
 26 28  1  0  0  0  0
M  END
$$$$
default_name
  -OEChem-02102213163D

 31 30  0     1  0  0  0  0  0999 V2000
   -3.0760   -3.6390    1.5496 H   0  0  0  0  0  0  0  0  0  0  0  0
   -3.0940   -2.6290    1.1426 C   0  0  0  0  0  0  0  0  0  0  0  0
   -3.7160   -1.9930    1.7706 H   0  0  0  0  0  0  0  0  0  0  0  0
   -3.4880   -2.6500    0.1286 H   0  0  0  0  0  0  0  0  0  0  0  0
   -1.6860   -2.0850    1.1196 C   0  0  0  0  0  0  0  0  0  0  0  0
   -0.7540   -2.7700    1.5226 O   0  0  0  0  0  0  0  0  0  0  0  0
   -1.5320   -0.8490    0.6496 N   0  0  0  0  0  0  0  0  0  0  0  0
   -2.3500   -0.3360    0.3566 H   0  0  0  0  0  0  0  0  0  0  0  0
   -0.2470   -0.1410    0.5576 C   0  0  1  0  0  0  0  0  0  0  0  0
    0.4239   -0.7541   -0.0450 H   0  0  0  0  0  0  0  0  0  0  0  0
   -0.4317    1.2160   -0.1683 C   0  0  1  0  0  0  0  0  0  0  0  0
    0.4148    1.3353   -0.8473 H   0  0  0  0  0  0  0  0  0  0  0  0
   -1.7197    1.2612   -1.0125 C   0  0  0  0  0  0  0  0  0  0  0  0
   -2.6013    1.2215   -0.3702 H   0  0  0  0  0  0  0  0  0  0  0  0
   -1.7519    2.1743   -1.6047 H   0  0  0  0  0  0  0  0  0  0  0  0
   -1.7482    0.4163   -1.7015 H   0  0  0  0  0  0  0  0  0  0  0  0
   -0.3870    2.3911    0.8339 C   0  0  0  0  0  0  0  0  0  0  0  0
   -0.8095    3.2867    0.3764 H   0  0  0  0  0  0  0  0  0  0  0  0
   -0.9917    2.1336    1.7035 H   0  0  0  0  0  0  0  0  0  0  0  0
    1.0248    2.7185    1.3389 C   0  0  0  0  0  0  0  0  0  0  0  0
    1.6467    3.0867    0.5232 H   0  0  0  0  0  0  0  0  0  0  0  0
    0.9623    3.4928    2.1039 H   0  0  0  0  0  0  0  0  0  0  0  0
    1.4817    1.8282    1.7724 H   0  0  0  0  0  0  0  0  0  0  0  0
    0.3833   -0.0008    1.9525 C   0  0  0  0  0  0  0  0  0  0  0  0
    1.5803   -0.2304    2.1189 O   0  0  0  0  0  0  0  0  0  0  0  0
   -0.4170    0.3858    2.9541 N   0  0  0  0  0  0  0  0  0  0  0  0
   -1.3850    0.5669    2.7398 H   0  0  0  0  0  0  0  0  0  0  0  0
    0.0265    0.5600    4.3358 C   0  0  0  0  0  0  0  0  0  0  0  0
    0.8964    1.2200    4.3632 H   0  0  0  0  0  0  0  0  0  0  0  0
   -0.7726    0.9946    4.9382 H   0  0  0  0  0  0  0  0  0  0  0  0
    0.3119   -0.4069    4.7547 H   0  0  0  0  0  0  0  0  0  0  0  0
  5  6  2  0  0  0  0
  5  7  1  0  0  0  0
  2  3  1  0  0  0  0
  2  4  1  0  0  0  0
  2  5  1  0  0  0  0
  1  2  1  0  0  0  0
 24 25  2  0  0  0  0
 24 26  1  0  0  0  0
 20 21  1  0  0  0  0
 20 22  1  0  0  0  0
 20 23  1  0  0  0  0
 17 18  1  0  0  0  0
 17 19  1  0  0  0  0
 17 20  1  0  0  0  0
 13 14  1  0  0  0  0
 13 15  1  0  0  0  0
 13 16  1  0  0  0  0
 11 12  1  0  0  0  0
 11 13  1  0  0  0  0
 11 17  1  0  0  0  0
  9 10  1  0  0  0  0
  9 11  1  0  0  0  0
  9 24  1  0  0  0  0
  7  8  1  0  0  0  0
  7  9  1  0  0  0  0
 28 29  1  0  0  0  0
 28 30  1  0  0  0  0
 28 31  1  0  0  0  0
 26 27  1  0  0  0  0
 26 28  1  0  0  0  0
M  END
$$$$
default_name
  -OEChem-02102213163D

 31 30  0     1  0  0  0  0  0999 V2000
   -3.0760   -3.6390    1.5496 H   0  0  0  0  0  0  0  0  0  0  0  0
   -3.0940   -2.6290    1.1426 C   0  0  0  0  0  0  0  0  0  0  0  0
   -3.7160   -1.9930    1.7706 H   0  0  0  0  0  0  0  0  0  0  0  0
   -3.4880   -2.6500    0.1286 H   0  0  0  0  0  0  0  0  0  0  0  0
   -1.6860   -2.0850    1.1196 C   0  0  0  0  0  0  0  0  0  0  0  0
   -0.7540   -2.7700    1.5226 O   0  0  0  0  0  0  0  0  0  0  0  0
   -1.5320   -0.8490    0.6496 N   0  0  0  0  0  0  0  0  0  0  0  0
   -2.3500   -0.3360    0.3566 H   0  0  0  0  0  0  0  0  0  0  0  0
   -0.2470   -0.1410    0.5576 C   0  0  1  0  0  0  0  0  0  0  0  0
    0.4239   -0.7541   -0.0450 H   0  0  0  0  0  0  0  0  0  0  0  0
   -0.4317    1.2160   -0.1683 C   0  0  1  0  0  0  0  0  0  0  0  0
    0.4148    1.3353   -0.8473 H   0  0  0  0  0  0  0  0  0  0  0  0
   -1.7197    1.2612   -1.0125 C   0  0  0  0  0  0  0  0  0  0  0  0
   -2.6013    1.2215   -0.3702 H   0  0  0  0  0  0  0  0  0  0  0  0
   -1.7519    2.1743   -1.6047 H   0  0  0  0  0  0  0  0  0  0  0  0
   -1.7482    0.4163   -1.7015 H   0  0  0  0  0  0  0  0  0  0  0  0
   -0.3870    2.3911    0.8339 C   0  0  0  0  0  0  0  0  0  0  0  0
   -1.0351    3.1984    0.4901 H   0  0  0  0  0  0  0  0  0  0  0  0
   -0.7563    2.0434    1.7987 H   0  0  0  0  0  0  0  0  0  0  0  0
    1.0217    2.9566    1.0599 C   0  0  0  0  0  0  0  0  0  0  0  0
    1.3998    3.4168    0.1472 H   0  0  0  0  0  0  0  0  0  0  0  0
    0.9831    3.7163    1.8409 H   0  0  0  0  0  0  0  0  0  0  0  0
    1.6975    2.1602    1.3735 H   0  0  0  0  0  0  0  0  0  0  0  0
    0.3833   -0.0008    1.9525 C   0  0  0  0  0  0  0  0  0  0  0  0
    1.5803   -0.2304    2.1189 O   0  0  0  0  0  0  0  0  0  0  0  0
   -0.4170    0.3858    2.9541 N   0  0  0  0  0  0  0  0  0  0  0  0
   -1.3850    0.5669    2.7398 H   0  0  0  0  0  0  0  0  0  0  0  0
    0.0265    0.5600    4.3358 C   0  0  0  0  0  0  0  0  0  0  0  0
    0.8964    1.2200    4.3632 H   0  0  0  0  0  0  0  0  0  0  0  0
   -0.7726    0.9946    4.9382 H   0  0  0  0  0  0  0  0  0  0  0  0
    0.3119   -0.4069    4.7547 H   0  0  0  0  0  0  0  0  0  0  0  0
  5  6  2  0  0  0  0
  5  7  1  0  0  0  0
  2  3  1  0  0  0  0
  2  4  1  0  0  0  0
  2  5  1  0  0  0  0
  1  2  1  0  0  0  0
 24 25  2  0  0  0  0
 24 26  1  0  0  0  0
 20 21  1  0  0  0  0
 20 22  1  0  0  0  0
 20 23  1  0  0  0  0
 17 18  1  0  0  0  0
 17 19  1  0  0  0  0
 17 20  1  0  0  0  0
 13 14  1  0  0  0  0
 13 15  1  0  0  0  0
 13 16  1  0  0  0  0
 11 12  1  0  0  0  0
 11 13  1  0  0  0  0
 11 17  1  0  0  0  0
  9 10  1  0  0  0  0
  9 11  1  0  0  0  0
  9 24  1  0  0  0  0
  7  8  1  0  0  0  0
  7  9  1  0  0  0  0
 28 29  1  0  0  0  0
 28 30  1  0  0  0  0
 28 31  1  0  0  0  0
 26 27  1  0  0  0  0
 26 28  1  0  0  0  0
M  END
$$$$
default_name
  -OEChem-02102213163D

 31 30  0     1  0  0  0  0  0999 V2000
   -3.0760   -3.6390    1.5496 H   0  0  0  0  0  0  0  0  0  0  0  0
   -3.0940   -2.6290    1.1426 C   0  0  0  0  0  0  0  0  0  0  0  0
   -3.7160   -1.9930    1.7706 H   0  0  0  0  0  0  0  0  0  0  0  0
   -3.4880   -2.6500    0.1286 H   0  0  0  0  0  0  0  0  0  0  0  0
   -1.6860   -2.0850    1.1196 C   0  0  0  0  0  0  0  0  0  0  0  0
   -0.7540   -2.7700    1.5226 O   0  0  0  0  0  0  0  0  0  0  0  0
   -1.5320   -0.8490    0.6496 N   0  0  0  0  0  0  0  0  0  0  0  0
   -2.3500   -0.3360    0.3566 H   0  0  0  0  0  0  0  0  0  0  0  0
   -0.2470   -0.1410    0.5576 C   0  0  1  0  0  0  0  0  0  0  0  0
    0.4239   -0.7541   -0.0450 H   0  0  0  0  0  0  0  0  0  0  0  0
   -0.4317    1.2160   -0.1683 C   0  0  1  0  0  0  0  0  0  0  0  0
    0.4148    1.3353   -0.8473 H   0  0  0  0  0  0  0  0  0  0  0  0
   -1.7197    1.2612   -1.0125 C   0  0  0  0  0  0  0  0  0  0  0  0
   -2.6013    1.2215   -0.3702 H   0  0  0  0  0  0  0  0  0  0  0  0
   -1.7519    2.1743   -1.6047 H   0  0  0  0  0  0  0  0  0  0  0  0
   -1.7482    0.4163   -1.7015 H   0  0  0  0  0  0  0  0  0  0  0  0
   -0.3870    2.3911    0.8339 C   0  0  0  0  0  0  0  0  0  0  0  0
   -1.2159    3.0743    0.6436 H   0  0  0  0  0  0  0  0  0  0  0  0
   -0.4951    1.9952    1.8436 H   0  0  0  0  0  0  0  0  0  0  0  0
    0.9239    3.1881    0.7928 C   0  0  0  0  0  0  0  0  0  0  0  0
    1.0320    3.6970   -0.1649 H   0  0  0  0  0  0  0  0  0  0  0  0
    0.9138    3.9377    1.5844 H   0  0  0  0  0  0  0  0  0  0  0  0
    1.7717    2.5201    0.9483 H   0  0  0  0  0  0  0  0  0  0  0  0
    0.3833   -0.0008    1.9525 C   0  0  0  0  0  0  0  0  0  0  0  0
    1.5803   -0.2304    2.1189 O   0  0  0  0  0  0  0  0  0  0  0  0
   -0.4170    0.3858    2.9541 N   0  0  0  0  0  0  0  0  0  0  0  0
   -1.3850    0.5669    2.7398 H   0  0  0  0  0  0  0  0  0  0  0  0
    0.0265    0.5600    4.3358 C   0  0  0  0  0  0  0  0  0  0  0  0
    0.8964    1.2200    4.3632 H   0  0  0  0  0  0  0  0  0  0  0  0
   -0.7726    0.9946    4.9382 H   0  0  0  0  0  0  0  0  0  0  0  0
    0.3119   -0.4069    4.7547 H   0  0  0  0  0  0  0  0  0  0  0  0
  5  6  2  0  0  0  0
  5  7  1  0  0  0  0
  2  3  1  0  0  0  0
  2  4  1  0  0  0  0
  2  5  1  0  0  0  0
  1  2  1  0  0  0  0
 24 25  2  0  0  0  0
 24 26  1  0  0  0  0
 20 21  1  0  0  0  0
 20 22  1  0  0  0  0
 20 23  1  0  0  0  0
 17 18  1  0  0  0  0
 17 19  1  0  0  0  0
 17 20  1  0  0  0  0
 13 14  1  0  0  0  0
 13 15  1  0  0  0  0
 13 16  1  0  0  0  0
 11 12  1  0  0  0  0
 11 13  1  0  0  0  0
 11 17  1  0  0  0  0
  9 10  1  0  0  0  0
  9 11  1  0  0  0  0
  9 24  1  0  0  0  0
  7  8  1  0  0  0  0
  7  9  1  0  0  0  0
 28 29  1  0  0  0  0
 28 30  1  0  0  0  0
 28 31  1  0  0  0  0
 26 27  1  0  0  0  0
 26 28  1  0  0  0  0
M  END
$$$$
default_name
  -OEChem-02102213163D

 31 30  0     1  0  0  0  0  0999 V2000
   -3.0760   -3.6390    1.5496 H   0  0  0  0  0  0  0  0  0  0  0  0
   -3.0940   -2.6290    1.1426 C   0  0  0  0  0  0  0  0  0  0  0  0
   -3.7160   -1.9930    1.7706 H   0  0  0  0  0  0  0  0  0  0  0  0
   -3.4880   -2.6500    0.1286 H   0  0  0  0  0  0  0  0  0  0  0  0
   -1.6860   -2.0850    1.1196 C   0  0  0  0  0  0  0  0  0  0  0  0
   -0.7540   -2.7700    1.5226 O   0  0  0  0  0  0  0  0  0  0  0  0
   -1.5320   -0.8490    0.6496 N   0  0  0  0  0  0  0  0  0  0  0  0
   -2.3500   -0.3360    0.3566 H   0  0  0  0  0  0  0  0  0  0  0  0
   -0.2470   -0.1410    0.5576 C   0  0  1  0  0  0  0  0  0  0  0  0
    0.4239   -0.7541   -0.0450 H   0  0  0  0  0  0  0  0  0  0  0  0
   -0.4317    1.2160   -0.1683 C   0  0  1  0  0  0  0  0  0  0  0  0
    0.4148    1.3353   -0.8473 H   0  0  0  0  0  0  0  0  0  0  0  0
   -1.7197    1.2612   -1.0125 C   0  0  0  0  0  0  0  0  0  0  0  0
   -2.6013    1.2215   -0.3702 H   0  0  0  0  0  0  0  0  0  0  0  0
   -1.7519    2.1743   -1.6047 H   0  0  0  0  0  0  0  0  0  0  0  0
   -1.7482    0.4163   -1.7015 H   0  0  0  0  0  0  0  0  0  0  0  0
   -0.3870    2.3911    0.8339 C   0  0  0  0  0  0  0  0  0  0  0  0
   -1.3394    2.9229    0.8266 H   0  0  0  0  0  0  0  0  0  0  0  0
   -0.2259    1.9920    1.8353 H   0  0  0  0  0  0  0  0  0  0  0  0
    0.7379    3.3974    0.5557 C   0  0  0  0  0  0  0  0  0  0  0  0
    0.5682    3.9082   -0.3919 H   0  0  0  0  0  0  0  0  0  0  0  0
    0.7593    4.1419    1.3519 H   0  0  0  0  0  0  0  0  0  0  0  0
    1.6992    2.8833    0.5256 H   0  0  0  0  0  0  0  0  0  0  0  0
    0.3833   -0.0008    1.9525 C   0  0  0  0  0  0  0  0  0  0  0  0
    1.5803   -0.2304    2.1189 O   0  0  0  0  0  0  0  0  0  0  0  0
   -0.4170    0.3858    2.9541 N   0  0  0  0  0  0  0  0  0  0  0  0
   -1.3850    0.5669    2.7398 H   0  0  0  0  0  0  0  0  0  0  0  0
    0.0265    0.5600    4.3358 C   0  0  0  0  0  0  0  0  0  0  0  0
    0.8964    1.2200    4.3632 H   0  0  0  0  0  0  0  0  0  0  0  0
   -0.7726    0.9946    4.9382 H   0  0  0  0  0  0  0  0  0  0  0  0
    0.3119   -0.4069    4.7547 H   0  0  0  0  0  0  0  0  0  0  0  0
  5  6  2  0  0  0  0
  5  7  1  0  0  0  0
  2  3  1  0  0  0  0
  2  4  1  0  0  0  0
  2  5  1  0  0  0  0
  1  2  1  0  0  0  0
 24 25  2  0  0  0  0
 24 26  1  0  0  0  0
 20 21  1  0  0  0  0
 20 22  1  0  0  0  0
 20 23  1  0  0  0  0
 17 18  1  0  0  0  0
 17 19  1  0  0  0  0
 17 20  1  0  0  0  0
 13 14  1  0  0  0  0
 13 15  1  0  0  0  0
 13 16  1  0  0  0  0
 11 12  1  0  0  0  0
 11 13  1  0  0  0  0
 11 17  1  0  0  0  0
  9 10  1  0  0  0  0
  9 11  1  0  0  0  0
  9 24  1  0  0  0  0
  7  8  1  0  0  0  0
  7  9  1  0  0  0  0
 28 29  1  0  0  0  0
 28 30  1  0  0  0  0
 28 31  1  0  0  0  0
 26 27  1  0  0  0  0
 26 28  1  0  0  0  0
M  END
$$$$
default_name
  -OEChem-02102213163D

 31 30  0     1  0  0  0  0  0999 V2000
   -3.0760   -3.6390    1.5496 H   0  0  0  0  0  0  0  0  0  0  0  0
   -3.0940   -2.6290    1.1426 C   0  0  0  0  0  0  0  0  0  0  0  0
   -3.7160   -1.9930    1.7706 H   0  0  0  0  0  0  0  0  0  0  0  0
   -3.4880   -2.6500    0.1286 H   0  0  0  0  0  0  0  0  0  0  0  0
   -1.6860   -2.0850    1.1196 C   0  0  0  0  0  0  0  0  0  0  0  0
   -0.7540   -2.7700    1.5226 O   0  0  0  0  0  0  0  0  0  0  0  0
   -1.5320   -0.8490    0.6496 N   0  0  0  0  0  0  0  0  0  0  0  0
   -2.3500   -0.3360    0.3566 H   0  0  0  0  0  0  0  0  0  0  0  0
   -0.2470   -0.1410    0.5576 C   0  0  1  0  0  0  0  0  0  0  0  0
    0.4239   -0.7541   -0.0450 H   0  0  0  0  0  0  0  0  0  0  0  0
   -0.4317    1.2160   -0.1683 C   0  0  1  0  0  0  0  0  0  0  0  0
    0.4148    1.3353   -0.8473 H   0  0  0  0  0  0  0  0  0  0  0  0
   -1.7197    1.2612   -1.0125 C   0  0  0  0  0  0  0  0  0  0  0  0
   -2.6013    1.2215   -0.3702 H   0  0  0  0  0  0  0  0  0  0  0  0
   -1.7519    2.1743   -1.6047 H   0  0  0  0  0  0  0  0  0  0  0  0
   -1.7482    0.4163   -1.7015 H   0  0  0  0  0  0  0  0  0  0  0  0
   -0.3870    2.3911    0.8339 C   0  0  0  0  0  0  0  0  0  0  0  0
   -1.3973    2.7546    1.0265 H   0  0  0  0  0  0  0  0  0  0  0  0
    0.0331    2.0343    1.7742 H   0  0  0  0  0  0  0  0  0  0  0  0
    0.4765    3.5700    0.3650 C   0  0  0  0  0  0  0  0  0  0  0  0
    0.0400    4.0360   -0.5183 H   0  0  0  0  0  0  0  0  0  0  0  0
    0.5299    4.3148    1.1593 H   0  0  0  0  0  0  0  0  0  0  0  0
    1.4850    3.2251    0.1343 H   0  0  0  0  0  0  0  0  0  0  0  0
    0.3833   -0.0008    1.9525 C   0  0  0  0  0  0  0  0  0  0  0  0
    1.5803   -0.2304    2.1189 O   0  0  0  0  0  0  0  0  0  0  0  0
   -0.4170    0.3858    2.9541 N   0  0  0  0  0  0  0  0  0  0  0  0
   -1.3850    0.5669    2.7398 H   0  0  0  0  0  0  0  0  0  0  0  0
    0.0265    0.5600    4.3358 C   0  0  0  0  0  0  0  0  0  0  0  0
    0.8964    1.2200    4.3632 H   0  0  0  0  0  0  0  0  0  0  0  0
   -0.7726    0.9946    4.9382 H   0  0  0  0  0  0  0  0  0  0  0  0
    0.3119   -0.4069    4.7547 H   0  0  0  0  0  0  0  0  0  0  0  0
  5  6  2  0  0  0  0
  5  7  1  0  0  0  0
  2  3  1  0  0  0  0
  2  4  1  0  0  0  0
  2  5  1  0  0  0  0
  1  2  1  0  0  0  0
 24 25  2  0  0  0  0
 24 26  1  0  0  0  0
 20 21  1  0  0  0  0
 20 22  1  0  0  0  0
 20 23  1  0  0  0  0
 17 18  1  0  0  0  0
 17 19  1  0  0  0  0
 17 20  1  0  0  0  0
 13 14  1  0  0  0  0
 13 15  1  0  0  0  0
 13 16  1  0  0  0  0
 11 12  1  0  0  0  0
 11 13  1  0  0  0  0
 11 17  1  0  0  0  0
  9 10  1  0  0  0  0
  9 11  1  0  0  0  0
  9 24  1  0  0  0  0
  7  8  1  0  0  0  0
  7  9  1  0  0  0  0
 28 29  1  0  0  0  0
 28 30  1  0  0  0  0
 28 31  1  0  0  0  0
 26 27  1  0  0  0  0
 26 28  1  0  0  0  0
M  END
$$$$
default_name
  -OEChem-02102213163D

 31 30  0     1  0  0  0  0  0999 V2000
   -3.0760   -3.6390    1.5496 H   0  0  0  0  0  0  0  0  0  0  0  0
   -3.0940   -2.6290    1.1426 C   0  0  0  0  0  0  0  0  0  0  0  0
   -3.7160   -1.9930    1.7706 H   0  0  0  0  0  0  0  0  0  0  0  0
   -3.4880   -2.6500    0.1286 H   0  0  0  0  0  0  0  0  0  0  0  0
   -1.6860   -2.0850    1.1196 C   0  0  0  0  0  0  0  0  0  0  0  0
   -0.7540   -2.7700    1.5226 O   0  0  0  0  0  0  0  0  0  0  0  0
   -1.5320   -0.8490    0.6496 N   0  0  0  0  0  0  0  0  0  0  0  0
   -2.3500   -0.3360    0.3566 H   0  0  0  0  0  0  0  0  0  0  0  0
   -0.2470   -0.1410    0.5576 C   0  0  1  0  0  0  0  0  0  0  0  0
    0.4239   -0.7541   -0.0450 H   0  0  0  0  0  0  0  0  0  0  0  0
   -0.4317    1.2160   -0.1683 C   0  0  1  0  0  0  0  0  0  0  0  0
    0.4148    1.3353   -0.8473 H   0  0  0  0  0  0  0  0  0  0  0  0
   -1.7197    1.2612   -1.0125 C   0  0  0  0  0  0  0  0  0  0  0  0
   -2.6013    1.2215   -0.3702 H   0  0  0  0  0  0  0  0  0  0  0  0
   -1.7519    2.1743   -1.6047 H   0  0  0  0  0  0  0  0  0  0  0  0
   -1.7482    0.4163   -1.7015 H   0  0  0  0  0  0  0  0  0  0  0  0
   -0.3870    2.3911    0.8339 C   0  0  0  0  0  0  0  0  0  0  0  0
   -1.3856    2.5808    1.2298 H   0  0  0  0  0  0  0  0  0  0  0  0
    0.2641    2.1190    1.6646 H   0  0  0  0  0  0  0  0  0  0  0  0
    0.1575    3.6943    0.2334 C   0  0  0  0  0  0  0  0  0  0  0  0
   -0.5165    4.0718   -0.5354 H   0  0  0  0  0  0  0  0  0  0  0  0
    0.2415    4.4449    1.0197 H   0  0  0  0  0  0  0  0  0  0  0  0
    1.1438    3.5223   -0.1989 H   0  0  0  0  0  0  0  0  0  0  0  0
    0.3833   -0.0008    1.9525 C   0  0  0  0  0  0  0  0  0  0  0  0
    1.5803   -0.2304    2.1189 O   0  0  0  0  0  0  0  0  0  0  0  0
   -0.4170    0.3858    2.9541 N   0  0  0  0  0  0  0  0  0  0  0  0
   -1.3850    0.5669    2.7398 H   0  0  0  0  0  0  0  0  0  0  0  0
    0.0265    0.5600    4.3358 C   0  0  0  0  0  0  0  0  0  0  0  0
    0.8964    1.2200    4.3632 H   0  0  0  0  0  0  0  0  0  0  0  0
   -0.7726    0.9946    4.9382 H   0  0  0  0  0  0  0  0  0  0  0  0
    0.3119   -0.4069    4.7547 H   0  0  0  0  0  0  0  0  0  0  0  0
  5  6  2  0  0  0  0
  5  7  1  0  0  0  0
  2  3  1  0  0  0  0
  2  4  1  0  0  0  0
  2  5  1  0  0  0  0
  1  2  1  0  0  0  0
 24 25  2  0  0  0  0
 24 26  1  0  0  0  0
 20 21  1  0  0  0  0
 20 22  1  0  0  0  0
 20 23  1  0  0  0  0
 17 18  1  0  0  0  0
 17 19  1  0  0  0  0
 17 20  1  0  0  0  0
 13 14  1  0  0  0  0
 13 15  1  0  0  0  0
 13 16  1  0  0  0  0
 11 12  1  0  0  0  0
 11 13  1  0  0  0  0
 11 17  1  0  0  0  0
  9 10  1  0  0  0  0
  9 11  1  0  0  0  0
  9 24  1  0  0  0  0
  7  8  1  0  0  0  0
  7  9  1  0  0  0  0
 28 29  1  0  0  0  0
 28 30  1  0  0  0  0
 28 31  1  0  0  0  0
 26 27  1  0  0  0  0
 26 28  1  0  0  0  0
M  END
$$$$
default_name
  -OEChem-02102213163D

 31 30  0     1  0  0  0  0  0999 V2000
   -3.0760   -3.6390    1.5496 H   0  0  0  0  0  0  0  0  0  0  0  0
   -3.0940   -2.6290    1.1426 C   0  0  0  0  0  0  0  0  0  0  0  0
   -3.7160   -1.9930    1.7706 H   0  0  0  0  0  0  0  0  0  0  0  0
   -3.4880   -2.6500    0.1286 H   0  0  0  0  0  0  0  0  0  0  0  0
   -1.6860   -2.0850    1.1196 C   0  0  0  0  0  0  0  0  0  0  0  0
   -0.7540   -2.7700    1.5226 O   0  0  0  0  0  0  0  0  0  0  0  0
   -1.5320   -0.8490    0.6496 N   0  0  0  0  0  0  0  0  0  0  0  0
   -2.3500   -0.3360    0.3566 H   0  0  0  0  0  0  0  0  0  0  0  0
   -0.2470   -0.1410    0.5576 C   0  0  1  0  0  0  0  0  0  0  0  0
    0.4239   -0.7541   -0.0450 H   0  0  0  0  0  0  0  0  0  0  0  0
   -0.4317    1.2160   -0.1683 C   0  0  1  0  0  0  0  0  0  0  0  0
    0.4148    1.3353   -0.8473 H   0  0  0  0  0  0  0  0  0  0  0  0
   -1.7197    1.2612   -1.0125 C   0  0  0  0  0  0  0  0  0  0  0  0
   -2.6013    1.2215   -0.3702 H   0  0  0  0  0  0  0  0  0  0  0  0
   -1.7519    2.1743   -1.6047 H   0  0  0  0  0  0  0  0  0  0  0  0
   -1.7482    0.4163   -1.7015 H   0  0  0  0  0  0  0  0  0  0  0  0
   -0.3870    2.3911    0.8339 C   0  0  0  0  0  0  0  0  0  0  0  0
   -1.3052    2.4134    1.4225 H   0  0  0  0  0  0  0  0  0  0  0  0
    0.4515    2.2405    1.5138 H   0  0  0  0  0  0  0  0  0  0  0  0
   -0.1975    3.7618    0.1701 C   0  0  0  0  0  0  0  0  0  0  0  0
   -1.0634    4.0131   -0.4421 H   0  0  0  0  0  0  0  0  0  0  0  0
   -0.0865    4.5231    0.9426 H   0  0  0  0  0  0  0  0  0  0  0  0
    0.6986    3.7546   -0.4514 H   0  0  0  0  0  0  0  0  0  0  0  0
    0.3833   -0.0008    1.9525 C   0  0  0  0  0  0  0  0  0  0  0  0
    1.5803   -0.2304    2.1189 O   0  0  0  0  0  0  0  0  0  0  0  0
   -0.4170    0.3858    2.9541 N   0  0  0  0  0  0  0  0  0  0  0  0
   -1.3850    0.5669    2.7398 H   0  0  0  0  0  0  0  0  0  0  0  0
    0.0265    0.5600    4.3358 C   0  0  0  0  0  0  0  0  0  0  0  0
    0.8964    1.2200    4.3632 H   0  0  0  0  0  0  0  0  0  0  0  0
   -0.7726    0.9946    4.9382 H   0  0  0  0  0  0  0  0  0  0  0  0
    0.3119   -0.4069    4.7547 H   0  0  0  0  0  0  0  0  0  0  0  0
  5  6  2  0  0  0  0
  5  7  1  0  0  0  0
  2  3  1  0  0  0  0
  2  4  1  0  0  0  0
  2  5  1  0  0  0  0
  1  2  1  0  0  0  0
 24 25  2  0  0  0  0
 24 26  1  0  0  0  0
 20 21  1  0  0  0  0
 20 22  1  0  0  0  0
 20 23  1  0  0  0  0
 17 18  1  0  0  0  0
 17 19  1  0  0  0  0
 17 20  1  0  0  0  0
 13 14  1  0  0  0  0
 13 15  1  0  0  0  0
 13 16  1  0  0  0  0
 11 12  1  0  0  0  0
 11 13  1  0  0  0  0
 11 17  1  0  0  0  0
  9 10  1  0  0  0  0
  9 11  1  0  0  0  0
  9 24  1  0  0  0  0
  7  8  1  0  0  0  0
  7  9  1  0  0  0  0
 28 29  1  0  0  0  0
 28 30  1  0  0  0  0
 28 31  1  0  0  0  0
 26 27  1  0  0  0  0
 26 28  1  0  0  0  0
M  END
$$$$
default_name
  -OEChem-02102213163D

 31 30  0     1  0  0  0  0  0999 V2000
   -3.0760   -3.6390    1.5496 H   0  0  0  0  0  0  0  0  0  0  0  0
   -3.0940   -2.6290    1.1426 C   0  0  0  0  0  0  0  0  0  0  0  0
   -3.7160   -1.9930    1.7706 H   0  0  0  0  0  0  0  0  0  0  0  0
   -3.4880   -2.6500    0.1286 H   0  0  0  0  0  0  0  0  0  0  0  0
   -1.6860   -2.0850    1.1196 C   0  0  0  0  0  0  0  0  0  0  0  0
   -0.7540   -2.7700    1.5226 O   0  0  0  0  0  0  0  0  0  0  0  0
   -1.5320   -0.8490    0.6496 N   0  0  0  0  0  0  0  0  0  0  0  0
   -2.3500   -0.3360    0.3566 H   0  0  0  0  0  0  0  0  0  0  0  0
   -0.2470   -0.1410    0.5576 C   0  0  1  0  0  0  0  0  0  0  0  0
    0.4239   -0.7541   -0.0450 H   0  0  0  0  0  0  0  0  0  0  0  0
   -0.4317    1.2160   -0.1683 C   0  0  1  0  0  0  0  0  0  0  0  0
    0.2453    1.2173   -1.0248 H   0  0  0  0  0  0  0  0  0  0  0  0
   -1.8640    1.4073   -0.7026 C   0  0  0  0  0  0  0  0  0  0  0  0
   -2.5739    1.4888    0.1224 H   0  0  0  0  0  0  0  0  0  0  0  0
   -1.9230    2.3072   -1.3128 H   0  0  0  0  0  0  0  0  0  0  0  0
   -2.1484    0.5611   -1.3291 H   0  0  0  0  0  0  0  0  0  0  0  0
   -0.0212    2.3931    0.7446 C   0  0  0  0  0  0  0  0  0  0  0  0
   -0.6115    2.3761    1.6618 H   0  0  0  0  0  0  0  0  0  0  0  0
    1.0294    2.2798    1.0118 H   0  0  0  0  0  0  0  0  0  0  0  0
   -0.1799    3.7700    0.0855 C   0  0  0  0  0  0  0  0  0  0  0  0
   -1.2313    3.9826   -0.1072 H   0  0  0  0  0  0  0  0  0  0  0  0
    0.2117    4.5362    0.7548 H   0  0  0  0  0  0  0  0  0  0  0  0
    0.3759    3.8010   -0.8523 H   0  0  0  0  0  0  0  0  0  0  0  0
    0.3833   -0.0008    1.9525 C   0  0  0  0  0  0  0  0  0  0  0  0
    1.5803   -0.2304    2.1189 O   0  0  0  0  0  0  0  0  0  0  0  0
   -0.4170    0.3858    2.9541 N   0  0  0  0  0  0  0  0  0  0  0  0
   -1.3850    0.5669    2.7398 H   0  0  0  0  0  0  0  0  0  0  0  0
    0.0265    0.5600    4.3358 C   0  0  0  0  0  0  0  0  0  0  0  0
    0.8964    1.2200    4.3632 H   0  0  0  0  0  0  0  0  0  0  0  0
   -0.7726    0.9946    4.9382 H   0  0  0  0  0  0  0  0  0  0  0  0
    0.3119   -0.4069    4.7547 H   0  0  0  0  0  0  0  0  0  0  0  0
  5  6  2  0  0  0  0
  5  7  1  0  0  0  0
  2  3  1  0  0  0  0
  2  4  1  0  0  0  0
  2  5  1  0  0  0  0
  1  2  1  0  0  0  0
 24 25  2  0  0  0  0
 24 26  1  0  0  0  0
 20 21  1  0  0  0  0
 20 22  1  0  0  0  0
 20 23  1  0  0  0  0
 17 18  1  0  0  0  0
 17 19  1  0  0  0  0
 17 20  1  0  0  0  0
 13 14  1  0  0  0  0
 13 15  1  0  0  0  0
 13 16  1  0  0  0  0
 11 12  1  0  0  0  0
 11 13  1  0  0  0  0
 11 17  1  0  0  0  0
  9 10  1  0  0  0  0
  9 11  1  0  0  0  0
  9 24  1  0  0  0  0
  7  8  1  0  0  0  0
  7  9  1  0  0  0  0
 28 29  1  0  0  0  0
 28 30  1  0  0  0  0
 28 31  1  0  0  0  0
 26 27  1  0  0  0  0
 26 28  1  0  0  0  0
M  END
$$$$
default_name
  -OEChem-02102213163D

 31 30  0     1  0  0  0  0  0999 V2000
   -3.0760   -3.6390    1.5496 H   0  0  0  0  0  0  0  0  0  0  0  0
   -3.0940   -2.6290    1.1426 C   0  0  0  0  0  0  0  0  0  0  0  0
   -3.7160   -1.9930    1.7706 H   0  0  0  0  0  0  0  0  0  0  0  0
   -3.4880   -2.6500    0.1286 H   0  0  0  0  0  0  0  0  0  0  0  0
   -1.6860   -2.0850    1.1196 C   0  0  0  0  0  0  0  0  0  0  0  0
   -0.7540   -2.7700    1.5226 O   0  0  0  0  0  0  0  0  0  0  0  0
   -1.5320   -0.8490    0.6496 N   0  0  0  0  0  0  0  0  0  0  0  0
   -2.3500   -0.3360    0.3566 H   0  0  0  0  0  0  0  0  0  0  0  0
   -0.2470   -0.1410    0.5576 C   0  0  1  0  0  0  0  0  0  0  0  0
    0.4239   -0.7541   -0.0450 H   0  0  0  0  0  0  0  0  0  0  0  0
   -0.4317    1.2160   -0.1683 C   0  0  1  0  0  0  0  0  0  0  0  0
    0.2453    1.2173   -1.0248 H   0  0  0  0  0  0  0  0  0  0  0  0
   -1.8640    1.4073   -0.7026 C   0  0  0  0  0  0  0  0  0  0  0  0
   -2.5739    1.4888    0.1224 H   0  0  0  0  0  0  0  0  0  0  0  0
   -1.9230    2.3072   -1.3128 H   0  0  0  0  0  0  0  0  0  0  0  0
   -2.1484    0.5611   -1.3291 H   0  0  0  0  0  0  0  0  0  0  0  0
   -0.0212    2.3931    0.7446 C   0  0  0  0  0  0  0  0  0  0  0  0
   -0.4045    2.2331    1.7532 H   0  0  0  0  0  0  0  0  0  0  0  0
    1.0668    2.4350    0.7948 H   0  0  0  0  0  0  0  0  0  0  0  0
   -0.5094    3.7601    0.2463 C   0  0  0  0  0  0  0  0  0  0  0  0
   -1.5976    3.8120    0.2775 H   0  0  0  0  0  0  0  0  0  0  0  0
   -0.1065    4.5423    0.8901 H   0  0  0  0  0  0  0  0  0  0  0  0
   -0.1656    3.9296   -0.7746 H   0  0  0  0  0  0  0  0  0  0  0  0
    0.3833   -0.0008    1.9525 C   0  0  0  0  0  0  0  0  0  0  0  0
    1.5803   -0.2304    2.1189 O   0  0  0  0  0  0  0  0  0  0  0  0
   -0.4170    0.3858    2.9541 N   0  0  0  0  0  0  0  0  0  0  0  0
   -1.3850    0.5669    2.7398 H   0  0  0  0  0  0  0  0  0  0  0  0
    0.0265    0.5600    4.3358 C   0  0  0  0  0  0  0  0  0  0  0  0
    0.8964    1.2200    4.3632 H   0  0  0  0  0  0  0  0  0  0  0  0
   -0.7726    0.9946    4.9382 H   0  0  0  0  0  0  0  0  0  0  0  0
    0.3119   -0.4069    4.7547 H   0  0  0  0  0  0  0  0  0  0  0  0
  5  6  2  0  0  0  0
  5  7  1  0  0  0  0
  2  3  1  0  0  0  0
  2  4  1  0  0  0  0
  2  5  1  0  0  0  0
  1  2  1  0  0  0  0
 24 25  2  0  0  0  0
 24 26  1  0  0  0  0
 20 21  1  0  0  0  0
 20 22  1  0  0  0  0
 20 23  1  0  0  0  0
 17 18  1  0  0  0  0
 17 19  1  0  0  0  0
 17 20  1  0  0  0  0
 13 14  1  0  0  0  0
 13 15  1  0  0  0  0
 13 16  1  0  0  0  0
 11 12  1  0  0  0  0
 11 13  1  0  0  0  0
 11 17  1  0  0  0  0
  9 10  1  0  0  0  0
  9 11  1  0  0  0  0
  9 24  1  0  0  0  0
  7  8  1  0  0  0  0
  7  9  1  0  0  0  0
 28 29  1  0  0  0  0
 28 30  1  0  0  0  0
 28 31  1  0  0  0  0
 26 27  1  0  0  0  0
 26 28  1  0  0  0  0
M  END
$$$$
default_name
  -OEChem-02102213163D

 31 30  0     1  0  0  0  0  0999 V2000
   -3.0760   -3.6390    1.5496 H   0  0  0  0  0  0  0  0  0  0  0  0
   -3.0940   -2.6290    1.1426 C   0  0  0  0  0  0  0  0  0  0  0  0
   -3.7160   -1.9930    1.7706 H   0  0  0  0  0  0  0  0  0  0  0  0
   -3.4880   -2.6500    0.1286 H   0  0  0  0  0  0  0  0  0  0  0  0
   -1.6860   -2.0850    1.1196 C   0  0  0  0  0  0  0  0  0  0  0  0
   -0.7540   -2.7700    1.5226 O   0  0  0  0  0  0  0  0  0  0  0  0
   -1.5320   -0.8490    0.6496 N   0  0  0  0  0  0  0  0  0  0  0  0
   -2.3500   -0.3360    0.3566 H   0  0  0  0  0  0  0  0  0  0  0  0
   -0.2470   -0.1410    0.5576 C   0  0  1  0  0  0  0  0  0  0  0  0
    0.4239   -0.7541   -0.0450 H   0  0  0  0  0  0  0  0  0  0  0  0
   -0.4317    1.2160   -0.1683 C   0  0  1  0  0  0  0  0  0  0  0  0
    0.2453    1.2173   -1.0248 H   0  0  0  0  0  0  0  0  0  0  0  0
   -1.8640    1.4073   -0.7026 C   0  0  0  0  0  0  0  0  0  0  0  0
   -2.5739    1.4888    0.1224 H   0  0  0  0  0  0  0  0  0  0  0  0
   -1.9230    2.3072   -1.3128 H   0  0  0  0  0  0  0  0  0  0  0  0
   -2.1484    0.5611   -1.3291 H   0  0  0  0  0  0  0  0  0  0  0  0
   -0.0212    2.3931    0.7446 C   0  0  0  0  0  0  0  0  0  0  0  0
   -0.1648    2.1202    1.7909 H   0  0  0  0  0  0  0  0  0  0  0  0
    1.0364    2.6056    0.5885 H   0  0  0  0  0  0  0  0  0  0  0  0
   -0.7945    3.6892    0.4660 C   0  0  0  0  0  0  0  0  0  0  0  0
   -1.8495    3.5648    0.7096 H   0  0  0  0  0  0  0  0  0  0  0  0
   -0.3881    4.4901    1.0840 H   0  0  0  0  0  0  0  0  0  0  0  0
   -0.6931    3.9657   -0.5841 H   0  0  0  0  0  0  0  0  0  0  0  0
    0.3833   -0.0008    1.9525 C   0  0  0  0  0  0  0  0  0  0  0  0
    1.5803   -0.2304    2.1189 O   0  0  0  0  0  0  0  0  0  0  0  0
   -0.4170    0.3858    2.9541 N   0  0  0  0  0  0  0  0  0  0  0  0
   -1.3850    0.5669    2.7398 H   0  0  0  0  0  0  0  0  0  0  0  0
    0.0265    0.5600    4.3358 C   0  0  0  0  0  0  0  0  0  0  0  0
    0.8964    1.2200    4.3632 H   0  0  0  0  0  0  0  0  0  0  0  0
   -0.7726    0.9946    4.9382 H   0  0  0  0  0  0  0  0  0  0  0  0
    0.3119   -0.4069    4.7547 H   0  0  0  0  0  0  0  0  0  0  0  0
  5  6  2  0  0  0  0
  5  7  1  0  0  0  0
  2  3  1  0  0  0  0
  2  4  1  0  0  0  0
  2  5  1  0  0  0  0
  1  2  1  0  0  0  0
 24 25  2  0  0  0  0
 24 26  1  0  0  0  0
 20 21  1  0  0  0  0
 20 22  1  0  0  0  0
 20 23  1  0  0  0  0
 17 18  1  0  0  0  0
 17 19  1  0  0  0  0
 17 20  1  0  0  0  0
 13 14  1  0  0  0  0
 13 15  1  0  0  0  0
 13 16  1  0  0  0  0
 11 12  1  0  0  0  0
 11 13  1  0  0  0  0
 11 17  1  0  0  0  0
  9 10  1  0  0  0  0
  9 11  1  0  0  0  0
  9 24  1  0  0  0  0
  7  8  1  0  0  0  0
  7  9  1  0  0  0  0
 28 29  1  0  0  0  0
 28 30  1  0  0  0  0
 28 31  1  0  0  0  0
 26 27  1  0  0  0  0
 26 28  1  0  0  0  0
M  END
$$$$
default_name
  -OEChem-02102213163D

 31 30  0     1  0  0  0  0  0999 V2000
   -3.0760   -3.6390    1.5496 H   0  0  0  0  0  0  0  0  0  0  0  0
   -3.0940   -2.6290    1.1426 C   0  0  0  0  0  0  0  0  0  0  0  0
   -3.7160   -1.9930    1.7706 H   0  0  0  0  0  0  0  0  0  0  0  0
   -3.4880   -2.6500    0.1286 H   0  0  0  0  0  0  0  0  0  0  0  0
   -1.6860   -2.0850    1.1196 C   0  0  0  0  0  0  0  0  0  0  0  0
   -0.7540   -2.7700    1.5226 O   0  0  0  0  0  0  0  0  0  0  0  0
   -1.5320   -0.8490    0.6496 N   0  0  0  0  0  0  0  0  0  0  0  0
   -2.3500   -0.3360    0.3566 H   0  0  0  0  0  0  0  0  0  0  0  0
   -0.2470   -0.1410    0.5576 C   0  0  1  0  0  0  0  0  0  0  0  0
    0.4239   -0.7541   -0.0450 H   0  0  0  0  0  0  0  0  0  0  0  0
   -0.4317    1.2160   -0.1683 C   0  0  1  0  0  0  0  0  0  0  0  0
    0.2453    1.2173   -1.0248 H   0  0  0  0  0  0  0  0  0  0  0  0
   -1.8640    1.4073   -0.7026 C   0  0  0  0  0  0  0  0  0  0  0  0
   -2.5739    1.4888    0.1224 H   0  0  0  0  0  0  0  0  0  0  0  0
   -1.9230    2.3072   -1.3128 H   0  0  0  0  0  0  0  0  0  0  0  0
   -2.1484    0.5611   -1.3291 H   0  0  0  0  0  0  0  0  0  0  0  0
   -0.0212    2.3931    0.7446 C   0  0  0  0  0  0  0  0  0  0  0  0
    0.0915    2.0453    1.7723 H   0  0  0  0  0  0  0  0  0  0  0  0
    0.9402    2.7799    0.4070 H   0  0  0  0  0  0  0  0  0  0  0  0
   -1.0157    3.5619    0.7295 C   0  0  0  0  0  0  0  0  0  0  0  0
   -1.9697    3.2577    1.1596 H   0  0  0  0  0  0  0  0  0  0  0  0
   -0.6140    4.3834    1.3231 H   0  0  0  0  0  0  0  0  0  0  0  0
   -1.1705    3.9068   -0.2935 H   0  0  0  0  0  0  0  0  0  0  0  0
    0.3833   -0.0008    1.9525 C   0  0  0  0  0  0  0  0  0  0  0  0
    1.5803   -0.2304    2.1189 O   0  0  0  0  0  0  0  0  0  0  0  0
   -0.4170    0.3858    2.9541 N   0  0  0  0  0  0  0  0  0  0  0  0
   -1.3850    0.5669    2.7398 H   0  0  0  0  0  0  0  0  0  0  0  0
    0.0265    0.5600    4.3358 C   0  0  0  0  0  0  0  0  0  0  0  0
    0.8964    1.2200    4.3632 H   0  0  0  0  0  0  0  0  0  0  0  0
   -0.7726    0.9946    4.9382 H   0  0  0  0  0  0  0  0  0  0  0  0
    0.3119   -0.4069    4.7547 H   0  0  0  0  0  0  0  0  0  0  0  0
  5  6  2  0  0  0  0
  5  7  1  0  0  0  0
  2  3  1  0  0  0  0
  2  4  1  0  0  0  0
  2  5  1  0  0  0  0
  1  2  1  0  0  0  0
 24 25  2  0  0  0  0
 24 26  1  0  0  0  0
 20 21  1  0  0  0  0
 20 22  1  0  0  0  0
 20 23  1  0  0  0  0
 17 18  1  0  0  0  0
 17 19  1  0  0  0  0
 17 20  1  0  0  0  0
 13 14  1  0  0  0  0
 13 15  1  0  0  0  0
 13 16  1  0  0  0  0
 11 12  1  0  0  0  0
 11 13  1  0  0  0  0
 11 17  1  0  0  0  0
  9 10  1  0  0  0  0
  9 11  1  0  0  0  0
  9 24  1  0  0  0  0
  7  8  1  0  0  0  0
  7  9  1  0  0  0  0
 28 29  1  0  0  0  0
 28 30  1  0  0  0  0
 28 31  1  0  0  0  0
 26 27  1  0  0  0  0
 26 28  1  0  0  0  0
M  END
$$$$
default_name
  -OEChem-02102213163D

 31 30  0     1  0  0  0  0  0999 V2000
   -3.0760   -3.6390    1.5496 H   0  0  0  0  0  0  0  0  0  0  0  0
   -3.0940   -2.6290    1.1426 C   0  0  0  0  0  0  0  0  0  0  0  0
   -3.7160   -1.9930    1.7706 H   0  0  0  0  0  0  0  0  0  0  0  0
   -3.4880   -2.6500    0.1286 H   0  0  0  0  0  0  0  0  0  0  0  0
   -1.6860   -2.0850    1.1196 C   0  0  0  0  0  0  0  0  0  0  0  0
   -0.7540   -2.7700    1.5226 O   0  0  0  0  0  0  0  0  0  0  0  0
   -1.5320   -0.8490    0.6496 N   0  0  0  0  0  0  0  0  0  0  0  0
   -2.3500   -0.3360    0.3566 H   0  0  0  0  0  0  0  0  0  0  0  0
   -0.2470   -0.1410    0.5576 C   0  0  1  0  0  0  0  0  0  0  0  0
    0.4239   -0.7541   -0.0450 H   0  0  0  0  0  0  0  0  0  0  0  0
   -0.4317    1.2160   -0.1683 C   0  0  1  0  0  0  0  0  0  0  0  0
    0.2453    1.2173   -1.0248 H   0  0  0  0  0  0  0  0  0  0  0  0
   -1.8640    1.4073   -0.7026 C   0  0  0  0  0  0  0  0  0  0  0  0
   -2.5739    1.4888    0.1224 H   0  0  0  0  0  0  0  0  0  0  0  0
   -1.9230    2.3072   -1.3128 H   0  0  0  0  0  0  0  0  0  0  0  0
   -2.1484    0.5611   -1.3291 H   0  0  0  0  0  0  0  0  0  0  0  0
   -0.0212    2.3931    0.7446 C   0  0  0  0  0  0  0  0  0  0  0  0
    0.3469    2.0134    1.6986 H   0  0  0  0  0  0  0  0  0  0  0  0
    0.7849    2.9461    0.2626 H   0  0  0  0  0  0  0  0  0  0  0  0
   -1.1579    3.3871    1.0188 C   0  0  0  0  0  0  0  0  0  0  0  0
   -1.9502    2.9118    1.5969 H   0  0  0  0  0  0  0  0  0  0  0  0
   -0.7686    4.2293    1.5914 H   0  0  0  0  0  0  0  0  0  0  0  0
   -1.5653    3.7570    0.0773 H   0  0  0  0  0  0  0  0  0  0  0  0
    0.3833   -0.0008    1.9525 C   0  0  0  0  0  0  0  0  0  0  0  0
    1.5803   -0.2304    2.1189 O   0  0  0  0  0  0  0  0  0  0  0  0
   -0.4170    0.3858    2.9541 N   0  0  0  0  0  0  0  0  0  0  0  0
   -1.3850    0.5669    2.7398 H   0  0  0  0  0  0  0  0  0  0  0  0
    0.0265    0.5600    4.3358 C   0  0  0  0  0  0  0  0  0  0  0  0
    0.8964    1.2200    4.3632 H   0  0  0  0  0  0  0  0  0  0  0  0
   -0.7726    0.9946    4.9382 H   0  0  0  0  0  0  0  0  0  0  0  0
    0.3119   -0.4069    4.7547 H   0  0  0  0  0  0  0  0  0  0  0  0
  5  6  2  0  0  0  0
  5  7  1  0  0  0  0
  2  3  1  0  0  0  0
  2  4  1  0  0  0  0
  2  5  1  0  0  0  0
  1  2  1  0  0  0  0
 24 25  2  0  0  0  0
 24 26  1  0  0  0  0
 20 21  1  0  0  0  0
 20 22  1  0  0  0  0
 20 23  1  0  0  0  0
 17 18  1  0  0  0  0
 17 19  1  0  0  0  0
 17 20  1  0  0  0  0
 13 14  1  0  0  0  0
 13 15  1  0  0  0  0
 13 16  1  0  0  0  0
 11 12  1  0  0  0  0
 11 13  1  0  0  0  0
 11 17  1  0  0  0  0
  9 10  1  0  0  0  0
  9 11  1  0  0  0  0
  9 24  1  0  0  0  0
  7  8  1  0  0  0  0
  7  9  1  0  0  0  0
 28 29  1  0  0  0  0
 28 30  1  0  0  0  0
 28 31  1  0  0  0  0
 26 27  1  0  0  0  0
 26 28  1  0  0  0  0
M  END
$$$$
default_name
  -OEChem-02102213163D

 31 30  0     1  0  0  0  0  0999 V2000
   -3.0760   -3.6390    1.5496 H   0  0  0  0  0  0  0  0  0  0  0  0
   -3.0940   -2.6290    1.1426 C   0  0  0  0  0  0  0  0  0  0  0  0
   -3.7160   -1.9930    1.7706 H   0  0  0  0  0  0  0  0  0  0  0  0
   -3.4880   -2.6500    0.1286 H   0  0  0  0  0  0  0  0  0  0  0  0
   -1.6860   -2.0850    1.1196 C   0  0  0  0  0  0  0  0  0  0  0  0
   -0.7540   -2.7700    1.5226 O   0  0  0  0  0  0  0  0  0  0  0  0
   -1.5320   -0.8490    0.6496 N   0  0  0  0  0  0  0  0  0  0  0  0
   -2.3500   -0.3360    0.3566 H   0  0  0  0  0  0  0  0  0  0  0  0
   -0.2470   -0.1410    0.5576 C   0  0  1  0  0  0  0  0  0  0  0  0
    0.4239   -0.7541   -0.0450 H   0  0  0  0  0  0  0  0  0  0  0  0
   -0.4317    1.2160   -0.1683 C   0  0  1  0  0  0  0  0  0  0  0  0
    0.2453    1.2173   -1.0248 H   0  0  0  0  0  0  0  0  0  0  0  0
   -1.8640    1.4073   -0.7026 C   0  0  0  0  0  0  0  0  0  0  0  0
   -2.5739    1.4888    0.1224 H   0  0  0  0  0  0  0  0  0  0  0  0
   -1.9230    2.3072   -1.3128 H   0  0  0  0  0  0  0  0  0  0  0  0
   -2.1484    0.5611   -1.3291 H   0  0  0  0  0  0  0  0  0  0  0  0
   -0.0212    2.3931    0.7446 C   0  0  0  0  0  0  0  0  0  0  0  0
    0.5839    2.0267    1.5749 H   0  0  0  0  0  0  0  0  0  0  0  0
    0.5810    3.0928    0.1651 H   0  0  0  0  0  0  0  0  0  0  0  0
   -1.2115    3.1766    1.3144 C   0  0  0  0  0  0  0  0  0  0  0  0
   -1.7923    2.5506    1.9916 H   0  0  0  0  0  0  0  0  0  0  0  0
   -0.8416    4.0384    1.8704 H   0  0  0  0  0  0  0  0  0  0  0  0
   -1.8507    3.5264    0.5030 H   0  0  0  0  0  0  0  0  0  0  0  0
    0.3833   -0.0008    1.9525 C   0  0  0  0  0  0  0  0  0  0  0  0
    1.5803   -0.2304    2.1189 O   0  0  0  0  0  0  0  0  0  0  0  0
   -0.4170    0.3858    2.9541 N   0  0  0  0  0  0  0  0  0  0  0  0
   -1.3850    0.5669    2.7398 H   0  0  0  0  0  0  0  0  0  0  0  0
    0.0265    0.5600    4.3358 C   0  0  0  0  0  0  0  0  0  0  0  0
    0.8964    1.2200    4.3632 H   0  0  0  0  0  0  0  0  0  0  0  0
   -0.7726    0.9946    4.9382 H   0  0  0  0  0  0  0  0  0  0  0  0
    0.3119   -0.4069    4.7547 H   0  0  0  0  0  0  0  0  0  0  0  0
  5  6  2  0  0  0  0
  5  7  1  0  0  0  0
  2  3  1  0  0  0  0
  2  4  1  0  0  0  0
  2  5  1  0  0  0  0
  1  2  1  0  0  0  0
 24 25  2  0  0  0  0
 24 26  1  0  0  0  0
 20 21  1  0  0  0  0
 20 22  1  0  0  0  0
 20 23  1  0  0  0  0
 17 18  1  0  0  0  0
 17 19  1  0  0  0  0
 17 20  1  0  0  0  0
 13 14  1  0  0  0  0
 13 15  1  0  0  0  0
 13 16  1  0  0  0  0
 11 12  1  0  0  0  0
 11 13  1  0  0  0  0
 11 17  1  0  0  0  0
  9 10  1  0  0  0  0
  9 11  1  0  0  0  0
  9 24  1  0  0  0  0
  7  8  1  0  0  0  0
  7  9  1  0  0  0  0
 28 29  1  0  0  0  0
 28 30  1  0  0  0  0
 28 31  1  0  0  0  0
 26 27  1  0  0  0  0
 26 28  1  0  0  0  0
M  END
$$$$
default_name
  -OEChem-02102213163D

 31 30  0     1  0  0  0  0  0999 V2000
   -3.0760   -3.6390    1.5496 H   0  0  0  0  0  0  0  0  0  0  0  0
   -3.0940   -2.6290    1.1426 C   0  0  0  0  0  0  0  0  0  0  0  0
   -3.7160   -1.9930    1.7706 H   0  0  0  0  0  0  0  0  0  0  0  0
   -3.4880   -2.6500    0.1286 H   0  0  0  0  0  0  0  0  0  0  0  0
   -1.6860   -2.0850    1.1196 C   0  0  0  0  0  0  0  0  0  0  0  0
   -0.7540   -2.7700    1.5226 O   0  0  0  0  0  0  0  0  0  0  0  0
   -1.5320   -0.8490    0.6496 N   0  0  0  0  0  0  0  0  0  0  0  0
   -2.3500   -0.3360    0.3566 H   0  0  0  0  0  0  0  0  0  0  0  0
   -0.2470   -0.1410    0.5576 C   0  0  1  0  0  0  0  0  0  0  0  0
    0.4239   -0.7541   -0.0450 H   0  0  0  0  0  0  0  0  0  0  0  0
   -0.4317    1.2160   -0.1683 C   0  0  1  0  0  0  0  0  0  0  0  0
    0.2453    1.2173   -1.0248 H   0  0  0  0  0  0  0  0  0  0  0  0
   -1.8640    1.4073   -0.7026 C   0  0  0  0  0  0  0  0  0  0  0  0
   -2.5739    1.4888    0.1224 H   0  0  0  0  0  0  0  0  0  0  0  0
   -1.9230    2.3072   -1.3128 H   0  0  0  0  0  0  0  0  0  0  0  0
   -2.1484    0.5611   -1.3291 H   0  0  0  0  0  0  0  0  0  0  0  0
   -0.0212    2.3931    0.7446 C   0  0  0  0  0  0  0  0  0  0  0  0
    0.7864    2.0843    1.4096 H   0  0  0  0  0  0  0  0  0  0  0  0
    0.3424    3.2100    0.1213 H   0  0  0  0  0  0  0  0  0  0  0  0
   -1.1728    2.9448    1.5960 C   0  0  0  0  0  0  0  0  0  0  0  0
   -1.5066    2.1987    2.3169 H   0  0  0  0  0  0  0  0  0  0  0  0
   -0.8278    3.8236    2.1411 H   0  0  0  0  0  0  0  0  0  0  0  0
   -2.0072    3.2307    0.9546 H   0  0  0  0  0  0  0  0  0  0  0  0
    0.3833   -0.0008    1.9525 C   0  0  0  0  0  0  0  0  0  0  0  0
    1.5803   -0.2304    2.1189 O   0  0  0  0  0  0  0  0  0  0  0  0
   -0.4170    0.3858    2.9541 N   0  0  0  0  0  0  0  0  0  0  0  0
   -1.3850    0.5669    2.7398 H   0  0  0  0  0  0  0  0  0  0  0  0
    0.0265    0.5600    4.3358 C   0  0  0  0  0  0  0  0  0  0  0  0
    0.8964    1.2200    4.3632 H   0  0  0  0  0  0  0  0  0  0  0  0
   -0.7726    0.9946    4.9382 H   0  0  0  0  0  0  0  0  0  0  0  0
    0.3119   -0.4069    4.7547 H   0  0  0  0  0  0  0  0  0  0  0  0
  5  6  2  0  0  0  0
  5  7  1  0  0  0  0
  2  3  1  0  0  0  0
  2  4  1  0  0  0  0
  2  5  1  0  0  0  0
  1  2  1  0  0  0  0
 24 25  2  0  0  0  0
 24 26  1  0  0  0  0
 20 21  1  0  0  0  0
 20 22  1  0  0  0  0
 20 23  1  0  0  0  0
 17 18  1  0  0  0  0
 17 19  1  0  0  0  0
 17 20  1  0  0  0  0
 13 14  1  0  0  0  0
 13 15  1  0  0  0  0
 13 16  1  0  0  0  0
 11 12  1  0  0  0  0
 11 13  1  0  0  0  0
 11 17  1  0  0  0  0
  9 10  1  0  0  0  0
  9 11  1  0  0  0  0
  9 24  1  0  0  0  0
  7  8  1  0  0  0  0
  7  9  1  0  0  0  0
 28 29  1  0  0  0  0
 28 30  1  0  0  0  0
 28 31  1  0  0  0  0
 26 27  1  0  0  0  0
 26 28  1  0  0  0  0
M  END
$$$$
default_name
  -OEChem-02102213163D

 31 30  0     1  0  0  0  0  0999 V2000
   -3.0760   -3.6390    1.5496 H   0  0  0  0  0  0  0  0  0  0  0  0
   -3.0940   -2.6290    1.1426 C   0  0  0  0  0  0  0  0  0  0  0  0
   -3.7160   -1.9930    1.7706 H   0  0  0  0  0  0  0  0  0  0  0  0
   -3.4880   -2.6500    0.1286 H   0  0  0  0  0  0  0  0  0  0  0  0
   -1.6860   -2.0850    1.1196 C   0  0  0  0  0  0  0  0  0  0  0  0
   -0.7540   -2.7700    1.5226 O   0  0  0  0  0  0  0  0  0  0  0  0
   -1.5320   -0.8490    0.6496 N   0  0  0  0  0  0  0  0  0  0  0  0
   -2.3500   -0.3360    0.3566 H   0  0  0  0  0  0  0  0  0  0  0  0
   -0.2470   -0.1410    0.5576 C   0  0  1  0  0  0  0  0  0  0  0  0
    0.4239   -0.7541   -0.0450 H   0  0  0  0  0  0  0  0  0  0  0  0
   -0.4317    1.2160   -0.1683 C   0  0  1  0  0  0  0  0  0  0  0  0
    0.2453    1.2173   -1.0248 H   0  0  0  0  0  0  0  0  0  0  0  0
   -1.8640    1.4073   -0.7026 C   0  0  0  0  0  0  0  0  0  0  0  0
   -2.5739    1.4888    0.1224 H   0  0  0  0  0  0  0  0  0  0  0  0
   -1.9230    2.3072   -1.3128 H   0  0  0  0  0  0  0  0  0  0  0  0
   -2.1484    0.5611   -1.3291 H   0  0  0  0  0  0  0  0  0  0  0  0
   -0.0212    2.3931    0.7446 C   0  0  0  0  0  0  0  0  0  0  0  0
    0.9406    2.1823    1.2140 H   0  0  0  0  0  0  0  0  0  0  0  0
    0.0854    3.2897    0.1340 H   0  0  0  0  0  0  0  0  0  0  0  0
   -1.0445    2.7074    1.8444 C   0  0  0  0  0  0  0  0  0  0  0  0
   -1.1128    1.8801    2.5506 H   0  0  0  0  0  0  0  0  0  0  0  0
   -0.7283    3.5997    2.3852 H   0  0  0  0  0  0  0  0  0  0  0  0
   -2.0241    2.8901    1.4013 H   0  0  0  0  0  0  0  0  0  0  0  0
    0.3833   -0.0008    1.9525 C   0  0  0  0  0  0  0  0  0  0  0  0
    1.5803   -0.2304    2.1189 O   0  0  0  0  0  0  0  0  0  0  0  0
   -0.4170    0.3858    2.9541 N   0  0  0  0  0  0  0  0  0  0  0  0
   -1.3850    0.5669    2.7398 H   0  0  0  0  0  0  0  0  0  0  0  0
    0.0265    0.5600    4.3358 C   0  0  0  0  0  0  0  0  0  0  0  0
    0.8964    1.2200    4.3632 H   0  0  0  0  0  0  0  0  0  0  0  0
   -0.7726    0.9946    4.9382 H   0  0  0  0  0  0  0  0  0  0  0  0
    0.3119   -0.4069    4.7547 H   0  0  0  0  0  0  0  0  0  0  0  0
  5  6  2  0  0  0  0
  5  7  1  0  0  0  0
  2  3  1  0  0  0  0
  2  4  1  0  0  0  0
  2  5  1  0  0  0  0
  1  2  1  0  0  0  0
 24 25  2  0  0  0  0
 24 26  1  0  0  0  0
 20 21  1  0  0  0  0
 20 22  1  0  0  0  0
 20 23  1  0  0  0  0
 17 18  1  0  0  0  0
 17 19  1  0  0  0  0
 17 20  1  0  0  0  0
 13 14  1  0  0  0  0
 13 15  1  0  0  0  0
 13 16  1  0  0  0  0
 11 12  1  0  0  0  0
 11 13  1  0  0  0  0
 11 17  1  0  0  0  0
  9 10  1  0  0  0  0
  9 11  1  0  0  0  0
  9 24  1  0  0  0  0
  7  8  1  0  0  0  0
  7  9  1  0  0  0  0
 28 29  1  0  0  0  0
 28 30  1  0  0  0  0
 28 31  1  0  0  0  0
 26 27  1  0  0  0  0
 26 28  1  0  0  0  0
M  END
$$$$
default_name
  -OEChem-02102213163D

 31 30  0     1  0  0  0  0  0999 V2000
   -3.0760   -3.6390    1.5496 H   0  0  0  0  0  0  0  0  0  0  0  0
   -3.0940   -2.6290    1.1426 C   0  0  0  0  0  0  0  0  0  0  0  0
   -3.7160   -1.9930    1.7706 H   0  0  0  0  0  0  0  0  0  0  0  0
   -3.4880   -2.6500    0.1286 H   0  0  0  0  0  0  0  0  0  0  0  0
   -1.6860   -2.0850    1.1196 C   0  0  0  0  0  0  0  0  0  0  0  0
   -0.7540   -2.7700    1.5226 O   0  0  0  0  0  0  0  0  0  0  0  0
   -1.5320   -0.8490    0.6496 N   0  0  0  0  0  0  0  0  0  0  0  0
   -2.3500   -0.3360    0.3566 H   0  0  0  0  0  0  0  0  0  0  0  0
   -0.2470   -0.1410    0.5576 C   0  0  1  0  0  0  0  0  0  0  0  0
    0.4239   -0.7541   -0.0450 H   0  0  0  0  0  0  0  0  0  0  0  0
   -0.4317    1.2160   -0.1683 C   0  0  1  0  0  0  0  0  0  0  0  0
    0.2453    1.2173   -1.0248 H   0  0  0  0  0  0  0  0  0  0  0  0
   -1.8640    1.4073   -0.7026 C   0  0  0  0  0  0  0  0  0  0  0  0
   -2.5739    1.4888    0.1224 H   0  0  0  0  0  0  0  0  0  0  0  0
   -1.9230    2.3072   -1.3128 H   0  0  0  0  0  0  0  0  0  0  0  0
   -2.1484    0.5611   -1.3291 H   0  0  0  0  0  0  0  0  0  0  0  0
   -0.0212    2.3931    0.7446 C   0  0  0  0  0  0  0  0  0  0  0  0
    1.0360    2.3139    1.0013 H   0  0  0  0  0  0  0  0  0  0  0  0
   -0.1725    3.3265    0.2025 H   0  0  0  0  0  0  0  0  0  0  0  0
   -0.8352    2.4806    2.0427 C   0  0  0  0  0  0  0  0  0  0  0  0
   -0.6375    1.6166    2.6768 H   0  0  0  0  0  0  0  0  0  0  0  0
   -0.5499    3.3818    2.5859 H   0  0  0  0  0  0  0  0  0  0  0  0
   -1.9002    2.5279    1.8127 H   0  0  0  0  0  0  0  0  0  0  0  0
    0.3833   -0.0008    1.9525 C   0  0  0  0  0  0  0  0  0  0  0  0
    1.5803   -0.2304    2.1189 O   0  0  0  0  0  0  0  0  0  0  0  0
   -0.4170    0.3858    2.9541 N   0  0  0  0  0  0  0  0  0  0  0  0
   -1.3850    0.5669    2.7398 H   0  0  0  0  0  0  0  0  0  0  0  0
    0.0265    0.5600    4.3358 C   0  0  0  0  0  0  0  0  0  0  0  0
    0.8964    1.2200    4.3632 H   0  0  0  0  0  0  0  0  0  0  0  0
   -0.7726    0.9946    4.9382 H   0  0  0  0  0  0  0  0  0  0  0  0
    0.3119   -0.4069    4.7547 H   0  0  0  0  0  0  0  0  0  0  0  0
  5  6  2  0  0  0  0
  5  7  1  0  0  0  0
  2  3  1  0  0  0  0
  2  4  1  0  0  0  0
  2  5  1  0  0  0  0
  1  2  1  0  0  0  0
 24 25  2  0  0  0  0
 24 26  1  0  0  0  0
 20 21  1  0  0  0  0
 20 22  1  0  0  0  0
 20 23  1  0  0  0  0
 17 18  1  0  0  0  0
 17 19  1  0  0  0  0
 17 20  1  0  0  0  0
 13 14  1  0  0  0  0
 13 15  1  0  0  0  0
 13 16  1  0  0  0  0
 11 12  1  0  0  0  0
 11 13  1  0  0  0  0
 11 17  1  0  0  0  0
  9 10  1  0  0  0  0
  9 11  1  0  0  0  0
  9 24  1  0  0  0  0
  7  8  1  0  0  0  0
  7  9  1  0  0  0  0
 28 29  1  0  0  0  0
 28 30  1  0  0  0  0
 28 31  1  0  0  0  0
 26 27  1  0  0  0  0
 26 28  1  0  0  0  0
M  END
$$$$
default_name
  -OEChem-02102213163D

 31 30  0     1  0  0  0  0  0999 V2000
   -3.0760   -3.6390    1.5496 H   0  0  0  0  0  0  0  0  0  0  0  0
   -3.0940   -2.6290    1.1426 C   0  0  0  0  0  0  0  0  0  0  0  0
   -3.7160   -1.9930    1.7706 H   0  0  0  0  0  0  0  0  0  0  0  0
   -3.4880   -2.6500    0.1286 H   0  0  0  0  0  0  0  0  0  0  0  0
   -1.6860   -2.0850    1.1196 C   0  0  0  0  0  0  0  0  0  0  0  0
   -0.7540   -2.7700    1.5226 O   0  0  0  0  0  0  0  0  0  0  0  0
   -1.5320   -0.8490    0.6496 N   0  0  0  0  0  0  0  0  0  0  0  0
   -2.3500   -0.3360    0.3566 H   0  0  0  0  0  0  0  0  0  0  0  0
   -0.2470   -0.1410    0.5576 C   0  0  1  0  0  0  0  0  0  0  0  0
    0.4239   -0.7541   -0.0450 H   0  0  0  0  0  0  0  0  0  0  0  0
   -0.4317    1.2160   -0.1683 C   0  0  1  0  0  0  0  0  0  0  0  0
    0.2453    1.2173   -1.0248 H   0  0  0  0  0  0  0  0  0  0  0  0
   -1.8640    1.4073   -0.7026 C   0  0  0  0  0  0  0  0  0  0  0  0
   -2.5739    1.4888    0.1224 H   0  0  0  0  0  0  0  0  0  0  0  0
   -1.9230    2.3072   -1.3128 H   0  0  0  0  0  0  0  0  0  0  0  0
   -2.1484    0.5611   -1.3291 H   0  0  0  0  0  0  0  0  0  0  0  0
   -0.0212    2.3931    0.7446 C   0  0  0  0  0  0  0  0  0  0  0  0
    1.0661    2.4703    0.7861 H   0  0  0  0  0  0  0  0  0  0  0  0
   -0.4138    3.3180    0.3220 H   0  0  0  0  0  0  0  0  0  0  0  0
   -0.5593    2.2799    2.1774 C   0  0  0  0  0  0  0  0  0  0  0  0
   -0.1133    1.4260    2.6869 H   0  0  0  0  0  0  0  0  0  0  0  0
   -0.3046    3.1848    2.7296 H   0  0  0  0  0  0  0  0  0  0  0  0
   -1.6440    2.1686    2.1608 H   0  0  0  0  0  0  0  0  0  0  0  0
    0.3833   -0.0008    1.9525 C   0  0  0  0  0  0  0  0  0  0  0  0
    1.5803   -0.2304    2.1189 O   0  0  0  0  0  0  0  0  0  0  0  0
   -0.4170    0.3858    2.9541 N   0  0  0  0  0  0  0  0  0  0  0  0
   -1.3850    0.5669    2.7398 H   0  0  0  0  0  0  0  0  0  0  0  0
    0.0265    0.5600    4.3358 C   0  0  0  0  0  0  0  0  0  0  0  0
    0.8964    1.2200    4.3632 H   0  0  0  0  0  0  0  0  0  0  0  0
   -0.7726    0.9946    4.9382 H   0  0  0  0  0  0  0  0  0  0  0  0
    0.3119   -0.4069    4.7547 H   0  0  0  0  0  0  0  0  0  0  0  0
  5  6  2  0  0  0  0
  5  7  1  0  0  0  0
  2  3  1  0  0  0  0
  2  4  1  0  0  0  0
  2  5  1  0  0  0  0
  1  2  1  0  0  0  0
 24 25  2  0  0  0  0
 24 26  1  0  0  0  0
 20 21  1  0  0  0  0
 20 22  1  0  0  0  0
 20 23  1  0  0  0  0
 17 18  1  0  0  0  0
 17 19  1  0  0  0  0
 17 20  1  0  0  0  0
 13 14  1  0  0  0  0
 13 15  1  0  0  0  0
 13 16  1  0  0  0  0
 11 12  1  0  0  0  0
 11 13  1  0  0  0  0
 11 17  1  0  0  0  0
  9 10  1  0  0  0  0
  9 11  1  0  0  0  0
  9 24  1  0  0  0  0
  7  8  1  0  0  0  0
  7  9  1  0  0  0  0
 28 29  1  0  0  0  0
 28 30  1  0  0  0  0
 28 31  1  0  0  0  0
 26 27  1  0  0  0  0
 26 28  1  0  0  0  0
M  END
$$$$
default_name
  -OEChem-02102213163D

 31 30  0     1  0  0  0  0  0999 V2000
   -3.0760   -3.6390    1.5496 H   0  0  0  0  0  0  0  0  0  0  0  0
   -3.0940   -2.6290    1.1426 C   0  0  0  0  0  0  0  0  0  0  0  0
   -3.7160   -1.9930    1.7706 H   0  0  0  0  0  0  0  0  0  0  0  0
   -3.4880   -2.6500    0.1286 H   0  0  0  0  0  0  0  0  0  0  0  0
   -1.6860   -2.0850    1.1196 C   0  0  0  0  0  0  0  0  0  0  0  0
   -0.7540   -2.7700    1.5226 O   0  0  0  0  0  0  0  0  0  0  0  0
   -1.5320   -0.8490    0.6496 N   0  0  0  0  0  0  0  0  0  0  0  0
   -2.3500   -0.3360    0.3566 H   0  0  0  0  0  0  0  0  0  0  0  0
   -0.2470   -0.1410    0.5576 C   0  0  1  0  0  0  0  0  0  0  0  0
    0.4239   -0.7541   -0.0450 H   0  0  0  0  0  0  0  0  0  0  0  0
   -0.4317    1.2160   -0.1683 C   0  0  1  0  0  0  0  0  0  0  0  0
    0.2453    1.2173   -1.0248 H   0  0  0  0  0  0  0  0  0  0  0  0
   -1.8640    1.4073   -0.7026 C   0  0  0  0  0  0  0  0  0  0  0  0
   -2.5739    1.4888    0.1224 H   0  0  0  0  0  0  0  0  0  0  0  0
   -1.9230    2.3072   -1.3128 H   0  0  0  0  0  0  0  0  0  0  0  0
   -2.1484    0.5611   -1.3291 H   0  0  0  0  0  0  0  0  0  0  0  0
   -0.0212    2.3931    0.7446 C   0  0  0  0  0  0  0  0  0  0  0  0
    1.0288    2.6407    0.5831 H   0  0  0  0  0  0  0  0  0  0  0  0
   -0.6220    3.2646    0.4845 H   0  0  0  0  0  0  0  0  0  0  0  0
   -0.2356    2.1190    2.2393 C   0  0  0  0  0  0  0  0  0  0  0  0
    0.4242    1.3213    2.5801 H   0  0  0  0  0  0  0  0  0  0  0  0
   -0.0092    3.0222    2.8065 H   0  0  0  0  0  0  0  0  0  0  0  0
   -1.2731    1.8368    2.4218 H   0  0  0  0  0  0  0  0  0  0  0  0
    0.3833   -0.0008    1.9525 C   0  0  0  0  0  0  0  0  0  0  0  0
    1.5803   -0.2304    2.1189 O   0  0  0  0  0  0  0  0  0  0  0  0
   -0.4170    0.3858    2.9541 N   0  0  0  0  0  0  0  0  0  0  0  0
   -1.3850    0.5669    2.7398 H   0  0  0  0  0  0  0  0  0  0  0  0
    0.0265    0.5600    4.3358 C   0  0  0  0  0  0  0  0  0  0  0  0
    0.8964    1.2200    4.3632 H   0  0  0  0  0  0  0  0  0  0  0  0
   -0.7726    0.9946    4.9382 H   0  0  0  0  0  0  0  0  0  0  0  0
    0.3119   -0.4069    4.7547 H   0  0  0  0  0  0  0  0  0  0  0  0
  5  6  2  0  0  0  0
  5  7  1  0  0  0  0
  2  3  1  0  0  0  0
  2  4  1  0  0  0  0
  2  5  1  0  0  0  0
  1  2  1  0  0  0  0
 24 25  2  0  0  0  0
 24 26  1  0  0  0  0
 20 21  1  0  0  0  0
 20 22  1  0  0  0  0
 20 23  1  0  0  0  0
 17 18  1  0  0  0  0
 17 19  1  0  0  0  0
 17 20  1  0  0  0  0
 13 14  1  0  0  0  0
 13 15  1  0  0  0  0
 13 16  1  0  0  0  0
 11 12  1  0  0  0  0
 11 13  1  0  0  0  0
 11 17  1  0  0  0  0
  9 10  1  0  0  0  0
  9 11  1  0  0  0  0
  9 24  1  0  0  0  0
  7  8  1  0  0  0  0
  7  9  1  0  0  0  0
 28 29  1  0  0  0  0
 28 30  1  0  0  0  0
 28 31  1  0  0  0  0
 26 27  1  0  0  0  0
 26 28  1  0  0  0  0
M  END
$$$$
default_name
  -OEChem-02102213163D

 31 30  0     1  0  0  0  0  0999 V2000
   -3.0760   -3.6390    1.5496 H   0  0  0  0  0  0  0  0  0  0  0  0
   -3.0940   -2.6290    1.1426 C   0  0  0  0  0  0  0  0  0  0  0  0
   -3.7160   -1.9930    1.7706 H   0  0  0  0  0  0  0  0  0  0  0  0
   -3.4880   -2.6500    0.1286 H   0  0  0  0  0  0  0  0  0  0  0  0
   -1.6860   -2.0850    1.1196 C   0  0  0  0  0  0  0  0  0  0  0  0
   -0.7540   -2.7700    1.5226 O   0  0  0  0  0  0  0  0  0  0  0  0
   -1.5320   -0.8490    0.6496 N   0  0  0  0  0  0  0  0  0  0  0  0
   -2.3500   -0.3360    0.3566 H   0  0  0  0  0  0  0  0  0  0  0  0
   -0.2470   -0.1410    0.5576 C   0  0  1  0  0  0  0  0  0  0  0  0
    0.4239   -0.7541   -0.0450 H   0  0  0  0  0  0  0  0  0  0  0  0
   -0.4317    1.2160   -0.1683 C   0  0  1  0  0  0  0  0  0  0  0  0
    0.2453    1.2173   -1.0248 H   0  0  0  0  0  0  0  0  0  0  0  0
   -1.8640    1.4073   -0.7026 C   0  0  0  0  0  0  0  0  0  0  0  0
   -2.5739    1.4888    0.1224 H   0  0  0  0  0  0  0  0  0  0  0  0
   -1.9230    2.3072   -1.3128 H   0  0  0  0  0  0  0  0  0  0  0  0
   -2.1484    0.5611   -1.3291 H   0  0  0  0  0  0  0  0  0  0  0  0
   -0.0212    2.3931    0.7446 C   0  0  0  0  0  0  0  0  0  0  0  0
    0.9267    2.8136    0.4061 H   0  0  0  0  0  0  0  0  0  0  0  0
   -0.7829    3.1700    0.6788 H   0  0  0  0  0  0  0  0  0  0  0  0
    0.1140    2.0089    2.2242 C   0  0  0  0  0  0  0  0  0  0  0  0
    0.9383    1.3098    2.3639 H   0  0  0  0  0  0  0  0  0  0  0  0
    0.3161    2.9050    2.8113 H   0  0  0  0  0  0  0  0  0  0  0  0
   -0.8125    1.5552    2.5780 H   0  0  0  0  0  0  0  0  0  0  0  0
    0.3833   -0.0008    1.9525 C   0  0  0  0  0  0  0  0  0  0  0  0
    1.5803   -0.2304    2.1189 O   0  0  0  0  0  0  0  0  0  0  0  0
   -0.4170    0.3858    2.9541 N   0  0  0  0  0  0  0  0  0  0  0  0
   -1.3850    0.5669    2.7398 H   0  0  0  0  0  0  0  0  0  0  0  0
    0.0265    0.5600    4.3358 C   0  0  0  0  0  0  0  0  0  0  0  0
    0.8964    1.2200    4.3632 H   0  0  0  0  0  0  0  0  0  0  0  0
   -0.7726    0.9946    4.9382 H   0  0  0  0  0  0  0  0  0  0  0  0
    0.3119   -0.4069    4.7547 H   0  0  0  0  0  0  0  0  0  0  0  0
  5  6  2  0  0  0  0
  5  7  1  0  0  0  0
  2  3  1  0  0  0  0
  2  4  1  0  0  0  0
  2  5  1  0  0  0  0
  1  2  1  0  0  0  0
 24 25  2  0  0  0  0
 24 26  1  0  0  0  0
 20 21  1  0  0  0  0
 20 22  1  0  0  0  0
 20 23  1  0  0  0  0
 17 18  1  0  0  0  0
 17 19  1  0  0  0  0
 17 20  1  0  0  0  0
 13 14  1  0  0  0  0
 13 15  1  0  0  0  0
 13 16  1  0  0  0  0
 11 12  1  0  0  0  0
 11 13  1  0  0  0  0
 11 17  1  0  0  0  0
  9 10  1  0  0  0  0
  9 11  1  0  0  0  0
  9 24  1  0  0  0  0
  7  8  1  0  0  0  0
  7  9  1  0  0  0  0
 28 29  1  0  0  0  0
 28 30  1  0  0  0  0
 28 31  1  0  0  0  0
 26 27  1  0  0  0  0
 26 28  1  0  0  0  0
M  END
$$$$
default_name
  -OEChem-02102213163D

 31 30  0     1  0  0  0  0  0999 V2000
   -3.0760   -3.6390    1.5496 H   0  0  0  0  0  0  0  0  0  0  0  0
   -3.0940   -2.6290    1.1426 C   0  0  0  0  0  0  0  0  0  0  0  0
   -3.7160   -1.9930    1.7706 H   0  0  0  0  0  0  0  0  0  0  0  0
   -3.4880   -2.6500    0.1286 H   0  0  0  0  0  0  0  0  0  0  0  0
   -1.6860   -2.0850    1.1196 C   0  0  0  0  0  0  0  0  0  0  0  0
   -0.7540   -2.7700    1.5226 O   0  0  0  0  0  0  0  0  0  0  0  0
   -1.5320   -0.8490    0.6496 N   0  0  0  0  0  0  0  0  0  0  0  0
   -2.3500   -0.3360    0.3566 H   0  0  0  0  0  0  0  0  0  0  0  0
   -0.2470   -0.1410    0.5576 C   0  0  1  0  0  0  0  0  0  0  0  0
    0.4239   -0.7541   -0.0450 H   0  0  0  0  0  0  0  0  0  0  0  0
   -0.4317    1.2160   -0.1683 C   0  0  1  0  0  0  0  0  0  0  0  0
    0.2453    1.2173   -1.0248 H   0  0  0  0  0  0  0  0  0  0  0  0
   -1.8640    1.4073   -0.7026 C   0  0  0  0  0  0  0  0  0  0  0  0
   -2.5739    1.4888    0.1224 H   0  0  0  0  0  0  0  0  0  0  0  0
   -1.9230    2.3072   -1.3128 H   0  0  0  0  0  0  0  0  0  0  0  0
   -2.1484    0.5611   -1.3291 H   0  0  0  0  0  0  0  0  0  0  0  0
   -0.0212    2.3931    0.7446 C   0  0  0  0  0  0  0  0  0  0  0  0
    0.7667    2.9771    0.2671 H   0  0  0  0  0  0  0  0  0  0  0  0
   -0.8855    3.0407    0.8917 H   0  0  0  0  0  0  0  0  0  0  0  0
    0.4654    1.9569    2.1332 C   0  0  0  0  0  0  0  0  0  0  0  0
    1.3941    1.3922    2.0528 H   0  0  0  0  0  0  0  0  0  0  0  0
    0.6493    2.8412    2.7438 H   0  0  0  0  0  0  0  0  0  0  0  0
   -0.2938    1.3428    2.6186 H   0  0  0  0  0  0  0  0  0  0  0  0
    0.3833   -0.0008    1.9525 C   0  0  0  0  0  0  0  0  0  0  0  0
    1.5803   -0.2304    2.1189 O   0  0  0  0  0  0  0  0  0  0  0  0
   -0.4170    0.3858    2.9541 N   0  0  0  0  0  0  0  0  0  0  0  0
   -1.3850    0.5669    2.7398 H   0  0  0  0  0  0  0  0  0  0  0  0
    0.0265    0.5600    4.3358 C   0  0  0  0  0  0  0  0  0  0  0  0
    0.8964    1.2200    4.3632 H   0  0  0  0  0  0  0  0  0  0  0  0
   -0.7726    0.9946    4.9382 H   0  0  0  0  0  0  0  0  0  0  0  0
    0.3119   -0.4069    4.7547 H   0  0  0  0  0  0  0  0  0  0  0  0
  5  6  2  0  0  0  0
  5  7  1  0  0  0  0
  2  3  1  0  0  0  0
  2  4  1  0  0  0  0
  2  5  1  0  0  0  0
  1  2  1  0  0  0  0
 24 25  2  0  0  0  0
 24 26  1  0  0  0  0
 20 21  1  0  0  0  0
 20 22  1  0  0  0  0
 20 23  1  0  0  0  0
 17 18  1  0  0  0  0
 17 19  1  0  0  0  0
 17 20  1  0  0  0  0
 13 14  1  0  0  0  0
 13 15  1  0  0  0  0
 13 16  1  0  0  0  0
 11 12  1  0  0  0  0
 11 13  1  0  0  0  0
 11 17  1  0  0  0  0
  9 10  1  0  0  0  0
  9 11  1  0  0  0  0
  9 24  1  0  0  0  0
  7  8  1  0  0  0  0
  7  9  1  0  0  0  0
 28 29  1  0  0  0  0
 28 30  1  0  0  0  0
 28 31  1  0  0  0  0
 26 27  1  0  0  0  0
 26 28  1  0  0  0  0
M  END
$$$$
default_name
  -OEChem-02102213163D

 31 30  0     1  0  0  0  0  0999 V2000
   -3.0760   -3.6390    1.5496 H   0  0  0  0  0  0  0  0  0  0  0  0
   -3.0940   -2.6290    1.1426 C   0  0  0  0  0  0  0  0  0  0  0  0
   -3.7160   -1.9930    1.7706 H   0  0  0  0  0  0  0  0  0  0  0  0
   -3.4880   -2.6500    0.1286 H   0  0  0  0  0  0  0  0  0  0  0  0
   -1.6860   -2.0850    1.1196 C   0  0  0  0  0  0  0  0  0  0  0  0
   -0.7540   -2.7700    1.5226 O   0  0  0  0  0  0  0  0  0  0  0  0
   -1.5320   -0.8490    0.6496 N   0  0  0  0  0  0  0  0  0  0  0  0
   -2.3500   -0.3360    0.3566 H   0  0  0  0  0  0  0  0  0  0  0  0
   -0.2470   -0.1410    0.5576 C   0  0  1  0  0  0  0  0  0  0  0  0
    0.4239   -0.7541   -0.0450 H   0  0  0  0  0  0  0  0  0  0  0  0
   -0.4317    1.2160   -0.1683 C   0  0  1  0  0  0  0  0  0  0  0  0
    0.2453    1.2173   -1.0248 H   0  0  0  0  0  0  0  0  0  0  0  0
   -1.8640    1.4073   -0.7026 C   0  0  0  0  0  0  0  0  0  0  0  0
   -2.5739    1.4888    0.1224 H   0  0  0  0  0  0  0  0  0  0  0  0
   -1.9230    2.3072   -1.3128 H   0  0  0  0  0  0  0  0  0  0  0  0
   -2.1484    0.5611   -1.3291 H   0  0  0  0  0  0  0  0  0  0  0  0
   -0.0212    2.3931    0.7446 C   0  0  0  0  0  0  0  0  0  0  0  0
    0.5598    3.1202    0.1757 H   0  0  0  0  0  0  0  0  0  0  0  0
   -0.9229    2.8855    1.1087 H   0  0  0  0  0  0  0  0  0  0  0  0
    0.7949    1.9668    1.9723 C   0  0  0  0  0  0  0  0  0  0  0  0
    1.7604    1.5628    1.6681 H   0  0  0  0  0  0  0  0  0  0  0  0
    0.9675    2.8351    2.6085 H   0  0  0  0  0  0  0  0  0  0  0  0
    0.2478    1.2141    2.5410 H   0  0  0  0  0  0  0  0  0  0  0  0
    0.3833   -0.0008    1.9525 C   0  0  0  0  0  0  0  0  0  0  0  0
    1.5803   -0.2304    2.1189 O   0  0  0  0  0  0  0  0  0  0  0  0
   -0.4170    0.3858    2.9541 N   0  0  0  0  0  0  0  0  0  0  0  0
   -1.3850    0.5669    2.7398 H   0  0  0  0  0  0  0  0  0  0  0  0
    0.0265    0.5600    4.3358 C   0  0  0  0  0  0  0  0  0  0  0  0
    0.8964    1.2200    4.3632 H   0  0  0  0  0  0  0  0  0  0  0  0
   -0.7726    0.9946    4.9382 H   0  0  0  0  0  0  0  0  0  0  0  0
    0.3119   -0.4069    4.7547 H   0  0  0  0  0  0  0  0  0  0  0  0
  5  6  2  0  0  0  0
  5  7  1  0  0  0  0
  2  3  1  0  0  0  0
  2  4  1  0  0  0  0
  2  5  1  0  0  0  0
  1  2  1  0  0  0  0
 24 25  2  0  0  0  0
 24 26  1  0  0  0  0
 20 21  1  0  0  0  0
 20 22  1  0  0  0  0
 20 23  1  0  0  0  0
 17 18  1  0  0  0  0
 17 19  1  0  0  0  0
 17 20  1  0  0  0  0
 13 14  1  0  0  0  0
 13 15  1  0  0  0  0
 13 16  1  0  0  0  0
 11 12  1  0  0  0  0
 11 13  1  0  0  0  0
 11 17  1  0  0  0  0
  9 10  1  0  0  0  0
  9 11  1  0  0  0  0
  9 24  1  0  0  0  0
  7  8  1  0  0  0  0
  7  9  1  0  0  0  0
 28 29  1  0  0  0  0
 28 30  1  0  0  0  0
 28 31  1  0  0  0  0
 26 27  1  0  0  0  0
 26 28  1  0  0  0  0
M  END
$$$$
default_name
  -OEChem-02102213163D

 31 30  0     1  0  0  0  0  0999 V2000
   -3.0760   -3.6390    1.5496 H   0  0  0  0  0  0  0  0  0  0  0  0
   -3.0940   -2.6290    1.1426 C   0  0  0  0  0  0  0  0  0  0  0  0
   -3.7160   -1.9930    1.7706 H   0  0  0  0  0  0  0  0  0  0  0  0
   -3.4880   -2.6500    0.1286 H   0  0  0  0  0  0  0  0  0  0  0  0
   -1.6860   -2.0850    1.1196 C   0  0  0  0  0  0  0  0  0  0  0  0
   -0.7540   -2.7700    1.5226 O   0  0  0  0  0  0  0  0  0  0  0  0
   -1.5320   -0.8490    0.6496 N   0  0  0  0  0  0  0  0  0  0  0  0
   -2.3500   -0.3360    0.3566 H   0  0  0  0  0  0  0  0  0  0  0  0
   -0.2470   -0.1410    0.5576 C   0  0  1  0  0  0  0  0  0  0  0  0
    0.4239   -0.7541   -0.0450 H   0  0  0  0  0  0  0  0  0  0  0  0
   -0.4317    1.2160   -0.1683 C   0  0  1  0  0  0  0  0  0  0  0  0
    0.2453    1.2173   -1.0248 H   0  0  0  0  0  0  0  0  0  0  0  0
   -1.8640    1.4073   -0.7026 C   0  0  0  0  0  0  0  0  0  0  0  0
   -2.5739    1.4888    0.1224 H   0  0  0  0  0  0  0  0  0  0  0  0
   -1.9230    2.3072   -1.3128 H   0  0  0  0  0  0  0  0  0  0  0  0
   -2.1484    0.5611   -1.3291 H   0  0  0  0  0  0  0  0  0  0  0  0
   -0.0212    2.3931    0.7446 C   0  0  0  0  0  0  0  0  0  0  0  0
    0.3200    3.2331    0.1380 H   0  0  0  0  0  0  0  0  0  0  0  0
   -0.8925    2.7149    1.3150 H   0  0  0  0  0  0  0  0  0  0  0  0
    1.0800    2.0377    1.7527 C   0  0  0  0  0  0  0  0  0  0  0  0
    2.0122    1.8100    1.2360 H   0  0  0  0  0  0  0  0  0  0  0  0
    1.2491    2.8873    2.4147 H   0  0  0  0  0  0  0  0  0  0  0  0
    0.7752    1.1780    2.3504 H   0  0  0  0  0  0  0  0  0  0  0  0
    0.3833   -0.0008    1.9525 C   0  0  0  0  0  0  0  0  0  0  0  0
    1.5803   -0.2304    2.1189 O   0  0  0  0  0  0  0  0  0  0  0  0
   -0.4170    0.3858    2.9541 N   0  0  0  0  0  0  0  0  0  0  0  0
   -1.3850    0.5669    2.7398 H   0  0  0  0  0  0  0  0  0  0  0  0
    0.0265    0.5600    4.3358 C   0  0  0  0  0  0  0  0  0  0  0  0
    0.8964    1.2200    4.3632 H   0  0  0  0  0  0  0  0  0  0  0  0
   -0.7726    0.9946    4.9382 H   0  0  0  0  0  0  0  0  0  0  0  0
    0.3119   -0.4069    4.7547 H   0  0  0  0  0  0  0  0  0  0  0  0
  5  6  2  0  0  0  0
  5  7  1  0  0  0  0
  2  3  1  0  0  0  0
  2  4  1  0  0  0  0
  2  5  1  0  0  0  0
  1  2  1  0  0  0  0
 24 25  2  0  0  0  0
 24 26  1  0  0  0  0
 20 21  1  0  0  0  0
 20 22  1  0  0  0  0
 20 23  1  0  0  0  0
 17 18  1  0  0  0  0
 17 19  1  0  0  0  0
 17 20  1  0  0  0  0
 13 14  1  0  0  0  0
 13 15  1  0  0  0  0
 13 16  1  0  0  0  0
 11 12  1  0  0  0  0
 11 13  1  0  0  0  0
 11 17  1  0  0  0  0
  9 10  1  0  0  0  0
  9 11  1  0  0  0  0
  9 24  1  0  0  0  0
  7  8  1  0  0  0  0
  7  9  1  0  0  0  0
 28 29  1  0  0  0  0
 28 30  1  0  0  0  0
 28 31  1  0  0  0  0
 26 27  1  0  0  0  0
 26 28  1  0  0  0  0
M  END
$$$$
default_name
  -OEChem-02102213163D

 31 30  0     1  0  0  0  0  0999 V2000
   -3.0760   -3.6390    1.5496 H   0  0  0  0  0  0  0  0  0  0  0  0
   -3.0940   -2.6290    1.1426 C   0  0  0  0  0  0  0  0  0  0  0  0
   -3.7160   -1.9930    1.7706 H   0  0  0  0  0  0  0  0  0  0  0  0
   -3.4880   -2.6500    0.1286 H   0  0  0  0  0  0  0  0  0  0  0  0
   -1.6860   -2.0850    1.1196 C   0  0  0  0  0  0  0  0  0  0  0  0
   -0.7540   -2.7700    1.5226 O   0  0  0  0  0  0  0  0  0  0  0  0
   -1.5320   -0.8490    0.6496 N   0  0  0  0  0  0  0  0  0  0  0  0
   -2.3500   -0.3360    0.3566 H   0  0  0  0  0  0  0  0  0  0  0  0
   -0.2470   -0.1410    0.5576 C   0  0  1  0  0  0  0  0  0  0  0  0
    0.4239   -0.7541   -0.0450 H   0  0  0  0  0  0  0  0  0  0  0  0
   -0.4317    1.2160   -0.1683 C   0  0  1  0  0  0  0  0  0  0  0  0
    0.2453    1.2173   -1.0248 H   0  0  0  0  0  0  0  0  0  0  0  0
   -1.8640    1.4073   -0.7026 C   0  0  0  0  0  0  0  0  0  0  0  0
   -2.5739    1.4888    0.1224 H   0  0  0  0  0  0  0  0  0  0  0  0
   -1.9230    2.3072   -1.3128 H   0  0  0  0  0  0  0  0  0  0  0  0
   -2.1484    0.5611   -1.3291 H   0  0  0  0  0  0  0  0  0  0  0  0
   -0.0212    2.3931    0.7446 C   0  0  0  0  0  0  0  0  0  0  0  0
    0.0637    3.3080    0.1566 H   0  0  0  0  0  0  0  0  0  0  0  0
   -0.7964    2.5406    1.4965 H   0  0  0  0  0  0  0  0  0  0  0  0
    1.3012    2.1649    1.4892 C   0  0  0  0  0  0  0  0  0  0  0  0
    2.1325    2.1171    0.7860 H   0  0  0  0  0  0  0  0  0  0  0  0
    1.4750    2.9940    2.1755 H   0  0  0  0  0  0  0  0  0  0  0  0
    1.2527    1.2369    2.0599 H   0  0  0  0  0  0  0  0  0  0  0  0
    0.3833   -0.0008    1.9525 C   0  0  0  0  0  0  0  0  0  0  0  0
    1.5803   -0.2304    2.1189 O   0  0  0  0  0  0  0  0  0  0  0  0
   -0.4170    0.3858    2.9541 N   0  0  0  0  0  0  0  0  0  0  0  0
   -1.3850    0.5669    2.7398 H   0  0  0  0  0  0  0  0  0  0  0  0
    0.0265    0.5600    4.3358 C   0  0  0  0  0  0  0  0  0  0  0  0
    0.8964    1.2200    4.3632 H   0  0  0  0  0  0  0  0  0  0  0  0
   -0.7726    0.9946    4.9382 H   0  0  0  0  0  0  0  0  0  0  0  0
    0.3119   -0.4069    4.7547 H   0  0  0  0  0  0  0  0  0  0  0  0
  5  6  2  0  0  0  0
  5  7  1  0  0  0  0
  2  3  1  0  0  0  0
  2  4  1  0  0  0  0
  2  5  1  0  0  0  0
  1  2  1  0  0  0  0
 24 25  2  0  0  0  0
 24 26  1  0  0  0  0
 20 21  1  0  0  0  0
 20 22  1  0  0  0  0
 20 23  1  0  0  0  0
 17 18  1  0  0  0  0
 17 19  1  0  0  0  0
 17 20  1  0  0  0  0
 13 14  1  0  0  0  0
 13 15  1  0  0  0  0
 13 16  1  0  0  0  0
 11 12  1  0  0  0  0
 11 13  1  0  0  0  0
 11 17  1  0  0  0  0
  9 10  1  0  0  0  0
  9 11  1  0  0  0  0
  9 24  1  0  0  0  0
  7  8  1  0  0  0  0
  7  9  1  0  0  0  0
 28 29  1  0  0  0  0
 28 30  1  0  0  0  0
 28 31  1  0  0  0  0
 26 27  1  0  0  0  0
 26 28  1  0  0  0  0
M  END
$$$$
default_name
  -OEChem-02102213163D

 31 30  0     1  0  0  0  0  0999 V2000
   -3.0760   -3.6390    1.5496 H   0  0  0  0  0  0  0  0  0  0  0  0
   -3.0940   -2.6290    1.1426 C   0  0  0  0  0  0  0  0  0  0  0  0
   -3.7160   -1.9930    1.7706 H   0  0  0  0  0  0  0  0  0  0  0  0
   -3.4880   -2.6500    0.1286 H   0  0  0  0  0  0  0  0  0  0  0  0
   -1.6860   -2.0850    1.1196 C   0  0  0  0  0  0  0  0  0  0  0  0
   -0.7540   -2.7700    1.5226 O   0  0  0  0  0  0  0  0  0  0  0  0
   -1.5320   -0.8490    0.6496 N   0  0  0  0  0  0  0  0  0  0  0  0
   -2.3500   -0.3360    0.3566 H   0  0  0  0  0  0  0  0  0  0  0  0
   -0.2470   -0.1410    0.5576 C   0  0  1  0  0  0  0  0  0  0  0  0
    0.4239   -0.7541   -0.0450 H   0  0  0  0  0  0  0  0  0  0  0  0
   -0.4317    1.2160   -0.1683 C   0  0  1  0  0  0  0  0  0  0  0  0
    0.2453    1.2173   -1.0248 H   0  0  0  0  0  0  0  0  0  0  0  0
   -1.8640    1.4073   -0.7026 C   0  0  0  0  0  0  0  0  0  0  0  0
   -2.5739    1.4888    0.1224 H   0  0  0  0  0  0  0  0  0  0  0  0
   -1.9230    2.3072   -1.3128 H   0  0  0  0  0  0  0  0  0  0  0  0
   -2.1484    0.5611   -1.3291 H   0  0  0  0  0  0  0  0  0  0  0  0
   -0.0212    2.3931    0.7446 C   0  0  0  0  0  0  0  0  0  0  0  0
   -0.1916    3.3399    0.2303 H   0  0  0  0  0  0  0  0  0  0  0  0
   -0.6411    2.3744    1.6409 H   0  0  0  0  0  0  0  0  0  0  0  0
    1.4434    2.3398    1.1998 C   0  0  0  0  0  0  0  0  0  0  0  0
    2.1130    2.4630    0.3487 H   0  0  0  0  0  0  0  0  0  0  0  0
    1.6297    3.1481    1.9073 H   0  0  0  0  0  0  0  0  0  0  0  0
    1.6475    1.3867    1.6891 H   0  0  0  0  0  0  0  0  0  0  0  0
    0.3833   -0.0008    1.9525 C   0  0  0  0  0  0  0  0  0  0  0  0
    1.5803   -0.2304    2.1189 O   0  0  0  0  0  0  0  0  0  0  0  0
   -0.4170    0.3858    2.9541 N   0  0  0  0  0  0  0  0  0  0  0  0
   -1.3850    0.5669    2.7398 H   0  0  0  0  0  0  0  0  0  0  0  0
    0.0265    0.5600    4.3358 C   0  0  0  0  0  0  0  0  0  0  0  0
    0.8964    1.2200    4.3632 H   0  0  0  0  0  0  0  0  0  0  0  0
   -0.7726    0.9946    4.9382 H   0  0  0  0  0  0  0  0  0  0  0  0
    0.3119   -0.4069    4.7547 H   0  0  0  0  0  0  0  0  0  0  0  0
  5  6  2  0  0  0  0
  5  7  1  0  0  0  0
  2  3  1  0  0  0  0
  2  4  1  0  0  0  0
  2  5  1  0  0  0  0
  1  2  1  0  0  0  0
 24 25  2  0  0  0  0
 24 26  1  0  0  0  0
 20 21  1  0  0  0  0
 20 22  1  0  0  0  0
 20 23  1  0  0  0  0
 17 18  1  0  0  0  0
 17 19  1  0  0  0  0
 17 20  1  0  0  0  0
 13 14  1  0  0  0  0
 13 15  1  0  0  0  0
 13 16  1  0  0  0  0
 11 12  1  0  0  0  0
 11 13  1  0  0  0  0
 11 17  1  0  0  0  0
  9 10  1  0  0  0  0
  9 11  1  0  0  0  0
  9 24  1  0  0  0  0
  7  8  1  0  0  0  0
  7  9  1  0  0  0  0
 28 29  1  0  0  0  0
 28 30  1  0  0  0  0
 28 31  1  0  0  0  0
 26 27  1  0  0  0  0
 26 28  1  0  0  0  0
M  END
$$$$
default_name
  -OEChem-02102213163D

 31 30  0     1  0  0  0  0  0999 V2000
   -3.0760   -3.6390    1.5496 H   0  0  0  0  0  0  0  0  0  0  0  0
   -3.0940   -2.6290    1.1426 C   0  0  0  0  0  0  0  0  0  0  0  0
   -3.7160   -1.9930    1.7706 H   0  0  0  0  0  0  0  0  0  0  0  0
   -3.4880   -2.6500    0.1286 H   0  0  0  0  0  0  0  0  0  0  0  0
   -1.6860   -2.0850    1.1196 C   0  0  0  0  0  0  0  0  0  0  0  0
   -0.7540   -2.7700    1.5226 O   0  0  0  0  0  0  0  0  0  0  0  0
   -1.5320   -0.8490    0.6496 N   0  0  0  0  0  0  0  0  0  0  0  0
   -2.3500   -0.3360    0.3566 H   0  0  0  0  0  0  0  0  0  0  0  0
   -0.2470   -0.1410    0.5576 C   0  0  1  0  0  0  0  0  0  0  0  0
    0.4239   -0.7541   -0.0450 H   0  0  0  0  0  0  0  0  0  0  0  0
   -0.4317    1.2160   -0.1683 C   0  0  1  0  0  0  0  0  0  0  0  0
    0.2453    1.2173   -1.0248 H   0  0  0  0  0  0  0  0  0  0  0  0
   -1.8640    1.4073   -0.7026 C   0  0  0  0  0  0  0  0  0  0  0  0
   -2.5739    1.4888    0.1224 H   0  0  0  0  0  0  0  0  0  0  0  0
   -1.9230    2.3072   -1.3128 H   0  0  0  0  0  0  0  0  0  0  0  0
   -2.1484    0.5611   -1.3291 H   0  0  0  0  0  0  0  0  0  0  0  0
   -0.0212    2.3931    0.7446 C   0  0  0  0  0  0  0  0  0  0  0  0
   -0.4286    3.3266    0.3540 H   0  0  0  0  0  0  0  0  0  0  0  0
   -0.4372    2.2277    1.7384 H   0  0  0  0  0  0  0  0  0  0  0  0
    1.4970    2.5503    0.9042 C   0  0  0  0  0  0  0  0  0  0  0  0
    1.9550    2.8242   -0.0460 H   0  0  0  0  0  0  0  0  0  0  0  0
    1.7026    3.3390    1.6283 H   0  0  0  0  0  0  0  0  0  0  0  0
    1.9329    1.6174    1.2634 H   0  0  0  0  0  0  0  0  0  0  0  0
    0.3833   -0.0008    1.9525 C   0  0  0  0  0  0  0  0  0  0  0  0
    1.5803   -0.2304    2.1189 O   0  0  0  0  0  0  0  0  0  0  0  0
   -0.4170    0.3858    2.9541 N   0  0  0  0  0  0  0  0  0  0  0  0
   -1.3850    0.5669    2.7398 H   0  0  0  0  0  0  0  0  0  0  0  0
    0.0265    0.5600    4.3358 C   0  0  0  0  0  0  0  0  0  0  0  0
    0.8964    1.2200    4.3632 H   0  0  0  0  0  0  0  0  0  0  0  0
   -0.7726    0.9946    4.9382 H   0  0  0  0  0  0  0  0  0  0  0  0
    0.3119   -0.4069    4.7547 H   0  0  0  0  0  0  0  0  0  0  0  0
  5  6  2  0  0  0  0
  5  7  1  0  0  0  0
  2  3  1  0  0  0  0
  2  4  1  0  0  0  0
  2  5  1  0  0  0  0
  1  2  1  0  0  0  0
 24 25  2  0  0  0  0
 24 26  1  0  0  0  0
 20 21  1  0  0  0  0
 20 22  1  0  0  0  0
 20 23  1  0  0  0  0
 17 18  1  0  0  0  0
 17 19  1  0  0  0  0
 17 20  1  0  0  0  0
 13 14  1  0  0  0  0
 13 15  1  0  0  0  0
 13 16  1  0  0  0  0
 11 12  1  0  0  0  0
 11 13  1  0  0  0  0
 11 17  1  0  0  0  0
  9 10  1  0  0  0  0
  9 11  1  0  0  0  0
  9 24  1  0  0  0  0
  7  8  1  0  0  0  0
  7  9  1  0  0  0  0
 28 29  1  0  0  0  0
 28 30  1  0  0  0  0
 28 31  1  0  0  0  0
 26 27  1  0  0  0  0
 26 28  1  0  0  0  0
M  END
$$$$
default_name
  -OEChem-02102213163D

 31 30  0     1  0  0  0  0  0999 V2000
   -3.0760   -3.6390    1.5496 H   0  0  0  0  0  0  0  0  0  0  0  0
   -3.0940   -2.6290    1.1426 C   0  0  0  0  0  0  0  0  0  0  0  0
   -3.7160   -1.9930    1.7706 H   0  0  0  0  0  0  0  0  0  0  0  0
   -3.4880   -2.6500    0.1286 H   0  0  0  0  0  0  0  0  0  0  0  0
   -1.6860   -2.0850    1.1196 C   0  0  0  0  0  0  0  0  0  0  0  0
   -0.7540   -2.7700    1.5226 O   0  0  0  0  0  0  0  0  0  0  0  0
   -1.5320   -0.8490    0.6496 N   0  0  0  0  0  0  0  0  0  0  0  0
   -2.3500   -0.3360    0.3566 H   0  0  0  0  0  0  0  0  0  0  0  0
   -0.2470   -0.1410    0.5576 C   0  0  1  0  0  0  0  0  0  0  0  0
    0.4239   -0.7541   -0.0450 H   0  0  0  0  0  0  0  0  0  0  0  0
   -0.4317    1.2160   -0.1683 C   0  0  1  0  0  0  0  0  0  0  0  0
    0.2453    1.2173   -1.0248 H   0  0  0  0  0  0  0  0  0  0  0  0
   -1.8640    1.4073   -0.7026 C   0  0  0  0  0  0  0  0  0  0  0  0
   -2.5739    1.4888    0.1224 H   0  0  0  0  0  0  0  0  0  0  0  0
   -1.9230    2.3072   -1.3128 H   0  0  0  0  0  0  0  0  0  0  0  0
   -2.1484    0.5611   -1.3291 H   0  0  0  0  0  0  0  0  0  0  0  0
   -0.0212    2.3931    0.7446 C   0  0  0  0  0  0  0  0  0  0  0  0
   -0.6311    3.2690    0.5193 H   0  0  0  0  0  0  0  0  0  0  0  0
   -0.1986    2.1105    1.7822 H   0  0  0  0  0  0  0  0  0  0  0  0
    1.4583    2.7821    0.6227 C   0  0  0  0  0  0  0  0  0  0  0  0
    1.6694    3.1761   -0.3713 H   0  0  0  0  0  0  0  0  0  0  0  0
    1.6889    3.5538    1.3575 H   0  0  0  0  0  0  0  0  0  0  0  0
    2.0894    1.9130    0.8118 H   0  0  0  0  0  0  0  0  0  0  0  0
    0.3833   -0.0008    1.9525 C   0  0  0  0  0  0  0  0  0  0  0  0
    1.5803   -0.2304    2.1189 O   0  0  0  0  0  0  0  0  0  0  0  0
   -0.4170    0.3858    2.9541 N   0  0  0  0  0  0  0  0  0  0  0  0
   -1.3850    0.5669    2.7398 H   0  0  0  0  0  0  0  0  0  0  0  0
    0.0265    0.5600    4.3358 C   0  0  0  0  0  0  0  0  0  0  0  0
    0.8964    1.2200    4.3632 H   0  0  0  0  0  0  0  0  0  0  0  0
   -0.7726    0.9946    4.9382 H   0  0  0  0  0  0  0  0  0  0  0  0
    0.3119   -0.4069    4.7547 H   0  0  0  0  0  0  0  0  0  0  0  0
  5  6  2  0  0  0  0
  5  7  1  0  0  0  0
  2  3  1  0  0  0  0
  2  4  1  0  0  0  0
  2  5  1  0  0  0  0
  1  2  1  0  0  0  0
 24 25  2  0  0  0  0
 24 26  1  0  0  0  0
 20 21  1  0  0  0  0
 20 22  1  0  0  0  0
 20 23  1  0  0  0  0
 17 18  1  0  0  0  0
 17 19  1  0  0  0  0
 17 20  1  0  0  0  0
 13 14  1  0  0  0  0
 13 15  1  0  0  0  0
 13 16  1  0  0  0  0
 11 12  1  0  0  0  0
 11 13  1  0  0  0  0
 11 17  1  0  0  0  0
  9 10  1  0  0  0  0
  9 11  1  0  0  0  0
  9 24  1  0  0  0  0
  7  8  1  0  0  0  0
  7  9  1  0  0  0  0
 28 29  1  0  0  0  0
 28 30  1  0  0  0  0
 28 31  1  0  0  0  0
 26 27  1  0  0  0  0
 26 28  1  0  0  0  0
M  END
$$$$
default_name
  -OEChem-02102213163D

 31 30  0     1  0  0  0  0  0999 V2000
   -3.0760   -3.6390    1.5496 H   0  0  0  0  0  0  0  0  0  0  0  0
   -3.0940   -2.6290    1.1426 C   0  0  0  0  0  0  0  0  0  0  0  0
   -3.7160   -1.9930    1.7706 H   0  0  0  0  0  0  0  0  0  0  0  0
   -3.4880   -2.6500    0.1286 H   0  0  0  0  0  0  0  0  0  0  0  0
   -1.6860   -2.0850    1.1196 C   0  0  0  0  0  0  0  0  0  0  0  0
   -0.7540   -2.7700    1.5226 O   0  0  0  0  0  0  0  0  0  0  0  0
   -1.5320   -0.8490    0.6496 N   0  0  0  0  0  0  0  0  0  0  0  0
   -2.3500   -0.3360    0.3566 H   0  0  0  0  0  0  0  0  0  0  0  0
   -0.2470   -0.1410    0.5576 C   0  0  1  0  0  0  0  0  0  0  0  0
    0.4239   -0.7541   -0.0450 H   0  0  0  0  0  0  0  0  0  0  0  0
   -0.4317    1.2160   -0.1683 C   0  0  1  0  0  0  0  0  0  0  0  0
    0.2453    1.2173   -1.0248 H   0  0  0  0  0  0  0  0  0  0  0  0
   -1.8640    1.4073   -0.7026 C   0  0  0  0  0  0  0  0  0  0  0  0
   -2.5739    1.4888    0.1224 H   0  0  0  0  0  0  0  0  0  0  0  0
   -1.9230    2.3072   -1.3128 H   0  0  0  0  0  0  0  0  0  0  0  0
   -2.1484    0.5611   -1.3291 H   0  0  0  0  0  0  0  0  0  0  0  0
   -0.0212    2.3931    0.7446 C   0  0  0  0  0  0  0  0  0  0  0  0
   -0.7853    3.1710    0.7150 H   0  0  0  0  0  0  0  0  0  0  0  0
    0.0584    2.0308    1.7695 H   0  0  0  0  0  0  0  0  0  0  0  0
    1.3300    3.0195    0.3743 C   0  0  0  0  0  0  0  0  0  0  0  0
    1.2755    3.4947   -0.6050 H   0  0  0  0  0  0  0  0  0  0  0  0
    1.5894    3.7777    1.1135 H   0  0  0  0  0  0  0  0  0  0  0  0
    2.1062    2.2536    0.3651 H   0  0  0  0  0  0  0  0  0  0  0  0
    0.3833   -0.0008    1.9525 C   0  0  0  0  0  0  0  0  0  0  0  0
    1.5803   -0.2304    2.1189 O   0  0  0  0  0  0  0  0  0  0  0  0
   -0.4170    0.3858    2.9541 N   0  0  0  0  0  0  0  0  0  0  0  0
   -1.3850    0.5669    2.7398 H   0  0  0  0  0  0  0  0  0  0  0  0
    0.0265    0.5600    4.3358 C   0  0  0  0  0  0  0  0  0  0  0  0
    0.8964    1.2200    4.3632 H   0  0  0  0  0  0  0  0  0  0  0  0
   -0.7726    0.9946    4.9382 H   0  0  0  0  0  0  0  0  0  0  0  0
    0.3119   -0.4069    4.7547 H   0  0  0  0  0  0  0  0  0  0  0  0
  5  6  2  0  0  0  0
  5  7  1  0  0  0  0
  2  3  1  0  0  0  0
  2  4  1  0  0  0  0
  2  5  1  0  0  0  0
  1  2  1  0  0  0  0
 24 25  2  0  0  0  0
 24 26  1  0  0  0  0
 20 21  1  0  0  0  0
 20 22  1  0  0  0  0
 20 23  1  0  0  0  0
 17 18  1  0  0  0  0
 17 19  1  0  0  0  0
 17 20  1  0  0  0  0
 13 14  1  0  0  0  0
 13 15  1  0  0  0  0
 13 16  1  0  0  0  0
 11 12  1  0  0  0  0
 11 13  1  0  0  0  0
 11 17  1  0  0  0  0
  9 10  1  0  0  0  0
  9 11  1  0  0  0  0
  9 24  1  0  0  0  0
  7  8  1  0  0  0  0
  7  9  1  0  0  0  0
 28 29  1  0  0  0  0
 28 30  1  0  0  0  0
 28 31  1  0  0  0  0
 26 27  1  0  0  0  0
 26 28  1  0  0  0  0
M  END
$$$$
default_name
  -OEChem-02102213163D

 31 30  0     1  0  0  0  0  0999 V2000
   -3.0760   -3.6390    1.5496 H   0  0  0  0  0  0  0  0  0  0  0  0
   -3.0940   -2.6290    1.1426 C   0  0  0  0  0  0  0  0  0  0  0  0
   -3.7160   -1.9930    1.7706 H   0  0  0  0  0  0  0  0  0  0  0  0
   -3.4880   -2.6500    0.1286 H   0  0  0  0  0  0  0  0  0  0  0  0
   -1.6860   -2.0850    1.1196 C   0  0  0  0  0  0  0  0  0  0  0  0
   -0.7540   -2.7700    1.5226 O   0  0  0  0  0  0  0  0  0  0  0  0
   -1.5320   -0.8490    0.6496 N   0  0  0  0  0  0  0  0  0  0  0  0
   -2.3500   -0.3360    0.3566 H   0  0  0  0  0  0  0  0  0  0  0  0
   -0.2470   -0.1410    0.5576 C   0  0  1  0  0  0  0  0  0  0  0  0
    0.4239   -0.7541   -0.0450 H   0  0  0  0  0  0  0  0  0  0  0  0
   -0.4317    1.2160   -0.1683 C   0  0  1  0  0  0  0  0  0  0  0  0
    0.2453    1.2173   -1.0248 H   0  0  0  0  0  0  0  0  0  0  0  0
   -1.8640    1.4073   -0.7026 C   0  0  0  0  0  0  0  0  0  0  0  0
   -2.5739    1.4888    0.1224 H   0  0  0  0  0  0  0  0  0  0  0  0
   -1.9230    2.3072   -1.3128 H   0  0  0  0  0  0  0  0  0  0  0  0
   -2.1484    0.5611   -1.3291 H   0  0  0  0  0  0  0  0  0  0  0  0
   -0.0212    2.3931    0.7446 C   0  0  0  0  0  0  0  0  0  0  0  0
   -0.8807    3.0394    0.9276 H   0  0  0  0  0  0  0  0  0  0  0  0
    0.3163    1.9940    1.7010 H   0  0  0  0  0  0  0  0  0  0  0  0
    1.1207    3.2463    0.1760 C   0  0  0  0  0  0  0  0  0  0  0  0
    0.8003    3.7582   -0.7312 H   0  0  0  0  0  0  0  0  0  0  0  0
    1.4109    3.9956    0.9128 H   0  0  0  0  0  0  0  0  0  0  0  0
    1.9824    2.6158   -0.0464 H   0  0  0  0  0  0  0  0  0  0  0  0
    0.3833   -0.0008    1.9525 C   0  0  0  0  0  0  0  0  0  0  0  0
    1.5803   -0.2304    2.1189 O   0  0  0  0  0  0  0  0  0  0  0  0
   -0.4170    0.3858    2.9541 N   0  0  0  0  0  0  0  0  0  0  0  0
   -1.3850    0.5669    2.7398 H   0  0  0  0  0  0  0  0  0  0  0  0
    0.0265    0.5600    4.3358 C   0  0  0  0  0  0  0  0  0  0  0  0
    0.8964    1.2200    4.3632 H   0  0  0  0  0  0  0  0  0  0  0  0
   -0.7726    0.9946    4.9382 H   0  0  0  0  0  0  0  0  0  0  0  0
    0.3119   -0.4069    4.7547 H   0  0  0  0  0  0  0  0  0  0  0  0
  5  6  2  0  0  0  0
  5  7  1  0  0  0  0
  2  3  1  0  0  0  0
  2  4  1  0  0  0  0
  2  5  1  0  0  0  0
  1  2  1  0  0  0  0
 24 25  2  0  0  0  0
 24 26  1  0  0  0  0
 20 21  1  0  0  0  0
 20 22  1  0  0  0  0
 20 23  1  0  0  0  0
 17 18  1  0  0  0  0
 17 19  1  0  0  0  0
 17 20  1  0  0  0  0
 13 14  1  0  0  0  0
 13 15  1  0  0  0  0
 13 16  1  0  0  0  0
 11 12  1  0  0  0  0
 11 13  1  0  0  0  0
 11 17  1  0  0  0  0
  9 10  1  0  0  0  0
  9 11  1  0  0  0  0
  9 24  1  0  0  0  0
  7  8  1  0  0  0  0
  7  9  1  0  0  0  0
 28 29  1  0  0  0  0
 28 30  1  0  0  0  0
 28 31  1  0  0  0  0
 26 27  1  0  0  0  0
 26 28  1  0  0  0  0
M  END
$$$$
default_name
  -OEChem-02102213163D

 31 30  0     1  0  0  0  0  0999 V2000
   -3.0760   -3.6390    1.5496 H   0  0  0  0  0  0  0  0  0  0  0  0
   -3.0940   -2.6290    1.1426 C   0  0  0  0  0  0  0  0  0  0  0  0
   -3.7160   -1.9930    1.7706 H   0  0  0  0  0  0  0  0  0  0  0  0
   -3.4880   -2.6500    0.1286 H   0  0  0  0  0  0  0  0  0  0  0  0
   -1.6860   -2.0850    1.1196 C   0  0  0  0  0  0  0  0  0  0  0  0
   -0.7540   -2.7700    1.5226 O   0  0  0  0  0  0  0  0  0  0  0  0
   -1.5320   -0.8490    0.6496 N   0  0  0  0  0  0  0  0  0  0  0  0
   -2.3500   -0.3360    0.3566 H   0  0  0  0  0  0  0  0  0  0  0  0
   -0.2470   -0.1410    0.5576 C   0  0  1  0  0  0  0  0  0  0  0  0
    0.4239   -0.7541   -0.0450 H   0  0  0  0  0  0  0  0  0  0  0  0
   -0.4317    1.2160   -0.1683 C   0  0  1  0  0  0  0  0  0  0  0  0
    0.2453    1.2173   -1.0248 H   0  0  0  0  0  0  0  0  0  0  0  0
   -1.8640    1.4073   -0.7026 C   0  0  0  0  0  0  0  0  0  0  0  0
   -2.5739    1.4888    0.1224 H   0  0  0  0  0  0  0  0  0  0  0  0
   -1.9230    2.3072   -1.3128 H   0  0  0  0  0  0  0  0  0  0  0  0
   -2.1484    0.5611   -1.3291 H   0  0  0  0  0  0  0  0  0  0  0  0
   -0.0212    2.3931    0.7446 C   0  0  0  0  0  0  0  0  0  0  0  0
   -0.9108    2.8830    1.1428 H   0  0  0  0  0  0  0  0  0  0  0  0
    0.5576    2.0025    1.5815 H   0  0  0  0  0  0  0  0  0  0  0  0
    0.8448    3.4469    0.0412 C   0  0  0  0  0  0  0  0  0  0  0  0
    0.2760    3.9488   -0.7413 H   0  0  0  0  0  0  0  0  0  0  0  0
    1.1656    4.1926    0.7691 H   0  0  0  0  0  0  0  0  0  0  0  0
    1.7262    2.9751   -0.3944 H   0  0  0  0  0  0  0  0  0  0  0  0
    0.3833   -0.0008    1.9525 C   0  0  0  0  0  0  0  0  0  0  0  0
    1.5803   -0.2304    2.1189 O   0  0  0  0  0  0  0  0  0  0  0  0
   -0.4170    0.3858    2.9541 N   0  0  0  0  0  0  0  0  0  0  0  0
   -1.3850    0.5669    2.7398 H   0  0  0  0  0  0  0  0  0  0  0  0
    0.0265    0.5600    4.3358 C   0  0  0  0  0  0  0  0  0  0  0  0
    0.8964    1.2200    4.3632 H   0  0  0  0  0  0  0  0  0  0  0  0
   -0.7726    0.9946    4.9382 H   0  0  0  0  0  0  0  0  0  0  0  0
    0.3119   -0.4069    4.7547 H   0  0  0  0  0  0  0  0  0  0  0  0
  5  6  2  0  0  0  0
  5  7  1  0  0  0  0
  2  3  1  0  0  0  0
  2  4  1  0  0  0  0
  2  5  1  0  0  0  0
  1  2  1  0  0  0  0
 24 25  2  0  0  0  0
 24 26  1  0  0  0  0
 20 21  1  0  0  0  0
 20 22  1  0  0  0  0
 20 23  1  0  0  0  0
 17 18  1  0  0  0  0
 17 19  1  0  0  0  0
 17 20  1  0  0  0  0
 13 14  1  0  0  0  0
 13 15  1  0  0  0  0
 13 16  1  0  0  0  0
 11 12  1  0  0  0  0
 11 13  1  0  0  0  0
 11 17  1  0  0  0  0
  9 10  1  0  0  0  0
  9 11  1  0  0  0  0
  9 24  1  0  0  0  0
  7  8  1  0  0  0  0
  7  9  1  0  0  0  0
 28 29  1  0  0  0  0
 28 30  1  0  0  0  0
 28 31  1  0  0  0  0
 26 27  1  0  0  0  0
 26 28  1  0  0  0  0
M  END
$$$$
default_name
  -OEChem-02102213163D

 31 30  0     1  0  0  0  0  0999 V2000
   -3.0760   -3.6390    1.5496 H   0  0  0  0  0  0  0  0  0  0  0  0
   -3.0940   -2.6290    1.1426 C   0  0  0  0  0  0  0  0  0  0  0  0
   -3.7160   -1.9930    1.7706 H   0  0  0  0  0  0  0  0  0  0  0  0
   -3.4880   -2.6500    0.1286 H   0  0  0  0  0  0  0  0  0  0  0  0
   -1.6860   -2.0850    1.1196 C   0  0  0  0  0  0  0  0  0  0  0  0
   -0.7540   -2.7700    1.5226 O   0  0  0  0  0  0  0  0  0  0  0  0
   -1.5320   -0.8490    0.6496 N   0  0  0  0  0  0  0  0  0  0  0  0
   -2.3500   -0.3360    0.3566 H   0  0  0  0  0  0  0  0  0  0  0  0
   -0.2470   -0.1410    0.5576 C   0  0  1  0  0  0  0  0  0  0  0  0
    0.4239   -0.7541   -0.0450 H   0  0  0  0  0  0  0  0  0  0  0  0
   -0.4317    1.2160   -0.1683 C   0  0  1  0  0  0  0  0  0  0  0  0
    0.2453    1.2173   -1.0248 H   0  0  0  0  0  0  0  0  0  0  0  0
   -1.8640    1.4073   -0.7026 C   0  0  0  0  0  0  0  0  0  0  0  0
   -2.5739    1.4888    0.1224 H   0  0  0  0  0  0  0  0  0  0  0  0
   -1.9230    2.3072   -1.3128 H   0  0  0  0  0  0  0  0  0  0  0  0
   -2.1484    0.5611   -1.3291 H   0  0  0  0  0  0  0  0  0  0  0  0
   -0.0212    2.3931    0.7446 C   0  0  0  0  0  0  0  0  0  0  0  0
   -0.8735    2.7126    1.3458 H   0  0  0  0  0  0  0  0  0  0  0  0
    0.7658    2.0559    1.4190 H   0  0  0  0  0  0  0  0  0  0  0  0
    0.5211    3.6078   -0.0207 C   0  0  0  0  0  0  0  0  0  0  0  0
   -0.2615    4.0535   -0.6345 H   0  0  0  0  0  0  0  0  0  0  0  0
    0.8702    4.3552    0.6922 H   0  0  0  0  0  0  0  0  0  0  0  0
    1.3552    3.3069   -0.6554 H   0  0  0  0  0  0  0  0  0  0  0  0
    0.3833   -0.0008    1.9525 C   0  0  0  0  0  0  0  0  0  0  0  0
    1.5803   -0.2304    2.1189 O   0  0  0  0  0  0  0  0  0  0  0  0
   -0.4170    0.3858    2.9541 N   0  0  0  0  0  0  0  0  0  0  0  0
   -1.3850    0.5669    2.7398 H   0  0  0  0  0  0  0  0  0  0  0  0
    0.0265    0.5600    4.3358 C   0  0  0  0  0  0  0  0  0  0  0  0
    0.8964    1.2200    4.3632 H   0  0  0  0  0  0  0  0  0  0  0  0
   -0.7726    0.9946    4.9382 H   0  0  0  0  0  0  0  0  0  0  0  0
    0.3119   -0.4069    4.7547 H   0  0  0  0  0  0  0  0  0  0  0  0
  5  6  2  0  0  0  0
  5  7  1  0  0  0  0
  2  3  1  0  0  0  0
  2  4  1  0  0  0  0
  2  5  1  0  0  0  0
  1  2  1  0  0  0  0
 24 25  2  0  0  0  0
 24 26  1  0  0  0  0
 20 21  1  0  0  0  0
 20 22  1  0  0  0  0
 20 23  1  0  0  0  0
 17 18  1  0  0  0  0
 17 19  1  0  0  0  0
 17 20  1  0  0  0  0
 13 14  1  0  0  0  0
 13 15  1  0  0  0  0
 13 16  1  0  0  0  0
 11 12  1  0  0  0  0
 11 13  1  0  0  0  0
 11 17  1  0  0  0  0
  9 10  1  0  0  0  0
  9 11  1  0  0  0  0
  9 24  1  0  0  0  0
  7  8  1  0  0  0  0
  7  9  1  0  0  0  0
 28 29  1  0  0  0  0
 28 30  1  0  0  0  0
 28 31  1  0  0  0  0
 26 27  1  0  0  0  0
 26 28  1  0  0  0  0
M  END
$$$$
default_name
  -OEChem-02102213163D

 31 30  0     1  0  0  0  0  0999 V2000
   -3.0760   -3.6390    1.5496 H   0  0  0  0  0  0  0  0  0  0  0  0
   -3.0940   -2.6290    1.1426 C   0  0  0  0  0  0  0  0  0  0  0  0
   -3.7160   -1.9930    1.7706 H   0  0  0  0  0  0  0  0  0  0  0  0
   -3.4880   -2.6500    0.1286 H   0  0  0  0  0  0  0  0  0  0  0  0
   -1.6860   -2.0850    1.1196 C   0  0  0  0  0  0  0  0  0  0  0  0
   -0.7540   -2.7700    1.5226 O   0  0  0  0  0  0  0  0  0  0  0  0
   -1.5320   -0.8490    0.6496 N   0  0  0  0  0  0  0  0  0  0  0  0
   -2.3500   -0.3360    0.3566 H   0  0  0  0  0  0  0  0  0  0  0  0
   -0.2470   -0.1410    0.5576 C   0  0  1  0  0  0  0  0  0  0  0  0
    0.4239   -0.7541   -0.0450 H   0  0  0  0  0  0  0  0  0  0  0  0
   -0.4317    1.2160   -0.1683 C   0  0  1  0  0  0  0  0  0  0  0  0
    0.2453    1.2173   -1.0248 H   0  0  0  0  0  0  0  0  0  0  0  0
   -1.8640    1.4073   -0.7026 C   0  0  0  0  0  0  0  0  0  0  0  0
   -2.5739    1.4888    0.1224 H   0  0  0  0  0  0  0  0  0  0  0  0
   -1.9230    2.3072   -1.3128 H   0  0  0  0  0  0  0  0  0  0  0  0
   -2.1484    0.5611   -1.3291 H   0  0  0  0  0  0  0  0  0  0  0  0
   -0.0212    2.3931    0.7446 C   0  0  0  0  0  0  0  0  0  0  0  0
   -0.7714    2.5397    1.5228 H   0  0  0  0  0  0  0  0  0  0  0  0
    0.9267    2.1505    1.2247 H   0  0  0  0  0  0  0  0  0  0  0  0
    0.1716    3.7180   -0.0056 C   0  0  0  0  0  0  0  0  0  0  0  0
   -0.7756    4.0650   -0.4183 H   0  0  0  0  0  0  0  0  0  0  0  0
    0.5449    4.4724    0.6873 H   0  0  0  0  0  0  0  0  0  0  0  0
    0.8947    3.5886   -0.8116 H   0  0  0  0  0  0  0  0  0  0  0  0
    0.3833   -0.0008    1.9525 C   0  0  0  0  0  0  0  0  0  0  0  0
    1.5803   -0.2304    2.1189 O   0  0  0  0  0  0  0  0  0  0  0  0
   -0.4170    0.3858    2.9541 N   0  0  0  0  0  0  0  0  0  0  0  0
   -1.3850    0.5669    2.7398 H   0  0  0  0  0  0  0  0  0  0  0  0
    0.0265    0.5600    4.3358 C   0  0  0  0  0  0  0  0  0  0  0  0
    0.8964    1.2200    4.3632 H   0  0  0  0  0  0  0  0  0  0  0  0
   -0.7726    0.9946    4.9382 H   0  0  0  0  0  0  0  0  0  0  0  0
    0.3119   -0.4069    4.7547 H   0  0  0  0  0  0  0  0  0  0  0  0
  5  6  2  0  0  0  0
  5  7  1  0  0  0  0
  2  3  1  0  0  0  0
  2  4  1  0  0  0  0
  2  5  1  0  0  0  0
  1  2  1  0  0  0  0
 24 25  2  0  0  0  0
 24 26  1  0  0  0  0
 20 21  1  0  0  0  0
 20 22  1  0  0  0  0
 20 23  1  0  0  0  0
 17 18  1  0  0  0  0
 17 19  1  0  0  0  0
 17 20  1  0  0  0  0
 13 14  1  0  0  0  0
 13 15  1  0  0  0  0
 13 16  1  0  0  0  0
 11 12  1  0  0  0  0
 11 13  1  0  0  0  0
 11 17  1  0  0  0  0
  9 10  1  0  0  0  0
  9 11  1  0  0  0  0
  9 24  1  0  0  0  0
  7  8  1  0  0  0  0
  7  9  1  0  0  0  0
 28 29  1  0  0  0  0
 28 30  1  0  0  0  0
 28 31  1  0  0  0  0
 26 27  1  0  0  0  0
 26 28  1  0  0  0  0
M  END
$$$$
default_name
  -OEChem-02102213163D

 31 30  0     1  0  0  0  0  0999 V2000
   -3.0760   -3.6390    1.5496 H   0  0  0  0  0  0  0  0  0  0  0  0
   -3.0940   -2.6290    1.1426 C   0  0  0  0  0  0  0  0  0  0  0  0
   -3.7160   -1.9930    1.7706 H   0  0  0  0  0  0  0  0  0  0  0  0
   -3.4880   -2.6500    0.1286 H   0  0  0  0  0  0  0  0  0  0  0  0
   -1.6860   -2.0850    1.1196 C   0  0  0  0  0  0  0  0  0  0  0  0
   -0.7540   -2.7700    1.5226 O   0  0  0  0  0  0  0  0  0  0  0  0
   -1.5320   -0.8490    0.6496 N   0  0  0  0  0  0  0  0  0  0  0  0
   -2.3500   -0.3360    0.3566 H   0  0  0  0  0  0  0  0  0  0  0  0
   -0.2470   -0.1410    0.5576 C   0  0  1  0  0  0  0  0  0  0  0  0
    0.4239   -0.7541   -0.0450 H   0  0  0  0  0  0  0  0  0  0  0  0
   -0.4317    1.2160   -0.1683 C   0  0  1  0  0  0  0  0  0  0  0  0
    0.0270    1.1183   -1.1542 H   0  0  0  0  0  0  0  0  0  0  0  0
   -1.9155    1.5755   -0.3752 C   0  0  0  0  0  0  0  0  0  0  0  0
   -2.4034    1.7588    0.5838 H   0  0  0  0  0  0  0  0  0  0  0  0
   -2.0060    2.4653   -0.9962 H   0  0  0  0  0  0  0  0  0  0  0  0
   -2.4330    0.7610   -0.8831 H   0  0  0  0  0  0  0  0  0  0  0  0
    0.3121    2.3479    0.5753 C   0  0  0  0  0  0  0  0  0  0  0  0
   -0.0508    2.4202    1.6015 H   0  0  0  0  0  0  0  0  0  0  0  0
    1.3751    2.1089    0.6045 H   0  0  0  0  0  0  0  0  0  0  0  0
    0.1701    3.7225   -0.0923 C   0  0  0  0  0  0  0  0  0  0  0  0
   -0.8649    4.0614   -0.0531 H   0  0  0  0  0  0  0  0  0  0  0  0
    0.7917    4.4451    0.4369 H   0  0  0  0  0  0  0  0  0  0  0  0
    0.4967    3.6681   -1.1314 H   0  0  0  0  0  0  0  0  0  0  0  0
    0.3833   -0.0008    1.9525 C   0  0  0  0  0  0  0  0  0  0  0  0
    1.5803   -0.2304    2.1189 O   0  0  0  0  0  0  0  0  0  0  0  0
   -0.4170    0.3858    2.9541 N   0  0  0  0  0  0  0  0  0  0  0  0
   -1.3850    0.5669    2.7398 H   0  0  0  0  0  0  0  0  0  0  0  0
    0.0265    0.5600    4.3358 C   0  0  0  0  0  0  0  0  0  0  0  0
    0.8964    1.2200    4.3632 H   0  0  0  0  0  0  0  0  0  0  0  0
   -0.7726    0.9946    4.9382 H   0  0  0  0  0  0  0  0  0  0  0  0
    0.3119   -0.4069    4.7547 H   0  0  0  0  0  0  0  0  0  0  0  0
  5  6  2  0  0  0  0
  5  7  1  0  0  0  0
  2  3  1  0  0  0  0
  2  4  1  0  0  0  0
  2  5  1  0  0  0  0
  1  2  1  0  0  0  0
 24 25  2  0  0  0  0
 24 26  1  0  0  0  0
 20 21  1  0  0  0  0
 20 22  1  0  0  0  0
 20 23  1  0  0  0  0
 17 18  1  0  0  0  0
 17 19  1  0  0  0  0
 17 20  1  0  0  0  0
 13 14  1  0  0  0  0
 13 15  1  0  0  0  0
 13 16  1  0  0  0  0
 11 12  1  0  0  0  0
 11 13  1  0  0  0  0
 11 17  1  0  0  0  0
  9 10  1  0  0  0  0
  9 11  1  0  0  0  0
  9 24  1  0  0  0  0
  7  8  1  0  0  0  0
  7  9  1  0  0  0  0
 28 29  1  0  0  0  0
 28 30  1  0  0  0  0
 28 31  1  0  0  0  0
 26 27  1  0  0  0  0
 26 28  1  0  0  0  0
M  END
$$$$
default_name
  -OEChem-02102213163D

 31 30  0     1  0  0  0  0  0999 V2000
   -3.0760   -3.6390    1.5496 H   0  0  0  0  0  0  0  0  0  0  0  0
   -3.0940   -2.6290    1.1426 C   0  0  0  0  0  0  0  0  0  0  0  0
   -3.7160   -1.9930    1.7706 H   0  0  0  0  0  0  0  0  0  0  0  0
   -3.4880   -2.6500    0.1286 H   0  0  0  0  0  0  0  0  0  0  0  0
   -1.6860   -2.0850    1.1196 C   0  0  0  0  0  0  0  0  0  0  0  0
   -0.7540   -2.7700    1.5226 O   0  0  0  0  0  0  0  0  0  0  0  0
   -1.5320   -0.8490    0.6496 N   0  0  0  0  0  0  0  0  0  0  0  0
   -2.3500   -0.3360    0.3566 H   0  0  0  0  0  0  0  0  0  0  0  0
   -0.2470   -0.1410    0.5576 C   0  0  1  0  0  0  0  0  0  0  0  0
    0.4239   -0.7541   -0.0450 H   0  0  0  0  0  0  0  0  0  0  0  0
   -0.4317    1.2160   -0.1683 C   0  0  1  0  0  0  0  0  0  0  0  0
    0.0270    1.1183   -1.1542 H   0  0  0  0  0  0  0  0  0  0  0  0
   -1.9155    1.5755   -0.3752 C   0  0  0  0  0  0  0  0  0  0  0  0
   -2.4034    1.7588    0.5838 H   0  0  0  0  0  0  0  0  0  0  0  0
   -2.0060    2.4653   -0.9962 H   0  0  0  0  0  0  0  0  0  0  0  0
   -2.4330    0.7610   -0.8831 H   0  0  0  0  0  0  0  0  0  0  0  0
    0.3121    2.3479    0.5753 C   0  0  0  0  0  0  0  0  0  0  0  0
    0.1533    2.2540    1.6504 H   0  0  0  0  0  0  0  0  0  0  0  0
    1.3799    2.2546    0.3779 H   0  0  0  0  0  0  0  0  0  0  0  0
   -0.1127    3.7566    0.1388 C   0  0  0  0  0  0  0  0  0  0  0  0
   -1.1511    3.9444    0.4113 H   0  0  0  0  0  0  0  0  0  0  0  0
    0.5158    4.4931    0.6399 H   0  0  0  0  0  0  0  0  0  0  0  0
    0.0062    3.8646   -0.9399 H   0  0  0  0  0  0  0  0  0  0  0  0
    0.3833   -0.0008    1.9525 C   0  0  0  0  0  0  0  0  0  0  0  0
    1.5803   -0.2304    2.1189 O   0  0  0  0  0  0  0  0  0  0  0  0
   -0.4170    0.3858    2.9541 N   0  0  0  0  0  0  0  0  0  0  0  0
   -1.3850    0.5669    2.7398 H   0  0  0  0  0  0  0  0  0  0  0  0
    0.0265    0.5600    4.3358 C   0  0  0  0  0  0  0  0  0  0  0  0
    0.8964    1.2200    4.3632 H   0  0  0  0  0  0  0  0  0  0  0  0
   -0.7726    0.9946    4.9382 H   0  0  0  0  0  0  0  0  0  0  0  0
    0.3119   -0.4069    4.7547 H   0  0  0  0  0  0  0  0  0  0  0  0
  5  6  2  0  0  0  0
  5  7  1  0  0  0  0
  2  3  1  0  0  0  0
  2  4  1  0  0  0  0
  2  5  1  0  0  0  0
  1  2  1  0  0  0  0
 24 25  2  0  0  0  0
 24 26  1  0  0  0  0
 20 21  1  0  0  0  0
 20 22  1  0  0  0  0
 20 23  1  0  0  0  0
 17 18  1  0  0  0  0
 17 19  1  0  0  0  0
 17 20  1  0  0  0  0
 13 14  1  0  0  0  0
 13 15  1  0  0  0  0
 13 16  1  0  0  0  0
 11 12  1  0  0  0  0
 11 13  1  0  0  0  0
 11 17  1  0  0  0  0
  9 10  1  0  0  0  0
  9 11  1  0  0  0  0
  9 24  1  0  0  0  0
  7  8  1  0  0  0  0
  7  9  1  0  0  0  0
 28 29  1  0  0  0  0
 28 30  1  0  0  0  0
 28 31  1  0  0  0  0
 26 27  1  0  0  0  0
 26 28  1  0  0  0  0
M  END
$$$$
default_name
  -OEChem-02102213163D

 31 30  0     1  0  0  0  0  0999 V2000
   -3.0760   -3.6390    1.5496 H   0  0  0  0  0  0  0  0  0  0  0  0
   -3.0940   -2.6290    1.1426 C   0  0  0  0  0  0  0  0  0  0  0  0
   -3.7160   -1.9930    1.7706 H   0  0  0  0  0  0  0  0  0  0  0  0
   -3.4880   -2.6500    0.1286 H   0  0  0  0  0  0  0  0  0  0  0  0
   -1.6860   -2.0850    1.1196 C   0  0  0  0  0  0  0  0  0  0  0  0
   -0.7540   -2.7700    1.5226 O   0  0  0  0  0  0  0  0  0  0  0  0
   -1.5320   -0.8490    0.6496 N   0  0  0  0  0  0  0  0  0  0  0  0
   -2.3500   -0.3360    0.3566 H   0  0  0  0  0  0  0  0  0  0  0  0
   -0.2470   -0.1410    0.5576 C   0  0  1  0  0  0  0  0  0  0  0  0
    0.4239   -0.7541   -0.0450 H   0  0  0  0  0  0  0  0  0  0  0  0
   -0.4317    1.2160   -0.1683 C   0  0  1  0  0  0  0  0  0  0  0  0
    0.0270    1.1183   -1.1542 H   0  0  0  0  0  0  0  0  0  0  0  0
   -1.9155    1.5755   -0.3752 C   0  0  0  0  0  0  0  0  0  0  0  0
   -2.4034    1.7588    0.5838 H   0  0  0  0  0  0  0  0  0  0  0  0
   -2.0060    2.4653   -0.9962 H   0  0  0  0  0  0  0  0  0  0  0  0
   -2.4330    0.7610   -0.8831 H   0  0  0  0  0  0  0  0  0  0  0  0
    0.3121    2.3479    0.5753 C   0  0  0  0  0  0  0  0  0  0  0  0
    0.3803    2.1128    1.6383 H   0  0  0  0  0  0  0  0  0  0  0  0
    1.3235    2.4242    0.1763 H   0  0  0  0  0  0  0  0  0  0  0  0
   -0.3464    3.7254    0.4198 C   0  0  0  0  0  0  0  0  0  0  0  0
   -1.3249    3.7378    0.8995 H   0  0  0  0  0  0  0  0  0  0  0  0
    0.2818    4.4798    0.8942 H   0  0  0  0  0  0  0  0  0  0  0  0
   -0.4557    3.9694   -0.6375 H   0  0  0  0  0  0  0  0  0  0  0  0
    0.3833   -0.0008    1.9525 C   0  0  0  0  0  0  0  0  0  0  0  0
    1.5803   -0.2304    2.1189 O   0  0  0  0  0  0  0  0  0  0  0  0
   -0.4170    0.3858    2.9541 N   0  0  0  0  0  0  0  0  0  0  0  0
   -1.3850    0.5669    2.7398 H   0  0  0  0  0  0  0  0  0  0  0  0
    0.0265    0.5600    4.3358 C   0  0  0  0  0  0  0  0  0  0  0  0
    0.8964    1.2200    4.3632 H   0  0  0  0  0  0  0  0  0  0  0  0
   -0.7726    0.9946    4.9382 H   0  0  0  0  0  0  0  0  0  0  0  0
    0.3119   -0.4069    4.7547 H   0  0  0  0  0  0  0  0  0  0  0  0
  5  6  2  0  0  0  0
  5  7  1  0  0  0  0
  2  3  1  0  0  0  0
  2  4  1  0  0  0  0
  2  5  1  0  0  0  0
  1  2  1  0  0  0  0
 24 25  2  0  0  0  0
 24 26  1  0  0  0  0
 20 21  1  0  0  0  0
 20 22  1  0  0  0  0
 20 23  1  0  0  0  0
 17 18  1  0  0  0  0
 17 19  1  0  0  0  0
 17 20  1  0  0  0  0
 13 14  1  0  0  0  0
 13 15  1  0  0  0  0
 13 16  1  0  0  0  0
 11 12  1  0  0  0  0
 11 13  1  0  0  0  0
 11 17  1  0  0  0  0
  9 10  1  0  0  0  0
  9 11  1  0  0  0  0
  9 24  1  0  0  0  0
  7  8  1  0  0  0  0
  7  9  1  0  0  0  0
 28 29  1  0  0  0  0
 28 30  1  0  0  0  0
 28 31  1  0  0  0  0
 26 27  1  0  0  0  0
 26 28  1  0  0  0  0
M  END
$$$$
default_name
  -OEChem-02102213163D

 31 30  0     1  0  0  0  0  0999 V2000
   -3.0760   -3.6390    1.5496 H   0  0  0  0  0  0  0  0  0  0  0  0
   -3.0940   -2.6290    1.1426 C   0  0  0  0  0  0  0  0  0  0  0  0
   -3.7160   -1.9930    1.7706 H   0  0  0  0  0  0  0  0  0  0  0  0
   -3.4880   -2.6500    0.1286 H   0  0  0  0  0  0  0  0  0  0  0  0
   -1.6860   -2.0850    1.1196 C   0  0  0  0  0  0  0  0  0  0  0  0
   -0.7540   -2.7700    1.5226 O   0  0  0  0  0  0  0  0  0  0  0  0
   -1.5320   -0.8490    0.6496 N   0  0  0  0  0  0  0  0  0  0  0  0
   -2.3500   -0.3360    0.3566 H   0  0  0  0  0  0  0  0  0  0  0  0
   -0.2470   -0.1410    0.5576 C   0  0  1  0  0  0  0  0  0  0  0  0
    0.4239   -0.7541   -0.0450 H   0  0  0  0  0  0  0  0  0  0  0  0
   -0.4317    1.2160   -0.1683 C   0  0  1  0  0  0  0  0  0  0  0  0
    0.0270    1.1183   -1.1542 H   0  0  0  0  0  0  0  0  0  0  0  0
   -1.9155    1.5755   -0.3752 C   0  0  0  0  0  0  0  0  0  0  0  0
   -2.4034    1.7588    0.5838 H   0  0  0  0  0  0  0  0  0  0  0  0
   -2.0060    2.4653   -0.9962 H   0  0  0  0  0  0  0  0  0  0  0  0
   -2.4330    0.7610   -0.8831 H   0  0  0  0  0  0  0  0  0  0  0  0
    0.3121    2.3479    0.5753 C   0  0  0  0  0  0  0  0  0  0  0  0
    0.6150    2.0061    1.5659 H   0  0  0  0  0  0  0  0  0  0  0  0
    1.2096    2.6060    0.0134 H   0  0  0  0  0  0  0  0  0  0  0  0
   -0.5149    3.6313    0.7317 C   0  0  0  0  0  0  0  0  0  0  0  0
   -1.3744    3.4558    1.3783 H   0  0  0  0  0  0  0  0  0  0  0  0
    0.1056    4.4061    1.1825 H   0  0  0  0  0  0  0  0  0  0  0  0
   -0.8576    3.9755   -0.2447 H   0  0  0  0  0  0  0  0  0  0  0  0
    0.3833   -0.0008    1.9525 C   0  0  0  0  0  0  0  0  0  0  0  0
    1.5803   -0.2304    2.1189 O   0  0  0  0  0  0  0  0  0  0  0  0
   -0.4170    0.3858    2.9541 N   0  0  0  0  0  0  0  0  0  0  0  0
   -1.3850    0.5669    2.7398 H   0  0  0  0  0  0  0  0  0  0  0  0
    0.0265    0.5600    4.3358 C   0  0  0  0  0  0  0  0  0  0  0  0
    0.8964    1.2200    4.3632 H   0  0  0  0  0  0  0  0  0  0  0  0
   -0.7726    0.9946    4.9382 H   0  0  0  0  0  0  0  0  0  0  0  0
    0.3119   -0.4069    4.7547 H   0  0  0  0  0  0  0  0  0  0  0  0
  5  6  2  0  0  0  0
  5  7  1  0  0  0  0
  2  3  1  0  0  0  0
  2  4  1  0  0  0  0
  2  5  1  0  0  0  0
  1  2  1  0  0  0  0
 24 25  2  0  0  0  0
 24 26  1  0  0  0  0
 20 21  1  0  0  0  0
 20 22  1  0  0  0  0
 20 23  1  0  0  0  0
 17 18  1  0  0  0  0
 17 19  1  0  0  0  0
 17 20  1  0  0  0  0
 13 14  1  0  0  0  0
 13 15  1  0  0  0  0
 13 16  1  0  0  0  0
 11 12  1  0  0  0  0
 11 13  1  0  0  0  0
 11 17  1  0  0  0  0
  9 10  1  0  0  0  0
  9 11  1  0  0  0  0
  9 24  1  0  0  0  0
  7  8  1  0  0  0  0
  7  9  1  0  0  0  0
 28 29  1  0  0  0  0
 28 30  1  0  0  0  0
 28 31  1  0  0  0  0
 26 27  1  0  0  0  0
 26 28  1  0  0  0  0
M  END
$$$$
default_name
  -OEChem-02102213163D

 31 30  0     1  0  0  0  0  0999 V2000
   -3.0760   -3.6390    1.5496 H   0  0  0  0  0  0  0  0  0  0  0  0
   -3.0940   -2.6290    1.1426 C   0  0  0  0  0  0  0  0  0  0  0  0
   -3.7160   -1.9930    1.7706 H   0  0  0  0  0  0  0  0  0  0  0  0
   -3.4880   -2.6500    0.1286 H   0  0  0  0  0  0  0  0  0  0  0  0
   -1.6860   -2.0850    1.1196 C   0  0  0  0  0  0  0  0  0  0  0  0
   -0.7540   -2.7700    1.5226 O   0  0  0  0  0  0  0  0  0  0  0  0
   -1.5320   -0.8490    0.6496 N   0  0  0  0  0  0  0  0  0  0  0  0
   -2.3500   -0.3360    0.3566 H   0  0  0  0  0  0  0  0  0  0  0  0
   -0.2470   -0.1410    0.5576 C   0  0  1  0  0  0  0  0  0  0  0  0
    0.4239   -0.7541   -0.0450 H   0  0  0  0  0  0  0  0  0  0  0  0
   -0.4317    1.2160   -0.1683 C   0  0  1  0  0  0  0  0  0  0  0  0
    0.0270    1.1183   -1.1542 H   0  0  0  0  0  0  0  0  0  0  0  0
   -1.9155    1.5755   -0.3752 C   0  0  0  0  0  0  0  0  0  0  0  0
   -2.4034    1.7588    0.5838 H   0  0  0  0  0  0  0  0  0  0  0  0
   -2.0060    2.4653   -0.9962 H   0  0  0  0  0  0  0  0  0  0  0  0
   -2.4330    0.7610   -0.8831 H   0  0  0  0  0  0  0  0  0  0  0  0
    0.3121    2.3479    0.5753 C   0  0  0  0  0  0  0  0  0  0  0  0
    0.8411    1.9414    1.4383 H   0  0  0  0  0  0  0  0  0  0  0  0
    1.0461    2.7878   -0.0998 H   0  0  0  0  0  0  0  0  0  0  0  0
   -0.6068    3.4805    1.0532 C   0  0  0  0  0  0  0  0  0  0  0  0
   -1.2963    3.1176    1.8151 H   0  0  0  0  0  0  0  0  0  0  0  0
   -0.0007    4.2770    1.4853 H   0  0  0  0  0  0  0  0  0  0  0  0
   -1.1721    3.8823    0.2116 H   0  0  0  0  0  0  0  0  0  0  0  0
    0.3833   -0.0008    1.9525 C   0  0  0  0  0  0  0  0  0  0  0  0
    1.5803   -0.2304    2.1189 O   0  0  0  0  0  0  0  0  0  0  0  0
   -0.4170    0.3858    2.9541 N   0  0  0  0  0  0  0  0  0  0  0  0
   -1.3850    0.5669    2.7398 H   0  0  0  0  0  0  0  0  0  0  0  0
    0.0265    0.5600    4.3358 C   0  0  0  0  0  0  0  0  0  0  0  0
    0.8964    1.2200    4.3632 H   0  0  0  0  0  0  0  0  0  0  0  0
   -0.7726    0.9946    4.9382 H   0  0  0  0  0  0  0  0  0  0  0  0
    0.3119   -0.4069    4.7547 H   0  0  0  0  0  0  0  0  0  0  0  0
  5  6  2  0  0  0  0
  5  7  1  0  0  0  0
  2  3  1  0  0  0  0
  2  4  1  0  0  0  0
  2  5  1  0  0  0  0
  1  2  1  0  0  0  0
 24 25  2  0  0  0  0
 24 26  1  0  0  0  0
 20 21  1  0  0  0  0
 20 22  1  0  0  0  0
 20 23  1  0  0  0  0
 17 18  1  0  0  0  0
 17 19  1  0  0  0  0
 17 20  1  0  0  0  0
 13 14  1  0  0  0  0
 13 15  1  0  0  0  0
 13 16  1  0  0  0  0
 11 12  1  0  0  0  0
 11 13  1  0  0  0  0
 11 17  1  0  0  0  0
  9 10  1  0  0  0  0
  9 11  1  0  0  0  0
  9 24  1  0  0  0  0
  7  8  1  0  0  0  0
  7  9  1  0  0  0  0
 28 29  1  0  0  0  0
 28 30  1  0  0  0  0
 28 31  1  0  0  0  0
 26 27  1  0  0  0  0
 26 28  1  0  0  0  0
M  END
$$$$
default_name
  -OEChem-02102213163D

 31 30  0     1  0  0  0  0  0999 V2000
   -3.0760   -3.6390    1.5496 H   0  0  0  0  0  0  0  0  0  0  0  0
   -3.0940   -2.6290    1.1426 C   0  0  0  0  0  0  0  0  0  0  0  0
   -3.7160   -1.9930    1.7706 H   0  0  0  0  0  0  0  0  0  0  0  0
   -3.4880   -2.6500    0.1286 H   0  0  0  0  0  0  0  0  0  0  0  0
   -1.6860   -2.0850    1.1196 C   0  0  0  0  0  0  0  0  0  0  0  0
   -0.7540   -2.7700    1.5226 O   0  0  0  0  0  0  0  0  0  0  0  0
   -1.5320   -0.8490    0.6496 N   0  0  0  0  0  0  0  0  0  0  0  0
   -2.3500   -0.3360    0.3566 H   0  0  0  0  0  0  0  0  0  0  0  0
   -0.2470   -0.1410    0.5576 C   0  0  1  0  0  0  0  0  0  0  0  0
    0.4239   -0.7541   -0.0450 H   0  0  0  0  0  0  0  0  0  0  0  0
   -0.4317    1.2160   -0.1683 C   0  0  1  0  0  0  0  0  0  0  0  0
    0.0270    1.1183   -1.1542 H   0  0  0  0  0  0  0  0  0  0  0  0
   -1.9155    1.5755   -0.3752 C   0  0  0  0  0  0  0  0  0  0  0  0
   -2.4034    1.7588    0.5838 H   0  0  0  0  0  0  0  0  0  0  0  0
   -2.0060    2.4653   -0.9962 H   0  0  0  0  0  0  0  0  0  0  0  0
   -2.4330    0.7610   -0.8831 H   0  0  0  0  0  0  0  0  0  0  0  0
    0.3121    2.3479    0.5753 C   0  0  0  0  0  0  0  0  0  0  0  0
    1.0435    1.9229    1.2640 H   0  0  0  0  0  0  0  0  0  0  0  0
    0.8440    2.9571   -0.1554 H   0  0  0  0  0  0  0  0  0  0  0  0
   -0.6158    3.2833    1.3623 C   0  0  0  0  0  0  0  0  0  0  0  0
   -1.0960    2.7462    2.1800 H   0  0  0  0  0  0  0  0  0  0  0  0
   -0.0299    4.1014    1.7818 H   0  0  0  0  0  0  0  0  0  0  0  0
   -1.3778    3.6963    0.7004 H   0  0  0  0  0  0  0  0  0  0  0  0
    0.3833   -0.0008    1.9525 C   0  0  0  0  0  0  0  0  0  0  0  0
    1.5803   -0.2304    2.1189 O   0  0  0  0  0  0  0  0  0  0  0  0
   -0.4170    0.3858    2.9541 N   0  0  0  0  0  0  0  0  0  0  0  0
   -1.3850    0.5669    2.7398 H   0  0  0  0  0  0  0  0  0  0  0  0
    0.0265    0.5600    4.3358 C   0  0  0  0  0  0  0  0  0  0  0  0
    0.8964    1.2200    4.3632 H   0  0  0  0  0  0  0  0  0  0  0  0
   -0.7726    0.9946    4.9382 H   0  0  0  0  0  0  0  0  0  0  0  0
    0.3119   -0.4069    4.7547 H   0  0  0  0  0  0  0  0  0  0  0  0
  5  6  2  0  0  0  0
  5  7  1  0  0  0  0
  2  3  1  0  0  0  0
  2  4  1  0  0  0  0
  2  5  1  0  0  0  0
  1  2  1  0  0  0  0
 24 25  2  0  0  0  0
 24 26  1  0  0  0  0
 20 21  1  0  0  0  0
 20 22  1  0  0  0  0
 20 23  1  0  0  0  0
 17 18  1  0  0  0  0
 17 19  1  0  0  0  0
 17 20  1  0  0  0  0
 13 14  1  0  0  0  0
 13 15  1  0  0  0  0
 13 16  1  0  0  0  0
 11 12  1  0  0  0  0
 11 13  1  0  0  0  0
 11 17  1  0  0  0  0
  9 10  1  0  0  0  0
  9 11  1  0  0  0  0
  9 24  1  0  0  0  0
  7  8  1  0  0  0  0
  7  9  1  0  0  0  0
 28 29  1  0  0  0  0
 28 30  1  0  0  0  0
 28 31  1  0  0  0  0
 26 27  1  0  0  0  0
 26 28  1  0  0  0  0
M  END
$$$$
default_name
  -OEChem-02102213163D

 31 30  0     1  0  0  0  0  0999 V2000
   -3.0760   -3.6390    1.5496 H   0  0  0  0  0  0  0  0  0  0  0  0
   -3.0940   -2.6290    1.1426 C   0  0  0  0  0  0  0  0  0  0  0  0
   -3.7160   -1.9930    1.7706 H   0  0  0  0  0  0  0  0  0  0  0  0
   -3.4880   -2.6500    0.1286 H   0  0  0  0  0  0  0  0  0  0  0  0
   -1.6860   -2.0850    1.1196 C   0  0  0  0  0  0  0  0  0  0  0  0
   -0.7540   -2.7700    1.5226 O   0  0  0  0  0  0  0  0  0  0  0  0
   -1.5320   -0.8490    0.6496 N   0  0  0  0  0  0  0  0  0  0  0  0
   -2.3500   -0.3360    0.3566 H   0  0  0  0  0  0  0  0  0  0  0  0
   -0.2470   -0.1410    0.5576 C   0  0  1  0  0  0  0  0  0  0  0  0
    0.4239   -0.7541   -0.0450 H   0  0  0  0  0  0  0  0  0  0  0  0
   -0.4317    1.2160   -0.1683 C   0  0  1  0  0  0  0  0  0  0  0  0
    0.0270    1.1183   -1.1542 H   0  0  0  0  0  0  0  0  0  0  0  0
   -1.9155    1.5755   -0.3752 C   0  0  0  0  0  0  0  0  0  0  0  0
   -2.4034    1.7588    0.5838 H   0  0  0  0  0  0  0  0  0  0  0  0
   -2.0060    2.4653   -0.9962 H   0  0  0  0  0  0  0  0  0  0  0  0
   -2.4330    0.7610   -0.8831 H   0  0  0  0  0  0  0  0  0  0  0  0
    0.3121    2.3479    0.5753 C   0  0  0  0  0  0  0  0  0  0  0  0
    1.2082    1.9520    1.0550 H   0  0  0  0  0  0  0  0  0  0  0  0
    0.6172    3.1024   -0.1497 H   0  0  0  0  0  0  0  0  0  0  0  0
   -0.5414    3.0532    1.6381 C   0  0  0  0  0  0  0  0  0  0  0  0
   -0.7870    2.3669    2.4483 H   0  0  0  0  0  0  0  0  0  0  0  0
    0.0200    3.8912    2.0519 H   0  0  0  0  0  0  0  0  0  0  0  0
   -1.4606    3.4302    1.1884 H   0  0  0  0  0  0  0  0  0  0  0  0
    0.3833   -0.0008    1.9525 C   0  0  0  0  0  0  0  0  0  0  0  0
    1.5803   -0.2304    2.1189 O   0  0  0  0  0  0  0  0  0  0  0  0
   -0.4170    0.3858    2.9541 N   0  0  0  0  0  0  0  0  0  0  0  0
   -1.3850    0.5669    2.7398 H   0  0  0  0  0  0  0  0  0  0  0  0
    0.0265    0.5600    4.3358 C   0  0  0  0  0  0  0  0  0  0  0  0
    0.8964    1.2200    4.3632 H   0  0  0  0  0  0  0  0  0  0  0  0
   -0.7726    0.9946    4.9382 H   0  0  0  0  0  0  0  0  0  0  0  0
    0.3119   -0.4069    4.7547 H   0  0  0  0  0  0  0  0  0  0  0  0
  5  6  2  0  0  0  0
  5  7  1  0  0  0  0
  2  3  1  0  0  0  0
  2  4  1  0  0  0  0
  2  5  1  0  0  0  0
  1  2  1  0  0  0  0
 24 25  2  0  0  0  0
 24 26  1  0  0  0  0
 20 21  1  0  0  0  0
 20 22  1  0  0  0  0
 20 23  1  0  0  0  0
 17 18  1  0  0  0  0
 17 19  1  0  0  0  0
 17 20  1  0  0  0  0
 13 14  1  0  0  0  0
 13 15  1  0  0  0  0
 13 16  1  0  0  0  0
 11 12  1  0  0  0  0
 11 13  1  0  0  0  0
 11 17  1  0  0  0  0
  9 10  1  0  0  0  0
  9 11  1  0  0  0  0
  9 24  1  0  0  0  0
  7  8  1  0  0  0  0
  7  9  1  0  0  0  0
 28 29  1  0  0  0  0
 28 30  1  0  0  0  0
 28 31  1  0  0  0  0
 26 27  1  0  0  0  0
 26 28  1  0  0  0  0
M  END
$$$$
default_name
  -OEChem-02102213163D

 31 30  0     1  0  0  0  0  0999 V2000
   -3.0760   -3.6390    1.5496 H   0  0  0  0  0  0  0  0  0  0  0  0
   -3.0940   -2.6290    1.1426 C   0  0  0  0  0  0  0  0  0  0  0  0
   -3.7160   -1.9930    1.7706 H   0  0  0  0  0  0  0  0  0  0  0  0
   -3.4880   -2.6500    0.1286 H   0  0  0  0  0  0  0  0  0  0  0  0
   -1.6860   -2.0850    1.1196 C   0  0  0  0  0  0  0  0  0  0  0  0
   -0.7540   -2.7700    1.5226 O   0  0  0  0  0  0  0  0  0  0  0  0
   -1.5320   -0.8490    0.6496 N   0  0  0  0  0  0  0  0  0  0  0  0
   -2.3500   -0.3360    0.3566 H   0  0  0  0  0  0  0  0  0  0  0  0
   -0.2470   -0.1410    0.5576 C   0  0  1  0  0  0  0  0  0  0  0  0
    0.4239   -0.7541   -0.0450 H   0  0  0  0  0  0  0  0  0  0  0  0
   -0.4317    1.2160   -0.1683 C   0  0  1  0  0  0  0  0  0  0  0  0
    0.0270    1.1183   -1.1542 H   0  0  0  0  0  0  0  0  0  0  0  0
   -1.9155    1.5755   -0.3752 C   0  0  0  0  0  0  0  0  0  0  0  0
   -2.4034    1.7588    0.5838 H   0  0  0  0  0  0  0  0  0  0  0  0
   -2.0060    2.4653   -0.9962 H   0  0  0  0  0  0  0  0  0  0  0  0
   -2.4330    0.7610   -0.8831 H   0  0  0  0  0  0  0  0  0  0  0  0
    0.3121    2.3479    0.5753 C   0  0  0  0  0  0  0  0  0  0  0  0
    1.3240    2.0266    0.8256 H   0  0  0  0  0  0  0  0  0  0  0  0
    0.3811    3.2138   -0.0831 H   0  0  0  0  0  0  0  0  0  0  0  0
   -0.3885    2.8059    1.8617 C   0  0  0  0  0  0  0  0  0  0  0  0
   -0.3905    2.0057    2.6016 H   0  0  0  0  0  0  0  0  0  0  0  0
    0.1455    3.6608    2.2771 H   0  0  0  0  0  0  0  0  0  0  0  0
   -1.4149    3.1020    1.6423 H   0  0  0  0  0  0  0  0  0  0  0  0
    0.3833   -0.0008    1.9525 C   0  0  0  0  0  0  0  0  0  0  0  0
    1.5803   -0.2304    2.1189 O   0  0  0  0  0  0  0  0  0  0  0  0
   -0.4170    0.3858    2.9541 N   0  0  0  0  0  0  0  0  0  0  0  0
   -1.3850    0.5669    2.7398 H   0  0  0  0  0  0  0  0  0  0  0  0
    0.0265    0.5600    4.3358 C   0  0  0  0  0  0  0  0  0  0  0  0
    0.8964    1.2200    4.3632 H   0  0  0  0  0  0  0  0  0  0  0  0
   -0.7726    0.9946    4.9382 H   0  0  0  0  0  0  0  0  0  0  0  0
    0.3119   -0.4069    4.7547 H   0  0  0  0  0  0  0  0  0  0  0  0
  5  6  2  0  0  0  0
  5  7  1  0  0  0  0
  2  3  1  0  0  0  0
  2  4  1  0  0  0  0
  2  5  1  0  0  0  0
  1  2  1  0  0  0  0
 24 25  2  0  0  0  0
 24 26  1  0  0  0  0
 20 21  1  0  0  0  0
 20 22  1  0  0  0  0
 20 23  1  0  0  0  0
 17 18  1  0  0  0  0
 17 19  1  0  0  0  0
 17 20  1  0  0  0  0
 13 14  1  0  0  0  0
 13 15  1  0  0  0  0
 13 16  1  0  0  0  0
 11 12  1  0  0  0  0
 11 13  1  0  0  0  0
 11 17  1  0  0  0  0
  9 10  1  0  0  0  0
  9 11  1  0  0  0  0
  9 24  1  0  0  0  0
  7  8  1  0  0  0  0
  7  9  1  0  0  0  0
 28 29  1  0  0  0  0
 28 30  1  0  0  0  0
 28 31  1  0  0  0  0
 26 27  1  0  0  0  0
 26 28  1  0  0  0  0
M  END
$$$$
default_name
  -OEChem-02102213163D

 31 30  0     1  0  0  0  0  0999 V2000
   -3.0760   -3.6390    1.5496 H   0  0  0  0  0  0  0  0  0  0  0  0
   -3.0940   -2.6290    1.1426 C   0  0  0  0  0  0  0  0  0  0  0  0
   -3.7160   -1.9930    1.7706 H   0  0  0  0  0  0  0  0  0  0  0  0
   -3.4880   -2.6500    0.1286 H   0  0  0  0  0  0  0  0  0  0  0  0
   -1.6860   -2.0850    1.1196 C   0  0  0  0  0  0  0  0  0  0  0  0
   -0.7540   -2.7700    1.5226 O   0  0  0  0  0  0  0  0  0  0  0  0
   -1.5320   -0.8490    0.6496 N   0  0  0  0  0  0  0  0  0  0  0  0
   -2.3500   -0.3360    0.3566 H   0  0  0  0  0  0  0  0  0  0  0  0
   -0.2470   -0.1410    0.5576 C   0  0  1  0  0  0  0  0  0  0  0  0
    0.4239   -0.7541   -0.0450 H   0  0  0  0  0  0  0  0  0  0  0  0
   -0.4317    1.2160   -0.1683 C   0  0  1  0  0  0  0  0  0  0  0  0
    0.0270    1.1183   -1.1542 H   0  0  0  0  0  0  0  0  0  0  0  0
   -1.9155    1.5755   -0.3752 C   0  0  0  0  0  0  0  0  0  0  0  0
   -2.4034    1.7588    0.5838 H   0  0  0  0  0  0  0  0  0  0  0  0
   -2.0060    2.4653   -0.9962 H   0  0  0  0  0  0  0  0  0  0  0  0
   -2.4330    0.7610   -0.8831 H   0  0  0  0  0  0  0  0  0  0  0  0
    0.3121    2.3479    0.5753 C   0  0  0  0  0  0  0  0  0  0  0  0
    1.3831    2.1418    0.5912 H   0  0  0  0  0  0  0  0  0  0  0  0
    0.1518    3.2837    0.0398 H   0  0  0  0  0  0  0  0  0  0  0  0
   -0.1677    2.5582    2.0179 C   0  0  0  0  0  0  0  0  0  0  0  0
    0.0666    1.6870    2.6294 H   0  0  0  0  0  0  0  0  0  0  0  0
    0.3382    3.4257    2.4421 H   0  0  0  0  0  0  0  0  0  0  0  0
   -1.2439    2.7341    2.0312 H   0  0  0  0  0  0  0  0  0  0  0  0
    0.3833   -0.0008    1.9525 C   0  0  0  0  0  0  0  0  0  0  0  0
    1.5803   -0.2304    2.1189 O   0  0  0  0  0  0  0  0  0  0  0  0
   -0.4170    0.3858    2.9541 N   0  0  0  0  0  0  0  0  0  0  0  0
   -1.3850    0.5669    2.7398 H   0  0  0  0  0  0  0  0  0  0  0  0
    0.0265    0.5600    4.3358 C   0  0  0  0  0  0  0  0  0  0  0  0
    0.8964    1.2200    4.3632 H   0  0  0  0  0  0  0  0  0  0  0  0
   -0.7726    0.9946    4.9382 H   0  0  0  0  0  0  0  0  0  0  0  0
    0.3119   -0.4069    4.7547 H   0  0  0  0  0  0  0  0  0  0  0  0
  5  6  2  0  0  0  0
  5  7  1  0  0  0  0
  2  3  1  0  0  0  0
  2  4  1  0  0  0  0
  2  5  1  0  0  0  0
  1  2  1  0  0  0  0
 24 25  2  0  0  0  0
 24 26  1  0  0  0  0
 20 21  1  0  0  0  0
 20 22  1  0  0  0  0
 20 23  1  0  0  0  0
 17 18  1  0  0  0  0
 17 19  1  0  0  0  0
 17 20  1  0  0  0  0
 13 14  1  0  0  0  0
 13 15  1  0  0  0  0
 13 16  1  0  0  0  0
 11 12  1  0  0  0  0
 11 13  1  0  0  0  0
 11 17  1  0  0  0  0
  9 10  1  0  0  0  0
  9 11  1  0  0  0  0
  9 24  1  0  0  0  0
  7  8  1  0  0  0  0
  7  9  1  0  0  0  0
 28 29  1  0  0  0  0
 28 30  1  0  0  0  0
 28 31  1  0  0  0  0
 26 27  1  0  0  0  0
 26 28  1  0  0  0  0
M  END
$$$$
default_name
  -OEChem-02102213163D

 31 30  0     1  0  0  0  0  0999 V2000
   -3.0760   -3.6390    1.5496 H   0  0  0  0  0  0  0  0  0  0  0  0
   -3.0940   -2.6290    1.1426 C   0  0  0  0  0  0  0  0  0  0  0  0
   -3.7160   -1.9930    1.7706 H   0  0  0  0  0  0  0  0  0  0  0  0
   -3.4880   -2.6500    0.1286 H   0  0  0  0  0  0  0  0  0  0  0  0
   -1.6860   -2.0850    1.1196 C   0  0  0  0  0  0  0  0  0  0  0  0
   -0.7540   -2.7700    1.5226 O   0  0  0  0  0  0  0  0  0  0  0  0
   -1.5320   -0.8490    0.6496 N   0  0  0  0  0  0  0  0  0  0  0  0
   -2.3500   -0.3360    0.3566 H   0  0  0  0  0  0  0  0  0  0  0  0
   -0.2470   -0.1410    0.5576 C   0  0  1  0  0  0  0  0  0  0  0  0
    0.4239   -0.7541   -0.0450 H   0  0  0  0  0  0  0  0  0  0  0  0
   -0.4317    1.2160   -0.1683 C   0  0  1  0  0  0  0  0  0  0  0  0
    0.0270    1.1183   -1.1542 H   0  0  0  0  0  0  0  0  0  0  0  0
   -1.9155    1.5755   -0.3752 C   0  0  0  0  0  0  0  0  0  0  0  0
   -2.4034    1.7588    0.5838 H   0  0  0  0  0  0  0  0  0  0  0  0
   -2.0060    2.4653   -0.9962 H   0  0  0  0  0  0  0  0  0  0  0  0
   -2.4330    0.7610   -0.8831 H   0  0  0  0  0  0  0  0  0  0  0  0
    0.3121    2.3479    0.5753 C   0  0  0  0  0  0  0  0  0  0  0  0
    1.3814    2.2895    0.3680 H   0  0  0  0  0  0  0  0  0  0  0  0
   -0.0550    3.3073    0.2108 H   0  0  0  0  0  0  0  0  0  0  0  0
    0.1061    2.3269    2.0960 C   0  0  0  0  0  0  0  0  0  0  0  0
    0.5531    1.4327    2.5300 H   0  0  0  0  0  0  0  0  0  0  0  0
    0.5849    3.2022    2.5357 H   0  0  0  0  0  0  0  0  0  0  0  0
   -0.9590    2.3516    2.3286 H   0  0  0  0  0  0  0  0  0  0  0  0
    0.3833   -0.0008    1.9525 C   0  0  0  0  0  0  0  0  0  0  0  0
    1.5803   -0.2304    2.1189 O   0  0  0  0  0  0  0  0  0  0  0  0
   -0.4170    0.3858    2.9541 N   0  0  0  0  0  0  0  0  0  0  0  0
   -1.3850    0.5669    2.7398 H   0  0  0  0  0  0  0  0  0  0  0  0
    0.0265    0.5600    4.3358 C   0  0  0  0  0  0  0  0  0  0  0  0
    0.8964    1.2200    4.3632 H   0  0  0  0  0  0  0  0  0  0  0  0
   -0.7726    0.9946    4.9382 H   0  0  0  0  0  0  0  0  0  0  0  0
    0.3119   -0.4069    4.7547 H   0  0  0  0  0  0  0  0  0  0  0  0
  5  6  2  0  0  0  0
  5  7  1  0  0  0  0
  2  3  1  0  0  0  0
  2  4  1  0  0  0  0
  2  5  1  0  0  0  0
  1  2  1  0  0  0  0
 24 25  2  0  0  0  0
 24 26  1  0  0  0  0
 20 21  1  0  0  0  0
 20 22  1  0  0  0  0
 20 23  1  0  0  0  0
 17 18  1  0  0  0  0
 17 19  1  0  0  0  0
 17 20  1  0  0  0  0
 13 14  1  0  0  0  0
 13 15  1  0  0  0  0
 13 16  1  0  0  0  0
 11 12  1  0  0  0  0
 11 13  1  0  0  0  0
 11 17  1  0  0  0  0
  9 10  1  0  0  0  0
  9 11  1  0  0  0  0
  9 24  1  0  0  0  0
  7  8  1  0  0  0  0
  7  9  1  0  0  0  0
 28 29  1  0  0  0  0
 28 30  1  0  0  0  0
 28 31  1  0  0  0  0
 26 27  1  0  0  0  0
 26 28  1  0  0  0  0
M  END
$$$$
default_name
  -OEChem-02102213163D

 31 30  0     1  0  0  0  0  0999 V2000
   -3.0760   -3.6390    1.5496 H   0  0  0  0  0  0  0  0  0  0  0  0
   -3.0940   -2.6290    1.1426 C   0  0  0  0  0  0  0  0  0  0  0  0
   -3.7160   -1.9930    1.7706 H   0  0  0  0  0  0  0  0  0  0  0  0
   -3.4880   -2.6500    0.1286 H   0  0  0  0  0  0  0  0  0  0  0  0
   -1.6860   -2.0850    1.1196 C   0  0  0  0  0  0  0  0  0  0  0  0
   -0.7540   -2.7700    1.5226 O   0  0  0  0  0  0  0  0  0  0  0  0
   -1.5320   -0.8490    0.6496 N   0  0  0  0  0  0  0  0  0  0  0  0
   -2.3500   -0.3360    0.3566 H   0  0  0  0  0  0  0  0  0  0  0  0
   -0.2470   -0.1410    0.5576 C   0  0  1  0  0  0  0  0  0  0  0  0
    0.4239   -0.7541   -0.0450 H   0  0  0  0  0  0  0  0  0  0  0  0
   -0.4317    1.2160   -0.1683 C   0  0  1  0  0  0  0  0  0  0  0  0
    0.0270    1.1183   -1.1542 H   0  0  0  0  0  0  0  0  0  0  0  0
   -1.9155    1.5755   -0.3752 C   0  0  0  0  0  0  0  0  0  0  0  0
   -2.4034    1.7588    0.5838 H   0  0  0  0  0  0  0  0  0  0  0  0
   -2.0060    2.4653   -0.9962 H   0  0  0  0  0  0  0  0  0  0  0  0
   -2.4330    0.7610   -0.8831 H   0  0  0  0  0  0  0  0  0  0  0  0
    0.3121    2.3479    0.5753 C   0  0  0  0  0  0  0  0  0  0  0  0
    1.3191    2.4598    0.1712 H   0  0  0  0  0  0  0  0  0  0  0  0
   -0.2254    3.2830    0.4181 H   0  0  0  0  0  0  0  0  0  0  0  0
    0.4142    2.1280    2.0907 C   0  0  0  0  0  0  0  0  0  0  0  0
    1.0359    1.2601    2.3100 H   0  0  0  0  0  0  0  0  0  0  0  0
    0.8688    3.0053    2.5515 H   0  0  0  0  0  0  0  0  0  0  0  0
   -0.5799    1.9806    2.5141 H   0  0  0  0  0  0  0  0  0  0  0  0
    0.3833   -0.0008    1.9525 C   0  0  0  0  0  0  0  0  0  0  0  0
    1.5803   -0.2304    2.1189 O   0  0  0  0  0  0  0  0  0  0  0  0
   -0.4170    0.3858    2.9541 N   0  0  0  0  0  0  0  0  0  0  0  0
   -1.3850    0.5669    2.7398 H   0  0  0  0  0  0  0  0  0  0  0  0
    0.0265    0.5600    4.3358 C   0  0  0  0  0  0  0  0  0  0  0  0
    0.8964    1.2200    4.3632 H   0  0  0  0  0  0  0  0  0  0  0  0
   -0.7726    0.9946    4.9382 H   0  0  0  0  0  0  0  0  0  0  0  0
    0.3119   -0.4069    4.7547 H   0  0  0  0  0  0  0  0  0  0  0  0
  5  6  2  0  0  0  0
  5  7  1  0  0  0  0
  2  3  1  0  0  0  0
  2  4  1  0  0  0  0
  2  5  1  0  0  0  0
  1  2  1  0  0  0  0
 24 25  2  0  0  0  0
 24 26  1  0  0  0  0
 20 21  1  0  0  0  0
 20 22  1  0  0  0  0
 20 23  1  0  0  0  0
 17 18  1  0  0  0  0
 17 19  1  0  0  0  0
 17 20  1  0  0  0  0
 13 14  1  0  0  0  0
 13 15  1  0  0  0  0
 13 16  1  0  0  0  0
 11 12  1  0  0  0  0
 11 13  1  0  0  0  0
 11 17  1  0  0  0  0
  9 10  1  0  0  0  0
  9 11  1  0  0  0  0
  9 24  1  0  0  0  0
  7  8  1  0  0  0  0
  7  9  1  0  0  0  0
 28 29  1  0  0  0  0
 28 30  1  0  0  0  0
 28 31  1  0  0  0  0
 26 27  1  0  0  0  0
 26 28  1  0  0  0  0
M  END
$$$$
default_name
  -OEChem-02102213163D

 31 30  0     1  0  0  0  0  0999 V2000
   -3.0760   -3.6390    1.5496 H   0  0  0  0  0  0  0  0  0  0  0  0
   -3.0940   -2.6290    1.1426 C   0  0  0  0  0  0  0  0  0  0  0  0
   -3.7160   -1.9930    1.7706 H   0  0  0  0  0  0  0  0  0  0  0  0
   -3.4880   -2.6500    0.1286 H   0  0  0  0  0  0  0  0  0  0  0  0
   -1.6860   -2.0850    1.1196 C   0  0  0  0  0  0  0  0  0  0  0  0
   -0.7540   -2.7700    1.5226 O   0  0  0  0  0  0  0  0  0  0  0  0
   -1.5320   -0.8490    0.6496 N   0  0  0  0  0  0  0  0  0  0  0  0
   -2.3500   -0.3360    0.3566 H   0  0  0  0  0  0  0  0  0  0  0  0
   -0.2470   -0.1410    0.5576 C   0  0  1  0  0  0  0  0  0  0  0  0
    0.4239   -0.7541   -0.0450 H   0  0  0  0  0  0  0  0  0  0  0  0
   -0.4317    1.2160   -0.1683 C   0  0  1  0  0  0  0  0  0  0  0  0
    0.0270    1.1183   -1.1542 H   0  0  0  0  0  0  0  0  0  0  0  0
   -1.9155    1.5755   -0.3752 C   0  0  0  0  0  0  0  0  0  0  0  0
   -2.4034    1.7588    0.5838 H   0  0  0  0  0  0  0  0  0  0  0  0
   -2.0060    2.4653   -0.9962 H   0  0  0  0  0  0  0  0  0  0  0  0
   -2.4330    0.7610   -0.8831 H   0  0  0  0  0  0  0  0  0  0  0  0
    0.3121    2.3479    0.5753 C   0  0  0  0  0  0  0  0  0  0  0  0
    1.2003    2.6411    0.0140 H   0  0  0  0  0  0  0  0  0  0  0  0
   -0.3476    3.2126    0.6476 H   0  0  0  0  0  0  0  0  0  0  0  0
    0.7356    1.9748    2.0025 C   0  0  0  0  0  0  0  0  0  0  0  0
    1.4819    1.1808    1.9845 H   0  0  0  0  0  0  0  0  0  0  0  0
    1.1706    2.8485    2.4884 H   0  0  0  0  0  0  0  0  0  0  0  0
   -0.1323    1.6463    2.5753 H   0  0  0  0  0  0  0  0  0  0  0  0
    0.3833   -0.0008    1.9525 C   0  0  0  0  0  0  0  0  0  0  0  0
    1.5803   -0.2304    2.1189 O   0  0  0  0  0  0  0  0  0  0  0  0
   -0.4170    0.3858    2.9541 N   0  0  0  0  0  0  0  0  0  0  0  0
   -1.3850    0.5669    2.7398 H   0  0  0  0  0  0  0  0  0  0  0  0
    0.0265    0.5600    4.3358 C   0  0  0  0  0  0  0  0  0  0  0  0
    0.8964    1.2200    4.3632 H   0  0  0  0  0  0  0  0  0  0  0  0
   -0.7726    0.9946    4.9382 H   0  0  0  0  0  0  0  0  0  0  0  0
    0.3119   -0.4069    4.7547 H   0  0  0  0  0  0  0  0  0  0  0  0
  5  6  2  0  0  0  0
  5  7  1  0  0  0  0
  2  3  1  0  0  0  0
  2  4  1  0  0  0  0
  2  5  1  0  0  0  0
  1  2  1  0  0  0  0
 24 25  2  0  0  0  0
 24 26  1  0  0  0  0
 20 21  1  0  0  0  0
 20 22  1  0  0  0  0
 20 23  1  0  0  0  0
 17 18  1  0  0  0  0
 17 19  1  0  0  0  0
 17 20  1  0  0  0  0
 13 14  1  0  0  0  0
 13 15  1  0  0  0  0
 13 16  1  0  0  0  0
 11 12  1  0  0  0  0
 11 13  1  0  0  0  0
 11 17  1  0  0  0  0
  9 10  1  0  0  0  0
  9 11  1  0  0  0  0
  9 24  1  0  0  0  0
  7  8  1  0  0  0  0
  7  9  1  0  0  0  0
 28 29  1  0  0  0  0
 28 30  1  0  0  0  0
 28 31  1  0  0  0  0
 26 27  1  0  0  0  0
 26 28  1  0  0  0  0
M  END
$$$$
default_name
  -OEChem-02102213163D

 31 30  0     1  0  0  0  0  0999 V2000
   -3.0760   -3.6390    1.5496 H   0  0  0  0  0  0  0  0  0  0  0  0
   -3.0940   -2.6290    1.1426 C   0  0  0  0  0  0  0  0  0  0  0  0
   -3.7160   -1.9930    1.7706 H   0  0  0  0  0  0  0  0  0  0  0  0
   -3.4880   -2.6500    0.1286 H   0  0  0  0  0  0  0  0  0  0  0  0
   -1.6860   -2.0850    1.1196 C   0  0  0  0  0  0  0  0  0  0  0  0
   -0.7540   -2.7700    1.5226 O   0  0  0  0  0  0  0  0  0  0  0  0
   -1.5320   -0.8490    0.6496 N   0  0  0  0  0  0  0  0  0  0  0  0
   -2.3500   -0.3360    0.3566 H   0  0  0  0  0  0  0  0  0  0  0  0
   -0.2470   -0.1410    0.5576 C   0  0  1  0  0  0  0  0  0  0  0  0
    0.4239   -0.7541   -0.0450 H   0  0  0  0  0  0  0  0  0  0  0  0
   -0.4317    1.2160   -0.1683 C   0  0  1  0  0  0  0  0  0  0  0  0
    0.0270    1.1183   -1.1542 H   0  0  0  0  0  0  0  0  0  0  0  0
   -1.9155    1.5755   -0.3752 C   0  0  0  0  0  0  0  0  0  0  0  0
   -2.4034    1.7588    0.5838 H   0  0  0  0  0  0  0  0  0  0  0  0
   -2.0060    2.4653   -0.9962 H   0  0  0  0  0  0  0  0  0  0  0  0
   -2.4330    0.7610   -0.8831 H   0  0  0  0  0  0  0  0  0  0  0  0
    0.3121    2.3479    0.5753 C   0  0  0  0  0  0  0  0  0  0  0  0
    1.0332    2.8209   -0.0926 H   0  0  0  0  0  0  0  0  0  0  0  0
   -0.4134    3.1007    0.8837 H   0  0  0  0  0  0  0  0  0  0  0  0
    1.0484    1.8779    1.8372 C   0  0  0  0  0  0  0  0  0  0  0  0
    1.8610    1.2004    1.5756 H   0  0  0  0  0  0  0  0  0  0  0  0
    1.4696    2.7425    2.3507 H   0  0  0  0  0  0  0  0  0  0  0  0
    0.3533    1.3715    2.5078 H   0  0  0  0  0  0  0  0  0  0  0  0
    0.3833   -0.0008    1.9525 C   0  0  0  0  0  0  0  0  0  0  0  0
    1.5803   -0.2304    2.1189 O   0  0  0  0  0  0  0  0  0  0  0  0
   -0.4170    0.3858    2.9541 N   0  0  0  0  0  0  0  0  0  0  0  0
   -1.3850    0.5669    2.7398 H   0  0  0  0  0  0  0  0  0  0  0  0
    0.0265    0.5600    4.3358 C   0  0  0  0  0  0  0  0  0  0  0  0
    0.8964    1.2200    4.3632 H   0  0  0  0  0  0  0  0  0  0  0  0
   -0.7726    0.9946    4.9382 H   0  0  0  0  0  0  0  0  0  0  0  0
    0.3119   -0.4069    4.7547 H   0  0  0  0  0  0  0  0  0  0  0  0
  5  6  2  0  0  0  0
  5  7  1  0  0  0  0
  2  3  1  0  0  0  0
  2  4  1  0  0  0  0
  2  5  1  0  0  0  0
  1  2  1  0  0  0  0
 24 25  2  0  0  0  0
 24 26  1  0  0  0  0
 20 21  1  0  0  0  0
 20 22  1  0  0  0  0
 20 23  1  0  0  0  0
 17 18  1  0  0  0  0
 17 19  1  0  0  0  0
 17 20  1  0  0  0  0
 13 14  1  0  0  0  0
 13 15  1  0  0  0  0
 13 16  1  0  0  0  0
 11 12  1  0  0  0  0
 11 13  1  0  0  0  0
 11 17  1  0  0  0  0
  9 10  1  0  0  0  0
  9 11  1  0  0  0  0
  9 24  1  0  0  0  0
  7  8  1  0  0  0  0
  7  9  1  0  0  0  0
 28 29  1  0  0  0  0
 28 30  1  0  0  0  0
 28 31  1  0  0  0  0
 26 27  1  0  0  0  0
 26 28  1  0  0  0  0
M  END
$$$$
default_name
  -OEChem-02102213163D

 31 30  0     1  0  0  0  0  0999 V2000
   -3.0760   -3.6390    1.5496 H   0  0  0  0  0  0  0  0  0  0  0  0
   -3.0940   -2.6290    1.1426 C   0  0  0  0  0  0  0  0  0  0  0  0
   -3.7160   -1.9930    1.7706 H   0  0  0  0  0  0  0  0  0  0  0  0
   -3.4880   -2.6500    0.1286 H   0  0  0  0  0  0  0  0  0  0  0  0
   -1.6860   -2.0850    1.1196 C   0  0  0  0  0  0  0  0  0  0  0  0
   -0.7540   -2.7700    1.5226 O   0  0  0  0  0  0  0  0  0  0  0  0
   -1.5320   -0.8490    0.6496 N   0  0  0  0  0  0  0  0  0  0  0  0
   -2.3500   -0.3360    0.3566 H   0  0  0  0  0  0  0  0  0  0  0  0
   -0.2470   -0.1410    0.5576 C   0  0  1  0  0  0  0  0  0  0  0  0
    0.4239   -0.7541   -0.0450 H   0  0  0  0  0  0  0  0  0  0  0  0
   -0.4317    1.2160   -0.1683 C   0  0  1  0  0  0  0  0  0  0  0  0
    0.0270    1.1183   -1.1542 H   0  0  0  0  0  0  0  0  0  0  0  0
   -1.9155    1.5755   -0.3752 C   0  0  0  0  0  0  0  0  0  0  0  0
   -2.4034    1.7588    0.5838 H   0  0  0  0  0  0  0  0  0  0  0  0
   -2.0060    2.4653   -0.9962 H   0  0  0  0  0  0  0  0  0  0  0  0
   -2.4330    0.7610   -0.8831 H   0  0  0  0  0  0  0  0  0  0  0  0
    0.3121    2.3479    0.5753 C   0  0  0  0  0  0  0  0  0  0  0  0
    0.8292    2.9871   -0.1415 H   0  0  0  0  0  0  0  0  0  0  0  0
   -0.4182    2.9550    1.1103 H   0  0  0  0  0  0  0  0  0  0  0  0
    1.3312    1.8438    1.6061 C   0  0  0  0  0  0  0  0  0  0  0  0
    2.1471    1.3175    1.1112 H   0  0  0  0  0  0  0  0  0  0  0  0
    1.7455    2.6945    2.1477 H   0  0  0  0  0  0  0  0  0  0  0  0
    0.8438    1.1750    2.3164 H   0  0  0  0  0  0  0  0  0  0  0  0
    0.3833   -0.0008    1.9525 C   0  0  0  0  0  0  0  0  0  0  0  0
    1.5803   -0.2304    2.1189 O   0  0  0  0  0  0  0  0  0  0  0  0
   -0.4170    0.3858    2.9541 N   0  0  0  0  0  0  0  0  0  0  0  0
   -1.3850    0.5669    2.7398 H   0  0  0  0  0  0  0  0  0  0  0  0
    0.0265    0.5600    4.3358 C   0  0  0  0  0  0  0  0  0  0  0  0
    0.8964    1.2200    4.3632 H   0  0  0  0  0  0  0  0  0  0  0  0
   -0.7726    0.9946    4.9382 H   0  0  0  0  0  0  0  0  0  0  0  0
    0.3119   -0.4069    4.7547 H   0  0  0  0  0  0  0  0  0  0  0  0
  5  6  2  0  0  0  0
  5  7  1  0  0  0  0
  2  3  1  0  0  0  0
  2  4  1  0  0  0  0
  2  5  1  0  0  0  0
  1  2  1  0  0  0  0
 24 25  2  0  0  0  0
 24 26  1  0  0  0  0
 20 21  1  0  0  0  0
 20 22  1  0  0  0  0
 20 23  1  0  0  0  0
 17 18  1  0  0  0  0
 17 19  1  0  0  0  0
 17 20  1  0  0  0  0
 13 14  1  0  0  0  0
 13 15  1  0  0  0  0
 13 16  1  0  0  0  0
 11 12  1  0  0  0  0
 11 13  1  0  0  0  0
 11 17  1  0  0  0  0
  9 10  1  0  0  0  0
  9 11  1  0  0  0  0
  9 24  1  0  0  0  0
  7  8  1  0  0  0  0
  7  9  1  0  0  0  0
 28 29  1  0  0  0  0
 28 30  1  0  0  0  0
 28 31  1  0  0  0  0
 26 27  1  0  0  0  0
 26 28  1  0  0  0  0
M  END
$$$$
default_name
  -OEChem-02102213163D

 31 30  0     1  0  0  0  0  0999 V2000
   -3.0760   -3.6390    1.5496 H   0  0  0  0  0  0  0  0  0  0  0  0
   -3.0940   -2.6290    1.1426 C   0  0  0  0  0  0  0  0  0  0  0  0
   -3.7160   -1.9930    1.7706 H   0  0  0  0  0  0  0  0  0  0  0  0
   -3.4880   -2.6500    0.1286 H   0  0  0  0  0  0  0  0  0  0  0  0
   -1.6860   -2.0850    1.1196 C   0  0  0  0  0  0  0  0  0  0  0  0
   -0.7540   -2.7700    1.5226 O   0  0  0  0  0  0  0  0  0  0  0  0
   -1.5320   -0.8490    0.6496 N   0  0  0  0  0  0  0  0  0  0  0  0
   -2.3500   -0.3360    0.3566 H   0  0  0  0  0  0  0  0  0  0  0  0
   -0.2470   -0.1410    0.5576 C   0  0  1  0  0  0  0  0  0  0  0  0
    0.4239   -0.7541   -0.0450 H   0  0  0  0  0  0  0  0  0  0  0  0
   -0.4317    1.2160   -0.1683 C   0  0  1  0  0  0  0  0  0  0  0  0
    0.0270    1.1183   -1.1542 H   0  0  0  0  0  0  0  0  0  0  0  0
   -1.9155    1.5755   -0.3752 C   0  0  0  0  0  0  0  0  0  0  0  0
   -2.4034    1.7588    0.5838 H   0  0  0  0  0  0  0  0  0  0  0  0
   -2.0060    2.4653   -0.9962 H   0  0  0  0  0  0  0  0  0  0  0  0
   -2.4330    0.7610   -0.8831 H   0  0  0  0  0  0  0  0  0  0  0  0
    0.3121    2.3479    0.5753 C   0  0  0  0  0  0  0  0  0  0  0  0
    0.6021    3.1284   -0.1294 H   0  0  0  0  0  0  0  0  0  0  0  0
   -0.3618    2.7855    1.3119 H   0  0  0  0  0  0  0  0  0  0  0  0
    1.5648    1.8749    1.3251 C   0  0  0  0  0  0  0  0  0  0  0  0
    2.3209    1.5240    0.6229 H   0  0  0  0  0  0  0  0  0  0  0  0
    1.9795    2.7078    1.8934 H   0  0  0  0  0  0  0  0  0  0  0  0
    1.3057    1.0702    2.0140 H   0  0  0  0  0  0  0  0  0  0  0  0
    0.3833   -0.0008    1.9525 C   0  0  0  0  0  0  0  0  0  0  0  0
    1.5803   -0.2304    2.1189 O   0  0  0  0  0  0  0  0  0  0  0  0
   -0.4170    0.3858    2.9541 N   0  0  0  0  0  0  0  0  0  0  0  0
   -1.3850    0.5669    2.7398 H   0  0  0  0  0  0  0  0  0  0  0  0
    0.0265    0.5600    4.3358 C   0  0  0  0  0  0  0  0  0  0  0  0
    0.8964    1.2200    4.3632 H   0  0  0  0  0  0  0  0  0  0  0  0
   -0.7726    0.9946    4.9382 H   0  0  0  0  0  0  0  0  0  0  0  0
    0.3119   -0.4069    4.7547 H   0  0  0  0  0  0  0  0  0  0  0  0
  5  6  2  0  0  0  0
  5  7  1  0  0  0  0
  2  3  1  0  0  0  0
  2  4  1  0  0  0  0
  2  5  1  0  0  0  0
  1  2  1  0  0  0  0
 24 25  2  0  0  0  0
 24 26  1  0  0  0  0
 20 21  1  0  0  0  0
 20 22  1  0  0  0  0
 20 23  1  0  0  0  0
 17 18  1  0  0  0  0
 17 19  1  0  0  0  0
 17 20  1  0  0  0  0
 13 14  1  0  0  0  0
 13 15  1  0  0  0  0
 13 16  1  0  0  0  0
 11 12  1  0  0  0  0
 11 13  1  0  0  0  0
 11 17  1  0  0  0  0
  9 10  1  0  0  0  0
  9 11  1  0  0  0  0
  9 24  1  0  0  0  0
  7  8  1  0  0  0  0
  7  9  1  0  0  0  0
 28 29  1  0  0  0  0
 28 30  1  0  0  0  0
 28 31  1  0  0  0  0
 26 27  1  0  0  0  0
 26 28  1  0  0  0  0
M  END
$$$$
default_name
  -OEChem-02102213163D

 31 30  0     1  0  0  0  0  0999 V2000
   -3.0760   -3.6390    1.5496 H   0  0  0  0  0  0  0  0  0  0  0  0
   -3.0940   -2.6290    1.1426 C   0  0  0  0  0  0  0  0  0  0  0  0
   -3.7160   -1.9930    1.7706 H   0  0  0  0  0  0  0  0  0  0  0  0
   -3.4880   -2.6500    0.1286 H   0  0  0  0  0  0  0  0  0  0  0  0
   -1.6860   -2.0850    1.1196 C   0  0  0  0  0  0  0  0  0  0  0  0
   -0.7540   -2.7700    1.5226 O   0  0  0  0  0  0  0  0  0  0  0  0
   -1.5320   -0.8490    0.6496 N   0  0  0  0  0  0  0  0  0  0  0  0
   -2.3500   -0.3360    0.3566 H   0  0  0  0  0  0  0  0  0  0  0  0
   -0.2470   -0.1410    0.5576 C   0  0  1  0  0  0  0  0  0  0  0  0
    0.4239   -0.7541   -0.0450 H   0  0  0  0  0  0  0  0  0  0  0  0
   -0.4317    1.2160   -0.1683 C   0  0  1  0  0  0  0  0  0  0  0  0
    0.0270    1.1183   -1.1542 H   0  0  0  0  0  0  0  0  0  0  0  0
   -1.9155    1.5755   -0.3752 C   0  0  0  0  0  0  0  0  0  0  0  0
   -2.4034    1.7588    0.5838 H   0  0  0  0  0  0  0  0  0  0  0  0
   -2.0060    2.4653   -0.9962 H   0  0  0  0  0  0  0  0  0  0  0  0
   -2.4330    0.7610   -0.8831 H   0  0  0  0  0  0  0  0  0  0  0  0
    0.3121    2.3479    0.5753 C   0  0  0  0  0  0  0  0  0  0  0  0
    0.3675    3.2350   -0.0571 H   0  0  0  0  0  0  0  0  0  0  0  0
   -0.2479    2.6036    1.4748 H   0  0  0  0  0  0  0  0  0  0  0  0
    1.7334    1.9691    1.0132 C   0  0  0  0  0  0  0  0  0  0  0  0
    2.3704    1.8060    0.1441 H   0  0  0  0  0  0  0  0  0  0  0  0
    2.1557    2.7815    1.6051 H   0  0  0  0  0  0  0  0  0  0  0  0
    1.7076    1.0641    1.6212 H   0  0  0  0  0  0  0  0  0  0  0  0
    0.3833   -0.0008    1.9525 C   0  0  0  0  0  0  0  0  0  0  0  0
    1.5803   -0.2304    2.1189 O   0  0  0  0  0  0  0  0  0  0  0  0
   -0.4170    0.3858    2.9541 N   0  0  0  0  0  0  0  0  0  0  0  0
   -1.3850    0.5669    2.7398 H   0  0  0  0  0  0  0  0  0  0  0  0
    0.0265    0.5600    4.3358 C   0  0  0  0  0  0  0  0  0  0  0  0
    0.8964    1.2200    4.3632 H   0  0  0  0  0  0  0  0  0  0  0  0
   -0.7726    0.9946    4.9382 H   0  0  0  0  0  0  0  0  0  0  0  0
    0.3119   -0.4069    4.7547 H   0  0  0  0  0  0  0  0  0  0  0  0
  5  6  2  0  0  0  0
  5  7  1  0  0  0  0
  2  3  1  0  0  0  0
  2  4  1  0  0  0  0
  2  5  1  0  0  0  0
  1  2  1  0  0  0  0
 24 25  2  0  0  0  0
 24 26  1  0  0  0  0
 20 21  1  0  0  0  0
 20 22  1  0  0  0  0
 20 23  1  0  0  0  0
 17 18  1  0  0  0  0
 17 19  1  0  0  0  0
 17 20  1  0  0  0  0
 13 14  1  0  0  0  0
 13 15  1  0  0  0  0
 13 16  1  0  0  0  0
 11 12  1  0  0  0  0
 11 13  1  0  0  0  0
 11 17  1  0  0  0  0
  9 10  1  0  0  0  0
  9 11  1  0  0  0  0
  9 24  1  0  0  0  0
  7  8  1  0  0  0  0
  7  9  1  0  0  0  0
 28 29  1  0  0  0  0
 28 30  1  0  0  0  0
 28 31  1  0  0  0  0
 26 27  1  0  0  0  0
 26 28  1  0  0  0  0
M  END
$$$$
default_name
  -OEChem-02102213163D

 31 30  0     1  0  0  0  0  0999 V2000
   -3.0760   -3.6390    1.5496 H   0  0  0  0  0  0  0  0  0  0  0  0
   -3.0940   -2.6290    1.1426 C   0  0  0  0  0  0  0  0  0  0  0  0
   -3.7160   -1.9930    1.7706 H   0  0  0  0  0  0  0  0  0  0  0  0
   -3.4880   -2.6500    0.1286 H   0  0  0  0  0  0  0  0  0  0  0  0
   -1.6860   -2.0850    1.1196 C   0  0  0  0  0  0  0  0  0  0  0  0
   -0.7540   -2.7700    1.5226 O   0  0  0  0  0  0  0  0  0  0  0  0
   -1.5320   -0.8490    0.6496 N   0  0  0  0  0  0  0  0  0  0  0  0
   -2.3500   -0.3360    0.3566 H   0  0  0  0  0  0  0  0  0  0  0  0
   -0.2470   -0.1410    0.5576 C   0  0  1  0  0  0  0  0  0  0  0  0
    0.4239   -0.7541   -0.0450 H   0  0  0  0  0  0  0  0  0  0  0  0
   -0.4317    1.2160   -0.1683 C   0  0  1  0  0  0  0  0  0  0  0  0
    0.0270    1.1183   -1.1542 H   0  0  0  0  0  0  0  0  0  0  0  0
   -1.9155    1.5755   -0.3752 C   0  0  0  0  0  0  0  0  0  0  0  0
   -2.4034    1.7588    0.5838 H   0  0  0  0  0  0  0  0  0  0  0  0
   -2.0060    2.4653   -0.9962 H   0  0  0  0  0  0  0  0  0  0  0  0
   -2.4330    0.7610   -0.8831 H   0  0  0  0  0  0  0  0  0  0  0  0
    0.3121    2.3479    0.5753 C   0  0  0  0  0  0  0  0  0  0  0  0
    0.1413    3.2997    0.0706 H   0  0  0  0  0  0  0  0  0  0  0  0
   -0.0844    2.4218    1.5879 H   0  0  0  0  0  0  0  0  0  0  0  0
    1.8253    2.1199    0.6917 C   0  0  0  0  0  0  0  0  0  0  0  0
    2.2924    2.1443   -0.2926 H   0  0  0  0  0  0  0  0  0  0  0  0
    2.2620    2.9105    1.3023 H   0  0  0  0  0  0  0  0  0  0  0  0
    2.0222    1.1573    1.1649 H   0  0  0  0  0  0  0  0  0  0  0  0
    0.3833   -0.0008    1.9525 C   0  0  0  0  0  0  0  0  0  0  0  0
    1.5803   -0.2304    2.1189 O   0  0  0  0  0  0  0  0  0  0  0  0
   -0.4170    0.3858    2.9541 N   0  0  0  0  0  0  0  0  0  0  0  0
   -1.3850    0.5669    2.7398 H   0  0  0  0  0  0  0  0  0  0  0  0
    0.0265    0.5600    4.3358 C   0  0  0  0  0  0  0  0  0  0  0  0
    0.8964    1.2200    4.3632 H   0  0  0  0  0  0  0  0  0  0  0  0
   -0.7726    0.9946    4.9382 H   0  0  0  0  0  0  0  0  0  0  0  0
    0.3119   -0.4069    4.7547 H   0  0  0  0  0  0  0  0  0  0  0  0
  5  6  2  0  0  0  0
  5  7  1  0  0  0  0
  2  3  1  0  0  0  0
  2  4  1  0  0  0  0
  2  5  1  0  0  0  0
  1  2  1  0  0  0  0
 24 25  2  0  0  0  0
 24 26  1  0  0  0  0
 20 21  1  0  0  0  0
 20 22  1  0  0  0  0
 20 23  1  0  0  0  0
 17 18  1  0  0  0  0
 17 19  1  0  0  0  0
 17 20  1  0  0  0  0
 13 14  1  0  0  0  0
 13 15  1  0  0  0  0
 13 16  1  0  0  0  0
 11 12  1  0  0  0  0
 11 13  1  0  0  0  0
 11 17  1  0  0  0  0
  9 10  1  0  0  0  0
  9 11  1  0  0  0  0
  9 24  1  0  0  0  0
  7  8  1  0  0  0  0
  7  9  1  0  0  0  0
 28 29  1  0  0  0  0
 28 30  1  0  0  0  0
 28 31  1  0  0  0  0
 26 27  1  0  0  0  0
 26 28  1  0  0  0  0
M  END
$$$$
default_name
  -OEChem-02102213163D

 31 30  0     1  0  0  0  0  0999 V2000
   -3.0760   -3.6390    1.5496 H   0  0  0  0  0  0  0  0  0  0  0  0
   -3.0940   -2.6290    1.1426 C   0  0  0  0  0  0  0  0  0  0  0  0
   -3.7160   -1.9930    1.7706 H   0  0  0  0  0  0  0  0  0  0  0  0
   -3.4880   -2.6500    0.1286 H   0  0  0  0  0  0  0  0  0  0  0  0
   -1.6860   -2.0850    1.1196 C   0  0  0  0  0  0  0  0  0  0  0  0
   -0.7540   -2.7700    1.5226 O   0  0  0  0  0  0  0  0  0  0  0  0
   -1.5320   -0.8490    0.6496 N   0  0  0  0  0  0  0  0  0  0  0  0
   -2.3500   -0.3360    0.3566 H   0  0  0  0  0  0  0  0  0  0  0  0
   -0.2470   -0.1410    0.5576 C   0  0  1  0  0  0  0  0  0  0  0  0
    0.4239   -0.7541   -0.0450 H   0  0  0  0  0  0  0  0  0  0  0  0
   -0.4317    1.2160   -0.1683 C   0  0  1  0  0  0  0  0  0  0  0  0
    0.0270    1.1183   -1.1542 H   0  0  0  0  0  0  0  0  0  0  0  0
   -1.9155    1.5755   -0.3752 C   0  0  0  0  0  0  0  0  0  0  0  0
   -2.4034    1.7588    0.5838 H   0  0  0  0  0  0  0  0  0  0  0  0
   -2.0060    2.4653   -0.9962 H   0  0  0  0  0  0  0  0  0  0  0  0
   -2.4330    0.7610   -0.8831 H   0  0  0  0  0  0  0  0  0  0  0  0
    0.3121    2.3479    0.5753 C   0  0  0  0  0  0  0  0  0  0  0  0
   -0.0611    3.3182    0.2449 H   0  0  0  0  0  0  0  0  0  0  0  0
    0.1177    2.2525    1.6436 H   0  0  0  0  0  0  0  0  0  0  0  0
    1.8343    2.3171    0.3826 C   0  0  0  0  0  0  0  0  0  0  0  0
    2.0920    2.5157   -0.6576 H   0  0  0  0  0  0  0  0  0  0  0  0
    2.2912    3.0861    1.0058 H   0  0  0  0  0  0  0  0  0  0  0  0
    2.2278    1.3433    0.6760 H   0  0  0  0  0  0  0  0  0  0  0  0
    0.3833   -0.0008    1.9525 C   0  0  0  0  0  0  0  0  0  0  0  0
    1.5803   -0.2304    2.1189 O   0  0  0  0  0  0  0  0  0  0  0  0
   -0.4170    0.3858    2.9541 N   0  0  0  0  0  0  0  0  0  0  0  0
   -1.3850    0.5669    2.7398 H   0  0  0  0  0  0  0  0  0  0  0  0
    0.0265    0.5600    4.3358 C   0  0  0  0  0  0  0  0  0  0  0  0
    0.8964    1.2200    4.3632 H   0  0  0  0  0  0  0  0  0  0  0  0
   -0.7726    0.9946    4.9382 H   0  0  0  0  0  0  0  0  0  0  0  0
    0.3119   -0.4069    4.7547 H   0  0  0  0  0  0  0  0  0  0  0  0
  5  6  2  0  0  0  0
  5  7  1  0  0  0  0
  2  3  1  0  0  0  0
  2  4  1  0  0  0  0
  2  5  1  0  0  0  0
  1  2  1  0  0  0  0
 24 25  2  0  0  0  0
 24 26  1  0  0  0  0
 20 21  1  0  0  0  0
 20 22  1  0  0  0  0
 20 23  1  0  0  0  0
 17 18  1  0  0  0  0
 17 19  1  0  0  0  0
 17 20  1  0  0  0  0
 13 14  1  0  0  0  0
 13 15  1  0  0  0  0
 13 16  1  0  0  0  0
 11 12  1  0  0  0  0
 11 13  1  0  0  0  0
 11 17  1  0  0  0  0
  9 10  1  0  0  0  0
  9 11  1  0  0  0  0
  9 24  1  0  0  0  0
  7  8  1  0  0  0  0
  7  9  1  0  0  0  0
 28 29  1  0  0  0  0
 28 30  1  0  0  0  0
 28 31  1  0  0  0  0
 26 27  1  0  0  0  0
 26 28  1  0  0  0  0
M  END
$$$$
default_name
  -OEChem-02102213163D

 31 30  0     1  0  0  0  0  0999 V2000
   -3.0760   -3.6390    1.5496 H   0  0  0  0  0  0  0  0  0  0  0  0
   -3.0940   -2.6290    1.1426 C   0  0  0  0  0  0  0  0  0  0  0  0
   -3.7160   -1.9930    1.7706 H   0  0  0  0  0  0  0  0  0  0  0  0
   -3.4880   -2.6500    0.1286 H   0  0  0  0  0  0  0  0  0  0  0  0
   -1.6860   -2.0850    1.1196 C   0  0  0  0  0  0  0  0  0  0  0  0
   -0.7540   -2.7700    1.5226 O   0  0  0  0  0  0  0  0  0  0  0  0
   -1.5320   -0.8490    0.6496 N   0  0  0  0  0  0  0  0  0  0  0  0
   -2.3500   -0.3360    0.3566 H   0  0  0  0  0  0  0  0  0  0  0  0
   -0.2470   -0.1410    0.5576 C   0  0  1  0  0  0  0  0  0  0  0  0
    0.4239   -0.7541   -0.0450 H   0  0  0  0  0  0  0  0  0  0  0  0
   -0.4317    1.2160   -0.1683 C   0  0  1  0  0  0  0  0  0  0  0  0
    0.0270    1.1183   -1.1542 H   0  0  0  0  0  0  0  0  0  0  0  0
   -1.9155    1.5755   -0.3752 C   0  0  0  0  0  0  0  0  0  0  0  0
   -2.4034    1.7588    0.5838 H   0  0  0  0  0  0  0  0  0  0  0  0
   -2.0060    2.4653   -0.9962 H   0  0  0  0  0  0  0  0  0  0  0  0
   -2.4330    0.7610   -0.8831 H   0  0  0  0  0  0  0  0  0  0  0  0
    0.3121    2.3479    0.5753 C   0  0  0  0  0  0  0  0  0  0  0  0
   -0.2258    3.2891    0.4538 H   0  0  0  0  0  0  0  0  0  0  0  0
    0.3445    2.1072    1.6379 H   0  0  0  0  0  0  0  0  0  0  0  0
    1.7599    2.5472    0.1068 C   0  0  0  0  0  0  0  0  0  0  0  0
    1.7831    2.8949   -0.9258 H   0  0  0  0  0  0  0  0  0  0  0  0
    2.2414    3.2963    0.7357 H   0  0  0  0  0  0  0  0  0  0  0  0
    2.3106    1.6094    0.1881 H   0  0  0  0  0  0  0  0  0  0  0  0
    0.3833   -0.0008    1.9525 C   0  0  0  0  0  0  0  0  0  0  0  0
    1.5803   -0.2304    2.1189 O   0  0  0  0  0  0  0  0  0  0  0  0
   -0.4170    0.3858    2.9541 N   0  0  0  0  0  0  0  0  0  0  0  0
   -1.3850    0.5669    2.7398 H   0  0  0  0  0  0  0  0  0  0  0  0
    0.0265    0.5600    4.3358 C   0  0  0  0  0  0  0  0  0  0  0  0
    0.8964    1.2200    4.3632 H   0  0  0  0  0  0  0  0  0  0  0  0
   -0.7726    0.9946    4.9382 H   0  0  0  0  0  0  0  0  0  0  0  0
    0.3119   -0.4069    4.7547 H   0  0  0  0  0  0  0  0  0  0  0  0
  5  6  2  0  0  0  0
  5  7  1  0  0  0  0
  2  3  1  0  0  0  0
  2  4  1  0  0  0  0
  2  5  1  0  0  0  0
  1  2  1  0  0  0  0
 24 25  2  0  0  0  0
 24 26  1  0  0  0  0
 20 21  1  0  0  0  0
 20 22  1  0  0  0  0
 20 23  1  0  0  0  0
 17 18  1  0  0  0  0
 17 19  1  0  0  0  0
 17 20  1  0  0  0  0
 13 14  1  0  0  0  0
 13 15  1  0  0  0  0
 13 16  1  0  0  0  0
 11 12  1  0  0  0  0
 11 13  1  0  0  0  0
 11 17  1  0  0  0  0
  9 10  1  0  0  0  0
  9 11  1  0  0  0  0
  9 24  1  0  0  0  0
  7  8  1  0  0  0  0
  7  9  1  0  0  0  0
 28 29  1  0  0  0  0
 28 30  1  0  0  0  0
 28 31  1  0  0  0  0
 26 27  1  0  0  0  0
 26 28  1  0  0  0  0
M  END
$$$$
default_name
  -OEChem-02102213163D

 31 30  0     1  0  0  0  0  0999 V2000
   -3.0760   -3.6390    1.5496 H   0  0  0  0  0  0  0  0  0  0  0  0
   -3.0940   -2.6290    1.1426 C   0  0  0  0  0  0  0  0  0  0  0  0
   -3.7160   -1.9930    1.7706 H   0  0  0  0  0  0  0  0  0  0  0  0
   -3.4880   -2.6500    0.1286 H   0  0  0  0  0  0  0  0  0  0  0  0
   -1.6860   -2.0850    1.1196 C   0  0  0  0  0  0  0  0  0  0  0  0
   -0.7540   -2.7700    1.5226 O   0  0  0  0  0  0  0  0  0  0  0  0
   -1.5320   -0.8490    0.6496 N   0  0  0  0  0  0  0  0  0  0  0  0
   -2.3500   -0.3360    0.3566 H   0  0  0  0  0  0  0  0  0  0  0  0
   -0.2470   -0.1410    0.5576 C   0  0  1  0  0  0  0  0  0  0  0  0
    0.4239   -0.7541   -0.0450 H   0  0  0  0  0  0  0  0  0  0  0  0
   -0.4317    1.2160   -0.1683 C   0  0  1  0  0  0  0  0  0  0  0  0
    0.0270    1.1183   -1.1542 H   0  0  0  0  0  0  0  0  0  0  0  0
   -1.9155    1.5755   -0.3752 C   0  0  0  0  0  0  0  0  0  0  0  0
   -2.4034    1.7588    0.5838 H   0  0  0  0  0  0  0  0  0  0  0  0
   -2.0060    2.4653   -0.9962 H   0  0  0  0  0  0  0  0  0  0  0  0
   -2.4330    0.7610   -0.8831 H   0  0  0  0  0  0  0  0  0  0  0  0
    0.3121    2.3479    0.5753 C   0  0  0  0  0  0  0  0  0  0  0  0
   -0.3416    3.2145    0.6833 H   0  0  0  0  0  0  0  0  0  0  0  0
    0.5806    1.9958    1.5713 H   0  0  0  0  0  0  0  0  0  0  0  0
    1.6070    2.7945   -0.1168 C   0  0  0  0  0  0  0  0  0  0  0  0
    1.3865    3.2561   -1.0791 H   0  0  0  0  0  0  0  0  0  0  0  0
    2.1158    3.5268    0.5105 H   0  0  0  0  0  0  0  0  0  0  0  0
    2.2650    1.9376   -0.2658 H   0  0  0  0  0  0  0  0  0  0  0  0
    0.3833   -0.0008    1.9525 C   0  0  0  0  0  0  0  0  0  0  0  0
    1.5803   -0.2304    2.1189 O   0  0  0  0  0  0  0  0  0  0  0  0
   -0.4170    0.3858    2.9541 N   0  0  0  0  0  0  0  0  0  0  0  0
   -1.3850    0.5669    2.7398 H   0  0  0  0  0  0  0  0  0  0  0  0
    0.0265    0.5600    4.3358 C   0  0  0  0  0  0  0  0  0  0  0  0
    0.8964    1.2200    4.3632 H   0  0  0  0  0  0  0  0  0  0  0  0
   -0.7726    0.9946    4.9382 H   0  0  0  0  0  0  0  0  0  0  0  0
    0.3119   -0.4069    4.7547 H   0  0  0  0  0  0  0  0  0  0  0  0
  5  6  2  0  0  0  0
  5  7  1  0  0  0  0
  2  3  1  0  0  0  0
  2  4  1  0  0  0  0
  2  5  1  0  0  0  0
  1  2  1  0  0  0  0
 24 25  2  0  0  0  0
 24 26  1  0  0  0  0
 20 21  1  0  0  0  0
 20 22  1  0  0  0  0
 20 23  1  0  0  0  0
 17 18  1  0  0  0  0
 17 19  1  0  0  0  0
 17 20  1  0  0  0  0
 13 14  1  0  0  0  0
 13 15  1  0  0  0  0
 13 16  1  0  0  0  0
 11 12  1  0  0  0  0
 11 13  1  0  0  0  0
 11 17  1  0  0  0  0
  9 10  1  0  0  0  0
  9 11  1  0  0  0  0
  9 24  1  0  0  0  0
  7  8  1  0  0  0  0
  7  9  1  0  0  0  0
 28 29  1  0  0  0  0
 28 30  1  0  0  0  0
 28 31  1  0  0  0  0
 26 27  1  0  0  0  0
 26 28  1  0  0  0  0
M  END
$$$$
default_name
  -OEChem-02102213163D

 31 30  0     1  0  0  0  0  0999 V2000
   -3.0760   -3.6390    1.5496 H   0  0  0  0  0  0  0  0  0  0  0  0
   -3.0940   -2.6290    1.1426 C   0  0  0  0  0  0  0  0  0  0  0  0
   -3.7160   -1.9930    1.7706 H   0  0  0  0  0  0  0  0  0  0  0  0
   -3.4880   -2.6500    0.1286 H   0  0  0  0  0  0  0  0  0  0  0  0
   -1.6860   -2.0850    1.1196 C   0  0  0  0  0  0  0  0  0  0  0  0
   -0.7540   -2.7700    1.5226 O   0  0  0  0  0  0  0  0  0  0  0  0
   -1.5320   -0.8490    0.6496 N   0  0  0  0  0  0  0  0  0  0  0  0
   -2.3500   -0.3360    0.3566 H   0  0  0  0  0  0  0  0  0  0  0  0
   -0.2470   -0.1410    0.5576 C   0  0  1  0  0  0  0  0  0  0  0  0
    0.4239   -0.7541   -0.0450 H   0  0  0  0  0  0  0  0  0  0  0  0
   -0.4317    1.2160   -0.1683 C   0  0  1  0  0  0  0  0  0  0  0  0
    0.0270    1.1183   -1.1542 H   0  0  0  0  0  0  0  0  0  0  0  0
   -1.9155    1.5755   -0.3752 C   0  0  0  0  0  0  0  0  0  0  0  0
   -2.4034    1.7588    0.5838 H   0  0  0  0  0  0  0  0  0  0  0  0
   -2.0060    2.4653   -0.9962 H   0  0  0  0  0  0  0  0  0  0  0  0
   -2.4330    0.7610   -0.8831 H   0  0  0  0  0  0  0  0  0  0  0  0
    0.3121    2.3479    0.5753 C   0  0  0  0  0  0  0  0  0  0  0  0
   -0.4007    3.0994    0.9176 H   0  0  0  0  0  0  0  0  0  0  0  0
    0.8099    1.9260    1.4483 H   0  0  0  0  0  0  0  0  0  0  0  0
    1.3861    3.0422   -0.2730 C   0  0  0  0  0  0  0  0  0  0  0  0
    0.9294    3.5748   -1.1070 H   0  0  0  0  0  0  0  0  0  0  0  0
    1.9231    3.7618    0.3455 H   0  0  0  0  0  0  0  0  0  0  0  0
    2.0939    2.3055   -0.6547 H   0  0  0  0  0  0  0  0  0  0  0  0
    0.3833   -0.0008    1.9525 C   0  0  0  0  0  0  0  0  0  0  0  0
    1.5803   -0.2304    2.1189 O   0  0  0  0  0  0  0  0  0  0  0  0
   -0.4170    0.3858    2.9541 N   0  0  0  0  0  0  0  0  0  0  0  0
   -1.3850    0.5669    2.7398 H   0  0  0  0  0  0  0  0  0  0  0  0
    0.0265    0.5600    4.3358 C   0  0  0  0  0  0  0  0  0  0  0  0
    0.8964    1.2200    4.3632 H   0  0  0  0  0  0  0  0  0  0  0  0
   -0.7726    0.9946    4.9382 H   0  0  0  0  0  0  0  0  0  0  0  0
    0.3119   -0.4069    4.7547 H   0  0  0  0  0  0  0  0  0  0  0  0
  5  6  2  0  0  0  0
  5  7  1  0  0  0  0
  2  3  1  0  0  0  0
  2  4  1  0  0  0  0
  2  5  1  0  0  0  0
  1  2  1  0  0  0  0
 24 25  2  0  0  0  0
 24 26  1  0  0  0  0
 20 21  1  0  0  0  0
 20 22  1  0  0  0  0
 20 23  1  0  0  0  0
 17 18  1  0  0  0  0
 17 19  1  0  0  0  0
 17 20  1  0  0  0  0
 13 14  1  0  0  0  0
 13 15  1  0  0  0  0
 13 16  1  0  0  0  0
 11 12  1  0  0  0  0
 11 13  1  0  0  0  0
 11 17  1  0  0  0  0
  9 10  1  0  0  0  0
  9 11  1  0  0  0  0
  9 24  1  0  0  0  0
  7  8  1  0  0  0  0
  7  9  1  0  0  0  0
 28 29  1  0  0  0  0
 28 30  1  0  0  0  0
 28 31  1  0  0  0  0
 26 27  1  0  0  0  0
 26 28  1  0  0  0  0
M  END
$$$$
default_name
  -OEChem-02102213163D

 31 30  0     1  0  0  0  0  0999 V2000
   -3.0760   -3.6390    1.5496 H   0  0  0  0  0  0  0  0  0  0  0  0
   -3.0940   -2.6290    1.1426 C   0  0  0  0  0  0  0  0  0  0  0  0
   -3.7160   -1.9930    1.7706 H   0  0  0  0  0  0  0  0  0  0  0  0
   -3.4880   -2.6500    0.1286 H   0  0  0  0  0  0  0  0  0  0  0  0
   -1.6860   -2.0850    1.1196 C   0  0  0  0  0  0  0  0  0  0  0  0
   -0.7540   -2.7700    1.5226 O   0  0  0  0  0  0  0  0  0  0  0  0
   -1.5320   -0.8490    0.6496 N   0  0  0  0  0  0  0  0  0  0  0  0
   -2.3500   -0.3360    0.3566 H   0  0  0  0  0  0  0  0  0  0  0  0
   -0.2470   -0.1410    0.5576 C   0  0  1  0  0  0  0  0  0  0  0  0
    0.4239   -0.7541   -0.0450 H   0  0  0  0  0  0  0  0  0  0  0  0
   -0.4317    1.2160   -0.1683 C   0  0  1  0  0  0  0  0  0  0  0  0
    0.0270    1.1183   -1.1542 H   0  0  0  0  0  0  0  0  0  0  0  0
   -1.9155    1.5755   -0.3752 C   0  0  0  0  0  0  0  0  0  0  0  0
   -2.4034    1.7588    0.5838 H   0  0  0  0  0  0  0  0  0  0  0  0
   -2.0060    2.4653   -0.9962 H   0  0  0  0  0  0  0  0  0  0  0  0
   -2.4330    0.7610   -0.8831 H   0  0  0  0  0  0  0  0  0  0  0  0
    0.3121    2.3479    0.5753 C   0  0  0  0  0  0  0  0  0  0  0  0
   -0.3990    2.9516    1.1408 H   0  0  0  0  0  0  0  0  0  0  0  0
    1.0168    1.9023    1.2774 H   0  0  0  0  0  0  0  0  0  0  0  0
    1.1123    3.2734   -0.3511 C   0  0  0  0  0  0  0  0  0  0  0  0
    0.4429    3.8291   -1.0075 H   0  0  0  0  0  0  0  0  0  0  0  0
    1.6764    3.9854    0.2519 H   0  0  0  0  0  0  0  0  0  0  0  0
    1.8091    2.6880   -0.9521 H   0  0  0  0  0  0  0  0  0  0  0  0
    0.3833   -0.0008    1.9525 C   0  0  0  0  0  0  0  0  0  0  0  0
    1.5803   -0.2304    2.1189 O   0  0  0  0  0  0  0  0  0  0  0  0
   -0.4170    0.3858    2.9541 N   0  0  0  0  0  0  0  0  0  0  0  0
   -1.3850    0.5669    2.7398 H   0  0  0  0  0  0  0  0  0  0  0  0
    0.0265    0.5600    4.3358 C   0  0  0  0  0  0  0  0  0  0  0  0
    0.8964    1.2200    4.3632 H   0  0  0  0  0  0  0  0  0  0  0  0
   -0.7726    0.9946    4.9382 H   0  0  0  0  0  0  0  0  0  0  0  0
    0.3119   -0.4069    4.7547 H   0  0  0  0  0  0  0  0  0  0  0  0
  5  6  2  0  0  0  0
  5  7  1  0  0  0  0
  2  3  1  0  0  0  0
  2  4  1  0  0  0  0
  2  5  1  0  0  0  0
  1  2  1  0  0  0  0
 24 25  2  0  0  0  0
 24 26  1  0  0  0  0
 20 21  1  0  0  0  0
 20 22  1  0  0  0  0
 20 23  1  0  0  0  0
 17 18  1  0  0  0  0
 17 19  1  0  0  0  0
 17 20  1  0  0  0  0
 13 14  1  0  0  0  0
 13 15  1  0  0  0  0
 13 16  1  0  0  0  0
 11 12  1  0  0  0  0
 11 13  1  0  0  0  0
 11 17  1  0  0  0  0
  9 10  1  0  0  0  0
  9 11  1  0  0  0  0
  9 24  1  0  0  0  0
  7  8  1  0  0  0  0
  7  9  1  0  0  0  0
 28 29  1  0  0  0  0
 28 30  1  0  0  0  0
 28 31  1  0  0  0  0
 26 27  1  0  0  0  0
 26 28  1  0  0  0  0
M  END
$$$$
default_name
  -OEChem-02102213163D

 31 30  0     1  0  0  0  0  0999 V2000
   -3.0760   -3.6390    1.5496 H   0  0  0  0  0  0  0  0  0  0  0  0
   -3.0940   -2.6290    1.1426 C   0  0  0  0  0  0  0  0  0  0  0  0
   -3.7160   -1.9930    1.7706 H   0  0  0  0  0  0  0  0  0  0  0  0
   -3.4880   -2.6500    0.1286 H   0  0  0  0  0  0  0  0  0  0  0  0
   -1.6860   -2.0850    1.1196 C   0  0  0  0  0  0  0  0  0  0  0  0
   -0.7540   -2.7700    1.5226 O   0  0  0  0  0  0  0  0  0  0  0  0
   -1.5320   -0.8490    0.6496 N   0  0  0  0  0  0  0  0  0  0  0  0
   -2.3500   -0.3360    0.3566 H   0  0  0  0  0  0  0  0  0  0  0  0
   -0.2470   -0.1410    0.5576 C   0  0  1  0  0  0  0  0  0  0  0  0
    0.4239   -0.7541   -0.0450 H   0  0  0  0  0  0  0  0  0  0  0  0
   -0.4317    1.2160   -0.1683 C   0  0  1  0  0  0  0  0  0  0  0  0
    0.0270    1.1183   -1.1542 H   0  0  0  0  0  0  0  0  0  0  0  0
   -1.9155    1.5755   -0.3752 C   0  0  0  0  0  0  0  0  0  0  0  0
   -2.4034    1.7588    0.5838 H   0  0  0  0  0  0  0  0  0  0  0  0
   -2.0060    2.4653   -0.9962 H   0  0  0  0  0  0  0  0  0  0  0  0
   -2.4330    0.7610   -0.8831 H   0  0  0  0  0  0  0  0  0  0  0  0
    0.3121    2.3479    0.5753 C   0  0  0  0  0  0  0  0  0  0  0  0
   -0.3366    2.7813    1.3377 H   0  0  0  0  0  0  0  0  0  0  0  0
    1.1871    1.9266    1.0701 H   0  0  0  0  0  0  0  0  0  0  0  0
    0.8043    3.4724   -0.3459 C   0  0  0  0  0  0  0  0  0  0  0  0
   -0.0398    4.0018   -0.7875 H   0  0  0  0  0  0  0  0  0  0  0  0
    1.3925    4.1823    0.2361 H   0  0  0  0  0  0  0  0  0  0  0  0
    1.4299    3.0590   -1.1377 H   0  0  0  0  0  0  0  0  0  0  0  0
    0.3833   -0.0008    1.9525 C   0  0  0  0  0  0  0  0  0  0  0  0
    1.5803   -0.2304    2.1189 O   0  0  0  0  0  0  0  0  0  0  0  0
   -0.4170    0.3858    2.9541 N   0  0  0  0  0  0  0  0  0  0  0  0
   -1.3850    0.5669    2.7398 H   0  0  0  0  0  0  0  0  0  0  0  0
    0.0265    0.5600    4.3358 C   0  0  0  0  0  0  0  0  0  0  0  0
    0.8964    1.2200    4.3632 H   0  0  0  0  0  0  0  0  0  0  0  0
   -0.7726    0.9946    4.9382 H   0  0  0  0  0  0  0  0  0  0  0  0
    0.3119   -0.4069    4.7547 H   0  0  0  0  0  0  0  0  0  0  0  0
  5  6  2  0  0  0  0
  5  7  1  0  0  0  0
  2  3  1  0  0  0  0
  2  4  1  0  0  0  0
  2  5  1  0  0  0  0
  1  2  1  0  0  0  0
 24 25  2  0  0  0  0
 24 26  1  0  0  0  0
 20 21  1  0  0  0  0
 20 22  1  0  0  0  0
 20 23  1  0  0  0  0
 17 18  1  0  0  0  0
 17 19  1  0  0  0  0
 17 20  1  0  0  0  0
 13 14  1  0  0  0  0
 13 15  1  0  0  0  0
 13 16  1  0  0  0  0
 11 12  1  0  0  0  0
 11 13  1  0  0  0  0
 11 17  1  0  0  0  0
  9 10  1  0  0  0  0
  9 11  1  0  0  0  0
  9 24  1  0  0  0  0
  7  8  1  0  0  0  0
  7  9  1  0  0  0  0
 28 29  1  0  0  0  0
 28 30  1  0  0  0  0
 28 31  1  0  0  0  0
 26 27  1  0  0  0  0
 26 28  1  0  0  0  0
M  END
$$$$
default_name
  -OEChem-02102213163D

 31 30  0     1  0  0  0  0  0999 V2000
   -3.0760   -3.6390    1.5496 H   0  0  0  0  0  0  0  0  0  0  0  0
   -3.0940   -2.6290    1.1426 C   0  0  0  0  0  0  0  0  0  0  0  0
   -3.7160   -1.9930    1.7706 H   0  0  0  0  0  0  0  0  0  0  0  0
   -3.4880   -2.6500    0.1286 H   0  0  0  0  0  0  0  0  0  0  0  0
   -1.6860   -2.0850    1.1196 C   0  0  0  0  0  0  0  0  0  0  0  0
   -0.7540   -2.7700    1.5226 O   0  0  0  0  0  0  0  0  0  0  0  0
   -1.5320   -0.8490    0.6496 N   0  0  0  0  0  0  0  0  0  0  0  0
   -2.3500   -0.3360    0.3566 H   0  0  0  0  0  0  0  0  0  0  0  0
   -0.2470   -0.1410    0.5576 C   0  0  1  0  0  0  0  0  0  0  0  0
    0.4239   -0.7541   -0.0450 H   0  0  0  0  0  0  0  0  0  0  0  0
   -0.4317    1.2160   -0.1683 C   0  0  1  0  0  0  0  0  0  0  0  0
    0.0270    1.1183   -1.1542 H   0  0  0  0  0  0  0  0  0  0  0  0
   -1.9155    1.5755   -0.3752 C   0  0  0  0  0  0  0  0  0  0  0  0
   -2.4034    1.7588    0.5838 H   0  0  0  0  0  0  0  0  0  0  0  0
   -2.0060    2.4653   -0.9962 H   0  0  0  0  0  0  0  0  0  0  0  0
   -2.4330    0.7610   -0.8831 H   0  0  0  0  0  0  0  0  0  0  0  0
    0.3121    2.3479    0.5753 C   0  0  0  0  0  0  0  0  0  0  0  0
   -0.2179    2.6001    1.4948 H   0  0  0  0  0  0  0  0  0  0  0  0
    1.3094    1.9971    0.8406 H   0  0  0  0  0  0  0  0  0  0  0  0
    0.4829    3.6256   -0.2576 C   0  0  0  0  0  0  0  0  0  0  0  0
   -0.4859    4.0810   -0.4620 H   0  0  0  0  0  0  0  0  0  0  0  0
    1.0908    4.3391    0.2992 H   0  0  0  0  0  0  0  0  0  0  0  0
    0.9823    3.3933   -1.1988 H   0  0  0  0  0  0  0  0  0  0  0  0
    0.3833   -0.0008    1.9525 C   0  0  0  0  0  0  0  0  0  0  0  0
    1.5803   -0.2304    2.1189 O   0  0  0  0  0  0  0  0  0  0  0  0
   -0.4170    0.3858    2.9541 N   0  0  0  0  0  0  0  0  0  0  0  0
   -1.3850    0.5669    2.7398 H   0  0  0  0  0  0  0  0  0  0  0  0
    0.0265    0.5600    4.3358 C   0  0  0  0  0  0  0  0  0  0  0  0
    0.8964    1.2200    4.3632 H   0  0  0  0  0  0  0  0  0  0  0  0
   -0.7726    0.9946    4.9382 H   0  0  0  0  0  0  0  0  0  0  0  0
    0.3119   -0.4069    4.7547 H   0  0  0  0  0  0  0  0  0  0  0  0
  5  6  2  0  0  0  0
  5  7  1  0  0  0  0
  2  3  1  0  0  0  0
  2  4  1  0  0  0  0
  2  5  1  0  0  0  0
  1  2  1  0  0  0  0
 24 25  2  0  0  0  0
 24 26  1  0  0  0  0
 20 21  1  0  0  0  0
 20 22  1  0  0  0  0
 20 23  1  0  0  0  0
 17 18  1  0  0  0  0
 17 19  1  0  0  0  0
 17 20  1  0  0  0  0
 13 14  1  0  0  0  0
 13 15  1  0  0  0  0
 13 16  1  0  0  0  0
 11 12  1  0  0  0  0
 11 13  1  0  0  0  0
 11 17  1  0  0  0  0
  9 10  1  0  0  0  0
  9 11  1  0  0  0  0
  9 24  1  0  0  0  0
  7  8  1  0  0  0  0
  7  9  1  0  0  0  0
 28 29  1  0  0  0  0
 28 30  1  0  0  0  0
 28 31  1  0  0  0  0
 26 27  1  0  0  0  0
 26 28  1  0  0  0  0
M  END
$$$$
default_name
  -OEChem-02102213163D

 31 30  0     1  0  0  0  0  0999 V2000
   -3.0760   -3.6390    1.5496 H   0  0  0  0  0  0  0  0  0  0  0  0
   -3.0940   -2.6290    1.1426 C   0  0  0  0  0  0  0  0  0  0  0  0
   -3.7160   -1.9930    1.7706 H   0  0  0  0  0  0  0  0  0  0  0  0
   -3.4880   -2.6500    0.1286 H   0  0  0  0  0  0  0  0  0  0  0  0
   -1.6860   -2.0850    1.1196 C   0  0  0  0  0  0  0  0  0  0  0  0
   -0.7540   -2.7700    1.5226 O   0  0  0  0  0  0  0  0  0  0  0  0
   -1.5320   -0.8490    0.6496 N   0  0  0  0  0  0  0  0  0  0  0  0
   -2.3500   -0.3360    0.3566 H   0  0  0  0  0  0  0  0  0  0  0  0
   -0.2470   -0.1410    0.5576 C   0  0  1  0  0  0  0  0  0  0  0  0
    0.4239   -0.7541   -0.0450 H   0  0  0  0  0  0  0  0  0  0  0  0
   -0.4317    1.2160   -0.1683 C   0  0  1  0  0  0  0  0  0  0  0  0
   -0.2252    1.0453   -1.2266 H   0  0  0  0  0  0  0  0  0  0  0  0
   -1.8706    1.7543   -0.0524 C   0  0  0  0  0  0  0  0  0  0  0  0
   -2.1015    2.0132    0.9825 H   0  0  0  0  0  0  0  0  0  0  0  0
   -1.9953    2.6378   -0.6764 H   0  0  0  0  0  0  0  0  0  0  0  0
   -2.5827    1.0023   -0.3941 H   0  0  0  0  0  0  0  0  0  0  0  0
    0.5902    2.2587    0.3377 C   0  0  0  0  0  0  0  0  0  0  0  0
    0.4825    2.3929    1.4149 H   0  0  0  0  0  0  0  0  0  0  0  0
    1.5961    1.8894    0.1380 H   0  0  0  0  0  0  0  0  0  0  0  0
    0.4622    3.6287   -0.3418 C   0  0  0  0  0  0  0  0  0  0  0  0
   -0.4892    4.0948   -0.0863 H   0  0  0  0  0  0  0  0  0  0  0  0
    1.2689    4.2769    0.0013 H   0  0  0  0  0  0  0  0  0  0  0  0
    0.5340    3.5165   -1.4242 H   0  0  0  0  0  0  0  0  0  0  0  0
    0.3833   -0.0008    1.9525 C   0  0  0  0  0  0  0  0  0  0  0  0
    1.5803   -0.2304    2.1189 O   0  0  0  0  0  0  0  0  0  0  0  0
   -0.4170    0.3858    2.9541 N   0  0  0  0  0  0  0  0  0  0  0  0
   -1.3850    0.5669    2.7398 H   0  0  0  0  0  0  0  0  0  0  0  0
    0.0265    0.5600    4.3358 C   0  0  0  0  0  0  0  0  0  0  0  0
    0.8964    1.2200    4.3632 H   0  0  0  0  0  0  0  0  0  0  0  0
   -0.7726    0.9946    4.9382 H   0  0  0  0  0  0  0  0  0  0  0  0
    0.3119   -0.4069    4.7547 H   0  0  0  0  0  0  0  0  0  0  0  0
  5  6  2  0  0  0  0
  5  7  1  0  0  0  0
  2  3  1  0  0  0  0
  2  4  1  0  0  0  0
  2  5  1  0  0  0  0
  1  2  1  0  0  0  0
 24 25  2  0  0  0  0
 24 26  1  0  0  0  0
 20 21  1  0  0  0  0
 20 22  1  0  0  0  0
 20 23  1  0  0  0  0
 17 18  1  0  0  0  0
 17 19  1  0  0  0  0
 17 20  1  0  0  0  0
 13 14  1  0  0  0  0
 13 15  1  0  0  0  0
 13 16  1  0  0  0  0
 11 12  1  0  0  0  0
 11 13  1  0  0  0  0
 11 17  1  0  0  0  0
  9 10  1  0  0  0  0
  9 11  1  0  0  0  0
  9 24  1  0  0  0  0
  7  8  1  0  0  0  0
  7  9  1  0  0  0  0
 28 29  1  0  0  0  0
 28 30  1  0  0  0  0
 28 31  1  0  0  0  0
 26 27  1  0  0  0  0
 26 28  1  0  0  0  0
M  END
$$$$
default_name
  -OEChem-02102213163D

 31 30  0     1  0  0  0  0  0999 V2000
   -3.0760   -3.6390    1.5496 H   0  0  0  0  0  0  0  0  0  0  0  0
   -3.0940   -2.6290    1.1426 C   0  0  0  0  0  0  0  0  0  0  0  0
   -3.7160   -1.9930    1.7706 H   0  0  0  0  0  0  0  0  0  0  0  0
   -3.4880   -2.6500    0.1286 H   0  0  0  0  0  0  0  0  0  0  0  0
   -1.6860   -2.0850    1.1196 C   0  0  0  0  0  0  0  0  0  0  0  0
   -0.7540   -2.7700    1.5226 O   0  0  0  0  0  0  0  0  0  0  0  0
   -1.5320   -0.8490    0.6496 N   0  0  0  0  0  0  0  0  0  0  0  0
   -2.3500   -0.3360    0.3566 H   0  0  0  0  0  0  0  0  0  0  0  0
   -0.2470   -0.1410    0.5576 C   0  0  1  0  0  0  0  0  0  0  0  0
    0.4239   -0.7541   -0.0450 H   0  0  0  0  0  0  0  0  0  0  0  0
   -0.4317    1.2160   -0.1683 C   0  0  1  0  0  0  0  0  0  0  0  0
   -0.2252    1.0453   -1.2266 H   0  0  0  0  0  0  0  0  0  0  0  0
   -1.8706    1.7543   -0.0524 C   0  0  0  0  0  0  0  0  0  0  0  0
   -2.1015    2.0132    0.9825 H   0  0  0  0  0  0  0  0  0  0  0  0
   -1.9953    2.6378   -0.6764 H   0  0  0  0  0  0  0  0  0  0  0  0
   -2.5827    1.0023   -0.3941 H   0  0  0  0  0  0  0  0  0  0  0  0
    0.5902    2.2587    0.3377 C   0  0  0  0  0  0  0  0  0  0  0  0
    0.6713    2.2034    1.4241 H   0  0  0  0  0  0  0  0  0  0  0  0
    1.5661    2.0295   -0.0902 H   0  0  0  0  0  0  0  0  0  0  0  0
    0.2457    3.7017   -0.0549 C   0  0  0  0  0  0  0  0  0  0  0  0
   -0.6735    4.0222    0.4353 H   0  0  0  0  0  0  0  0  0  0  0  0
    1.0543    4.3624    0.2586 H   0  0  0  0  0  0  0  0  0  0  0  0
    0.1269    3.7758   -1.1364 H   0  0  0  0  0  0  0  0  0  0  0  0
    0.3833   -0.0008    1.9525 C   0  0  0  0  0  0  0  0  0  0  0  0
    1.5803   -0.2304    2.1189 O   0  0  0  0  0  0  0  0  0  0  0  0
   -0.4170    0.3858    2.9541 N   0  0  0  0  0  0  0  0  0  0  0  0
   -1.3850    0.5669    2.7398 H   0  0  0  0  0  0  0  0  0  0  0  0
    0.0265    0.5600    4.3358 C   0  0  0  0  0  0  0  0  0  0  0  0
    0.8964    1.2200    4.3632 H   0  0  0  0  0  0  0  0  0  0  0  0
   -0.7726    0.9946    4.9382 H   0  0  0  0  0  0  0  0  0  0  0  0
    0.3119   -0.4069    4.7547 H   0  0  0  0  0  0  0  0  0  0  0  0
  5  6  2  0  0  0  0
  5  7  1  0  0  0  0
  2  3  1  0  0  0  0
  2  4  1  0  0  0  0
  2  5  1  0  0  0  0
  1  2  1  0  0  0  0
 24 25  2  0  0  0  0
 24 26  1  0  0  0  0
 20 21  1  0  0  0  0
 20 22  1  0  0  0  0
 20 23  1  0  0  0  0
 17 18  1  0  0  0  0
 17 19  1  0  0  0  0
 17 20  1  0  0  0  0
 13 14  1  0  0  0  0
 13 15  1  0  0  0  0
 13 16  1  0  0  0  0
 11 12  1  0  0  0  0
 11 13  1  0  0  0  0
 11 17  1  0  0  0  0
  9 10  1  0  0  0  0
  9 11  1  0  0  0  0
  9 24  1  0  0  0  0
  7  8  1  0  0  0  0
  7  9  1  0  0  0  0
 28 29  1  0  0  0  0
 28 30  1  0  0  0  0
 28 31  1  0  0  0  0
 26 27  1  0  0  0  0
 26 28  1  0  0  0  0
M  END
$$$$
default_name
  -OEChem-02102213163D

 31 30  0     1  0  0  0  0  0999 V2000
   -3.0760   -3.6390    1.5496 H   0  0  0  0  0  0  0  0  0  0  0  0
   -3.0940   -2.6290    1.1426 C   0  0  0  0  0  0  0  0  0  0  0  0
   -3.7160   -1.9930    1.7706 H   0  0  0  0  0  0  0  0  0  0  0  0
   -3.4880   -2.6500    0.1286 H   0  0  0  0  0  0  0  0  0  0  0  0
   -1.6860   -2.0850    1.1196 C   0  0  0  0  0  0  0  0  0  0  0  0
   -0.7540   -2.7700    1.5226 O   0  0  0  0  0  0  0  0  0  0  0  0
   -1.5320   -0.8490    0.6496 N   0  0  0  0  0  0  0  0  0  0  0  0
   -2.3500   -0.3360    0.3566 H   0  0  0  0  0  0  0  0  0  0  0  0
   -0.2470   -0.1410    0.5576 C   0  0  1  0  0  0  0  0  0  0  0  0
    0.4239   -0.7541   -0.0450 H   0  0  0  0  0  0  0  0  0  0  0  0
   -0.4317    1.2160   -0.1683 C   0  0  1  0  0  0  0  0  0  0  0  0
   -0.2252    1.0453   -1.2266 H   0  0  0  0  0  0  0  0  0  0  0  0
   -1.8706    1.7543   -0.0524 C   0  0  0  0  0  0  0  0  0  0  0  0
   -2.1015    2.0132    0.9825 H   0  0  0  0  0  0  0  0  0  0  0  0
   -1.9953    2.6378   -0.6764 H   0  0  0  0  0  0  0  0  0  0  0  0
   -2.5827    1.0023   -0.3941 H   0  0  0  0  0  0  0  0  0  0  0  0
    0.5902    2.2587    0.3377 C   0  0  0  0  0  0  0  0  0  0  0  0
    0.8714    2.0348    1.3676 H   0  0  0  0  0  0  0  0  0  0  0  0
    1.4854    2.2014   -0.2814 H   0  0  0  0  0  0  0  0  0  0  0  0
    0.0804    3.7047    0.2725 C   0  0  0  0  0  0  0  0  0  0  0  0
   -0.7541    3.8472    0.9588 H   0  0  0  0  0  0  0  0  0  0  0  0
    0.8846    4.3827    0.5593 H   0  0  0  0  0  0  0  0  0  0  0  0
   -0.2381    3.9426   -0.7430 H   0  0  0  0  0  0  0  0  0  0  0  0
    0.3833   -0.0008    1.9525 C   0  0  0  0  0  0  0  0  0  0  0  0
    1.5803   -0.2304    2.1189 O   0  0  0  0  0  0  0  0  0  0  0  0
   -0.4170    0.3858    2.9541 N   0  0  0  0  0  0  0  0  0  0  0  0
   -1.3850    0.5669    2.7398 H   0  0  0  0  0  0  0  0  0  0  0  0
    0.0265    0.5600    4.3358 C   0  0  0  0  0  0  0  0  0  0  0  0
    0.8964    1.2200    4.3632 H   0  0  0  0  0  0  0  0  0  0  0  0
   -0.7726    0.9946    4.9382 H   0  0  0  0  0  0  0  0  0  0  0  0
    0.3119   -0.4069    4.7547 H   0  0  0  0  0  0  0  0  0  0  0  0
  5  6  2  0  0  0  0
  5  7  1  0  0  0  0
  2  3  1  0  0  0  0
  2  4  1  0  0  0  0
  2  5  1  0  0  0  0
  1  2  1  0  0  0  0
 24 25  2  0  0  0  0
 24 26  1  0  0  0  0
 20 21  1  0  0  0  0
 20 22  1  0  0  0  0
 20 23  1  0  0  0  0
 17 18  1  0  0  0  0
 17 19  1  0  0  0  0
 17 20  1  0  0  0  0
 13 14  1  0  0  0  0
 13 15  1  0  0  0  0
 13 16  1  0  0  0  0
 11 12  1  0  0  0  0
 11 13  1  0  0  0  0
 11 17  1  0  0  0  0
  9 10  1  0  0  0  0
  9 11  1  0  0  0  0
  9 24  1  0  0  0  0
  7  8  1  0  0  0  0
  7  9  1  0  0  0  0
 28 29  1  0  0  0  0
 28 30  1  0  0  0  0
 28 31  1  0  0  0  0
 26 27  1  0  0  0  0
 26 28  1  0  0  0  0
M  END
$$$$
default_name
  -OEChem-02102213163D

 31 30  0     1  0  0  0  0  0999 V2000
   -3.0760   -3.6390    1.5496 H   0  0  0  0  0  0  0  0  0  0  0  0
   -3.0940   -2.6290    1.1426 C   0  0  0  0  0  0  0  0  0  0  0  0
   -3.7160   -1.9930    1.7706 H   0  0  0  0  0  0  0  0  0  0  0  0
   -3.4880   -2.6500    0.1286 H   0  0  0  0  0  0  0  0  0  0  0  0
   -1.6860   -2.0850    1.1196 C   0  0  0  0  0  0  0  0  0  0  0  0
   -0.7540   -2.7700    1.5226 O   0  0  0  0  0  0  0  0  0  0  0  0
   -1.5320   -0.8490    0.6496 N   0  0  0  0  0  0  0  0  0  0  0  0
   -2.3500   -0.3360    0.3566 H   0  0  0  0  0  0  0  0  0  0  0  0
   -0.2470   -0.1410    0.5576 C   0  0  1  0  0  0  0  0  0  0  0  0
    0.4239   -0.7541   -0.0450 H   0  0  0  0  0  0  0  0  0  0  0  0
   -0.4317    1.2160   -0.1683 C   0  0  1  0  0  0  0  0  0  0  0  0
   -0.2252    1.0453   -1.2266 H   0  0  0  0  0  0  0  0  0  0  0  0
   -1.8706    1.7543   -0.0524 C   0  0  0  0  0  0  0  0  0  0  0  0
   -2.1015    2.0132    0.9825 H   0  0  0  0  0  0  0  0  0  0  0  0
   -1.9953    2.6378   -0.6764 H   0  0  0  0  0  0  0  0  0  0  0  0
   -2.5827    1.0023   -0.3941 H   0  0  0  0  0  0  0  0  0  0  0  0
    0.5902    2.2587    0.3377 C   0  0  0  0  0  0  0  0  0  0  0  0
    1.0690    1.8985    1.2492 H   0  0  0  0  0  0  0  0  0  0  0  0
    1.3596    2.3932   -0.4225 H   0  0  0  0  0  0  0  0  0  0  0  0
   -0.0222    3.6376    0.6182 C   0  0  0  0  0  0  0  0  0  0  0  0
   -0.7258    3.5817    1.4487 H   0  0  0  0  0  0  0  0  0  0  0  0
    0.7716    4.3364    0.8829 H   0  0  0  0  0  0  0  0  0  0  0  0
   -0.5361    4.0054   -0.2706 H   0  0  0  0  0  0  0  0  0  0  0  0
    0.3833   -0.0008    1.9525 C   0  0  0  0  0  0  0  0  0  0  0  0
    1.5803   -0.2304    2.1189 O   0  0  0  0  0  0  0  0  0  0  0  0
   -0.4170    0.3858    2.9541 N   0  0  0  0  0  0  0  0  0  0  0  0
   -1.3850    0.5669    2.7398 H   0  0  0  0  0  0  0  0  0  0  0  0
    0.0265    0.5600    4.3358 C   0  0  0  0  0  0  0  0  0  0  0  0
    0.8964    1.2200    4.3632 H   0  0  0  0  0  0  0  0  0  0  0  0
   -0.7726    0.9946    4.9382 H   0  0  0  0  0  0  0  0  0  0  0  0
    0.3119   -0.4069    4.7547 H   0  0  0  0  0  0  0  0  0  0  0  0
  5  6  2  0  0  0  0
  5  7  1  0  0  0  0
  2  3  1  0  0  0  0
  2  4  1  0  0  0  0
  2  5  1  0  0  0  0
  1  2  1  0  0  0  0
 24 25  2  0  0  0  0
 24 26  1  0  0  0  0
 20 21  1  0  0  0  0
 20 22  1  0  0  0  0
 20 23  1  0  0  0  0
 17 18  1  0  0  0  0
 17 19  1  0  0  0  0
 17 20  1  0  0  0  0
 13 14  1  0  0  0  0
 13 15  1  0  0  0  0
 13 16  1  0  0  0  0
 11 12  1  0  0  0  0
 11 13  1  0  0  0  0
 11 17  1  0  0  0  0
  9 10  1  0  0  0  0
  9 11  1  0  0  0  0
  9 24  1  0  0  0  0
  7  8  1  0  0  0  0
  7  9  1  0  0  0  0
 28 29  1  0  0  0  0
 28 30  1  0  0  0  0
 28 31  1  0  0  0  0
 26 27  1  0  0  0  0
 26 28  1  0  0  0  0
M  END
$$$$
default_name
  -OEChem-02102213163D

 31 30  0     1  0  0  0  0  0999 V2000
   -3.0760   -3.6390    1.5496 H   0  0  0  0  0  0  0  0  0  0  0  0
   -3.0940   -2.6290    1.1426 C   0  0  0  0  0  0  0  0  0  0  0  0
   -3.7160   -1.9930    1.7706 H   0  0  0  0  0  0  0  0  0  0  0  0
   -3.4880   -2.6500    0.1286 H   0  0  0  0  0  0  0  0  0  0  0  0
   -1.6860   -2.0850    1.1196 C   0  0  0  0  0  0  0  0  0  0  0  0
   -0.7540   -2.7700    1.5226 O   0  0  0  0  0  0  0  0  0  0  0  0
   -1.5320   -0.8490    0.6496 N   0  0  0  0  0  0  0  0  0  0  0  0
   -2.3500   -0.3360    0.3566 H   0  0  0  0  0  0  0  0  0  0  0  0
   -0.2470   -0.1410    0.5576 C   0  0  1  0  0  0  0  0  0  0  0  0
    0.4239   -0.7541   -0.0450 H   0  0  0  0  0  0  0  0  0  0  0  0
   -0.4317    1.2160   -0.1683 C   0  0  1  0  0  0  0  0  0  0  0  0
   -0.2252    1.0453   -1.2266 H   0  0  0  0  0  0  0  0  0  0  0  0
   -1.8706    1.7543   -0.0524 C   0  0  0  0  0  0  0  0  0  0  0  0
   -2.1015    2.0132    0.9825 H   0  0  0  0  0  0  0  0  0  0  0  0
   -1.9953    2.6378   -0.6764 H   0  0  0  0  0  0  0  0  0  0  0  0
   -2.5827    1.0023   -0.3941 H   0  0  0  0  0  0  0  0  0  0  0  0
    0.5902    2.2587    0.3377 C   0  0  0  0  0  0  0  0  0  0  0  0
    1.2508    1.8039    1.0771 H   0  0  0  0  0  0  0  0  0  0  0  0
    1.1971    2.5920   -0.5041 H   0  0  0  0  0  0  0  0  0  0  0  0
   -0.0554    3.5049    0.9585 C   0  0  0  0  0  0  0  0  0  0  0  0
   -0.5904    3.2438    1.8714 H   0  0  0  0  0  0  0  0  0  0  0  0
    0.7229    4.2268    1.2073 H   0  0  0  0  0  0  0  0  0  0  0  0
   -0.7467    3.9599    0.2484 H   0  0  0  0  0  0  0  0  0  0  0  0
    0.3833   -0.0008    1.9525 C   0  0  0  0  0  0  0  0  0  0  0  0
    1.5803   -0.2304    2.1189 O   0  0  0  0  0  0  0  0  0  0  0  0
   -0.4170    0.3858    2.9541 N   0  0  0  0  0  0  0  0  0  0  0  0
   -1.3850    0.5669    2.7398 H   0  0  0  0  0  0  0  0  0  0  0  0
    0.0265    0.5600    4.3358 C   0  0  0  0  0  0  0  0  0  0  0  0
    0.8964    1.2200    4.3632 H   0  0  0  0  0  0  0  0  0  0  0  0
   -0.7726    0.9946    4.9382 H   0  0  0  0  0  0  0  0  0  0  0  0
    0.3119   -0.4069    4.7547 H   0  0  0  0  0  0  0  0  0  0  0  0
  5  6  2  0  0  0  0
  5  7  1  0  0  0  0
  2  3  1  0  0  0  0
  2  4  1  0  0  0  0
  2  5  1  0  0  0  0
  1  2  1  0  0  0  0
 24 25  2  0  0  0  0
 24 26  1  0  0  0  0
 20 21  1  0  0  0  0
 20 22  1  0  0  0  0
 20 23  1  0  0  0  0
 17 18  1  0  0  0  0
 17 19  1  0  0  0  0
 17 20  1  0  0  0  0
 13 14  1  0  0  0  0
 13 15  1  0  0  0  0
 13 16  1  0  0  0  0
 11 12  1  0  0  0  0
 11 13  1  0  0  0  0
 11 17  1  0  0  0  0
  9 10  1  0  0  0  0
  9 11  1  0  0  0  0
  9 24  1  0  0  0  0
  7  8  1  0  0  0  0
  7  9  1  0  0  0  0
 28 29  1  0  0  0  0
 28 30  1  0  0  0  0
 28 31  1  0  0  0  0
 26 27  1  0  0  0  0
 26 28  1  0  0  0  0
M  END
$$$$
default_name
  -OEChem-02102213163D

 31 30  0     1  0  0  0  0  0999 V2000
   -3.0760   -3.6390    1.5496 H   0  0  0  0  0  0  0  0  0  0  0  0
   -3.0940   -2.6290    1.1426 C   0  0  0  0  0  0  0  0  0  0  0  0
   -3.7160   -1.9930    1.7706 H   0  0  0  0  0  0  0  0  0  0  0  0
   -3.4880   -2.6500    0.1286 H   0  0  0  0  0  0  0  0  0  0  0  0
   -1.6860   -2.0850    1.1196 C   0  0  0  0  0  0  0  0  0  0  0  0
   -0.7540   -2.7700    1.5226 O   0  0  0  0  0  0  0  0  0  0  0  0
   -1.5320   -0.8490    0.6496 N   0  0  0  0  0  0  0  0  0  0  0  0
   -2.3500   -0.3360    0.3566 H   0  0  0  0  0  0  0  0  0  0  0  0
   -0.2470   -0.1410    0.5576 C   0  0  1  0  0  0  0  0  0  0  0  0
    0.4239   -0.7541   -0.0450 H   0  0  0  0  0  0  0  0  0  0  0  0
   -0.4317    1.2160   -0.1683 C   0  0  1  0  0  0  0  0  0  0  0  0
   -0.2252    1.0453   -1.2266 H   0  0  0  0  0  0  0  0  0  0  0  0
   -1.8706    1.7543   -0.0524 C   0  0  0  0  0  0  0  0  0  0  0  0
   -2.1015    2.0132    0.9825 H   0  0  0  0  0  0  0  0  0  0  0  0
   -1.9953    2.6378   -0.6764 H   0  0  0  0  0  0  0  0  0  0  0  0
   -2.5827    1.0023   -0.3941 H   0  0  0  0  0  0  0  0  0  0  0  0
    0.5902    2.2587    0.3377 C   0  0  0  0  0  0  0  0  0  0  0  0
    1.4044    1.7574    0.8628 H   0  0  0  0  0  0  0  0  0  0  0  0
    1.0090    2.7843   -0.5204 H   0  0  0  0  0  0  0  0  0  0  0  0
   -0.0167    3.3156    1.2703 C   0  0  0  0  0  0  0  0  0  0  0  0
   -0.3571    2.8565    2.1983 H   0  0  0  0  0  0  0  0  0  0  0  0
    0.7417    4.0612    1.5103 H   0  0  0  0  0  0  0  0  0  0  0  0
   -0.8557    3.8093    0.7788 H   0  0  0  0  0  0  0  0  0  0  0  0
    0.3833   -0.0008    1.9525 C   0  0  0  0  0  0  0  0  0  0  0  0
    1.5803   -0.2304    2.1189 O   0  0  0  0  0  0  0  0  0  0  0  0
   -0.4170    0.3858    2.9541 N   0  0  0  0  0  0  0  0  0  0  0  0
   -1.3850    0.5669    2.7398 H   0  0  0  0  0  0  0  0  0  0  0  0
    0.0265    0.5600    4.3358 C   0  0  0  0  0  0  0  0  0  0  0  0
    0.8964    1.2200    4.3632 H   0  0  0  0  0  0  0  0  0  0  0  0
   -0.7726    0.9946    4.9382 H   0  0  0  0  0  0  0  0  0  0  0  0
    0.3119   -0.4069    4.7547 H   0  0  0  0  0  0  0  0  0  0  0  0
  5  6  2  0  0  0  0
  5  7  1  0  0  0  0
  2  3  1  0  0  0  0
  2  4  1  0  0  0  0
  2  5  1  0  0  0  0
  1  2  1  0  0  0  0
 24 25  2  0  0  0  0
 24 26  1  0  0  0  0
 20 21  1  0  0  0  0
 20 22  1  0  0  0  0
 20 23  1  0  0  0  0
 17 18  1  0  0  0  0
 17 19  1  0  0  0  0
 17 20  1  0  0  0  0
 13 14  1  0  0  0  0
 13 15  1  0  0  0  0
 13 16  1  0  0  0  0
 11 12  1  0  0  0  0
 11 13  1  0  0  0  0
 11 17  1  0  0  0  0
  9 10  1  0  0  0  0
  9 11  1  0  0  0  0
  9 24  1  0  0  0  0
  7  8  1  0  0  0  0
  7  9  1  0  0  0  0
 28 29  1  0  0  0  0
 28 30  1  0  0  0  0
 28 31  1  0  0  0  0
 26 27  1  0  0  0  0
 26 28  1  0  0  0  0
M  END
$$$$
default_name
  -OEChem-02102213163D

 31 30  0     1  0  0  0  0  0999 V2000
   -3.0760   -3.6390    1.5496 H   0  0  0  0  0  0  0  0  0  0  0  0
   -3.0940   -2.6290    1.1426 C   0  0  0  0  0  0  0  0  0  0  0  0
   -3.7160   -1.9930    1.7706 H   0  0  0  0  0  0  0  0  0  0  0  0
   -3.4880   -2.6500    0.1286 H   0  0  0  0  0  0  0  0  0  0  0  0
   -1.6860   -2.0850    1.1196 C   0  0  0  0  0  0  0  0  0  0  0  0
   -0.7540   -2.7700    1.5226 O   0  0  0  0  0  0  0  0  0  0  0  0
   -1.5320   -0.8490    0.6496 N   0  0  0  0  0  0  0  0  0  0  0  0
   -2.3500   -0.3360    0.3566 H   0  0  0  0  0  0  0  0  0  0  0  0
   -0.2470   -0.1410    0.5576 C   0  0  1  0  0  0  0  0  0  0  0  0
    0.4239   -0.7541   -0.0450 H   0  0  0  0  0  0  0  0  0  0  0  0
   -0.4317    1.2160   -0.1683 C   0  0  1  0  0  0  0  0  0  0  0  0
   -0.2252    1.0453   -1.2266 H   0  0  0  0  0  0  0  0  0  0  0  0
   -1.8706    1.7543   -0.0524 C   0  0  0  0  0  0  0  0  0  0  0  0
   -2.1015    2.0132    0.9825 H   0  0  0  0  0  0  0  0  0  0  0  0
   -1.9953    2.6378   -0.6764 H   0  0  0  0  0  0  0  0  0  0  0  0
   -2.5827    1.0023   -0.3941 H   0  0  0  0  0  0  0  0  0  0  0  0
    0.5902    2.2587    0.3377 C   0  0  0  0  0  0  0  0  0  0  0  0
    1.5192    1.7622    0.6211 H   0  0  0  0  0  0  0  0  0  0  0  0
    0.8082    2.9568   -0.4704 H   0  0  0  0  0  0  0  0  0  0  0  0
    0.0912    3.0827    1.5324 C   0  0  0  0  0  0  0  0  0  0  0  0
   -0.0418    2.4462    2.4070 H   0  0  0  0  0  0  0  0  0  0  0  0
    0.8269    3.8510    1.7714 H   0  0  0  0  0  0  0  0  0  0  0  0
   -0.8555    3.5638    1.2843 H   0  0  0  0  0  0  0  0  0  0  0  0
    0.3833   -0.0008    1.9525 C   0  0  0  0  0  0  0  0  0  0  0  0
    1.5803   -0.2304    2.1189 O   0  0  0  0  0  0  0  0  0  0  0  0
   -0.4170    0.3858    2.9541 N   0  0  0  0  0  0  0  0  0  0  0  0
   -1.3850    0.5669    2.7398 H   0  0  0  0  0  0  0  0  0  0  0  0
    0.0265    0.5600    4.3358 C   0  0  0  0  0  0  0  0  0  0  0  0
    0.8964    1.2200    4.3632 H   0  0  0  0  0  0  0  0  0  0  0  0
   -0.7726    0.9946    4.9382 H   0  0  0  0  0  0  0  0  0  0  0  0
    0.3119   -0.4069    4.7547 H   0  0  0  0  0  0  0  0  0  0  0  0
  5  6  2  0  0  0  0
  5  7  1  0  0  0  0
  2  3  1  0  0  0  0
  2  4  1  0  0  0  0
  2  5  1  0  0  0  0
  1  2  1  0  0  0  0
 24 25  2  0  0  0  0
 24 26  1  0  0  0  0
 20 21  1  0  0  0  0
 20 22  1  0  0  0  0
 20 23  1  0  0  0  0
 17 18  1  0  0  0  0
 17 19  1  0  0  0  0
 17 20  1  0  0  0  0
 13 14  1  0  0  0  0
 13 15  1  0  0  0  0
 13 16  1  0  0  0  0
 11 12  1  0  0  0  0
 11 13  1  0  0  0  0
 11 17  1  0  0  0  0
  9 10  1  0  0  0  0
  9 11  1  0  0  0  0
  9 24  1  0  0  0  0
  7  8  1  0  0  0  0
  7  9  1  0  0  0  0
 28 29  1  0  0  0  0
 28 30  1  0  0  0  0
 28 31  1  0  0  0  0
 26 27  1  0  0  0  0
 26 28  1  0  0  0  0
M  END
$$$$
default_name
  -OEChem-02102213163D

 31 30  0     1  0  0  0  0  0999 V2000
   -3.0760   -3.6390    1.5496 H   0  0  0  0  0  0  0  0  0  0  0  0
   -3.0940   -2.6290    1.1426 C   0  0  0  0  0  0  0  0  0  0  0  0
   -3.7160   -1.9930    1.7706 H   0  0  0  0  0  0  0  0  0  0  0  0
   -3.4880   -2.6500    0.1286 H   0  0  0  0  0  0  0  0  0  0  0  0
   -1.6860   -2.0850    1.1196 C   0  0  0  0  0  0  0  0  0  0  0  0
   -0.7540   -2.7700    1.5226 O   0  0  0  0  0  0  0  0  0  0  0  0
   -1.5320   -0.8490    0.6496 N   0  0  0  0  0  0  0  0  0  0  0  0
   -2.3500   -0.3360    0.3566 H   0  0  0  0  0  0  0  0  0  0  0  0
   -0.2470   -0.1410    0.5576 C   0  0  1  0  0  0  0  0  0  0  0  0
    0.4239   -0.7541   -0.0450 H   0  0  0  0  0  0  0  0  0  0  0  0
   -0.4317    1.2160   -0.1683 C   0  0  1  0  0  0  0  0  0  0  0  0
   -0.2252    1.0453   -1.2266 H   0  0  0  0  0  0  0  0  0  0  0  0
   -1.8706    1.7543   -0.0524 C   0  0  0  0  0  0  0  0  0  0  0  0
   -2.1015    2.0132    0.9825 H   0  0  0  0  0  0  0  0  0  0  0  0
   -1.9953    2.6378   -0.6764 H   0  0  0  0  0  0  0  0  0  0  0  0
   -2.5827    1.0023   -0.3941 H   0  0  0  0  0  0  0  0  0  0  0  0
    0.5902    2.2587    0.3377 C   0  0  0  0  0  0  0  0  0  0  0  0
    1.5875    1.8179    0.3683 H   0  0  0  0  0  0  0  0  0  0  0  0
    0.6084    3.0979   -0.3575 H   0  0  0  0  0  0  0  0  0  0  0  0
    0.2609    2.8221    1.7268 C   0  0  0  0  0  0  0  0  0  0  0  0
    0.3340    2.0410    2.4833 H   0  0  0  0  0  0  0  0  0  0  0  0
    0.9726    3.6105    1.9728 H   0  0  0  0  0  0  0  0  0  0  0  0
   -0.7463    3.2402    1.7306 H   0  0  0  0  0  0  0  0  0  0  0  0
    0.3833   -0.0008    1.9525 C   0  0  0  0  0  0  0  0  0  0  0  0
    1.5803   -0.2304    2.1189 O   0  0  0  0  0  0  0  0  0  0  0  0
   -0.4170    0.3858    2.9541 N   0  0  0  0  0  0  0  0  0  0  0  0
   -1.3850    0.5669    2.7398 H   0  0  0  0  0  0  0  0  0  0  0  0
    0.0265    0.5600    4.3358 C   0  0  0  0  0  0  0  0  0  0  0  0
    0.8964    1.2200    4.3632 H   0  0  0  0  0  0  0  0  0  0  0  0
   -0.7726    0.9946    4.9382 H   0  0  0  0  0  0  0  0  0  0  0  0
    0.3119   -0.4069    4.7547 H   0  0  0  0  0  0  0  0  0  0  0  0
  5  6  2  0  0  0  0
  5  7  1  0  0  0  0
  2  3  1  0  0  0  0
  2  4  1  0  0  0  0
  2  5  1  0  0  0  0
  1  2  1  0  0  0  0
 24 25  2  0  0  0  0
 24 26  1  0  0  0  0
 20 21  1  0  0  0  0
 20 22  1  0  0  0  0
 20 23  1  0  0  0  0
 17 18  1  0  0  0  0
 17 19  1  0  0  0  0
 17 20  1  0  0  0  0
 13 14  1  0  0  0  0
 13 15  1  0  0  0  0
 13 16  1  0  0  0  0
 11 12  1  0  0  0  0
 11 13  1  0  0  0  0
 11 17  1  0  0  0  0
  9 10  1  0  0  0  0
  9 11  1  0  0  0  0
  9 24  1  0  0  0  0
  7  8  1  0  0  0  0
  7  9  1  0  0  0  0
 28 29  1  0  0  0  0
 28 30  1  0  0  0  0
 28 31  1  0  0  0  0
 26 27  1  0  0  0  0
 26 28  1  0  0  0  0
M  END
$$$$
default_name
  -OEChem-02102213163D

 31 30  0     1  0  0  0  0  0999 V2000
   -3.0760   -3.6390    1.5496 H   0  0  0  0  0  0  0  0  0  0  0  0
   -3.0940   -2.6290    1.1426 C   0  0  0  0  0  0  0  0  0  0  0  0
   -3.7160   -1.9930    1.7706 H   0  0  0  0  0  0  0  0  0  0  0  0
   -3.4880   -2.6500    0.1286 H   0  0  0  0  0  0  0  0  0  0  0  0
   -1.6860   -2.0850    1.1196 C   0  0  0  0  0  0  0  0  0  0  0  0
   -0.7540   -2.7700    1.5226 O   0  0  0  0  0  0  0  0  0  0  0  0
   -1.5320   -0.8490    0.6496 N   0  0  0  0  0  0  0  0  0  0  0  0
   -2.3500   -0.3360    0.3566 H   0  0  0  0  0  0  0  0  0  0  0  0
   -0.2470   -0.1410    0.5576 C   0  0  1  0  0  0  0  0  0  0  0  0
    0.4239   -0.7541   -0.0450 H   0  0  0  0  0  0  0  0  0  0  0  0
   -0.4317    1.2160   -0.1683 C   0  0  1  0  0  0  0  0  0  0  0  0
   -0.2252    1.0453   -1.2266 H   0  0  0  0  0  0  0  0  0  0  0  0
   -1.8706    1.7543   -0.0524 C   0  0  0  0  0  0  0  0  0  0  0  0
   -2.1015    2.0132    0.9825 H   0  0  0  0  0  0  0  0  0  0  0  0
   -1.9953    2.6378   -0.6764 H   0  0  0  0  0  0  0  0  0  0  0  0
   -2.5827    1.0023   -0.3941 H   0  0  0  0  0  0  0  0  0  0  0  0
    0.5902    2.2587    0.3377 C   0  0  0  0  0  0  0  0  0  0  0  0
    1.6046    1.9208    0.1218 H   0  0  0  0  0  0  0  0  0  0  0  0
    0.4231    3.1979   -0.1895 H   0  0  0  0  0  0  0  0  0  0  0  0
    0.4809    2.5514    1.8403 C   0  0  0  0  0  0  0  0  0  0  0  0
    0.7446    1.6683    2.4220 H   0  0  0  0  0  0  0  0  0  0  0  0
    1.1689    3.3561    2.1007 H   0  0  0  0  0  0  0  0  0  0  0  0
   -0.5354    2.8604    2.0872 H   0  0  0  0  0  0  0  0  0  0  0  0
    0.3833   -0.0008    1.9525 C   0  0  0  0  0  0  0  0  0  0  0  0
    1.5803   -0.2304    2.1189 O   0  0  0  0  0  0  0  0  0  0  0  0
   -0.4170    0.3858    2.9541 N   0  0  0  0  0  0  0  0  0  0  0  0
   -1.3850    0.5669    2.7398 H   0  0  0  0  0  0  0  0  0  0  0  0
    0.0265    0.5600    4.3358 C   0  0  0  0  0  0  0  0  0  0  0  0
    0.8964    1.2200    4.3632 H   0  0  0  0  0  0  0  0  0  0  0  0
   -0.7726    0.9946    4.9382 H   0  0  0  0  0  0  0  0  0  0  0  0
    0.3119   -0.4069    4.7547 H   0  0  0  0  0  0  0  0  0  0  0  0
  5  6  2  0  0  0  0
  5  7  1  0  0  0  0
  2  3  1  0  0  0  0
  2  4  1  0  0  0  0
  2  5  1  0  0  0  0
  1  2  1  0  0  0  0
 24 25  2  0  0  0  0
 24 26  1  0  0  0  0
 20 21  1  0  0  0  0
 20 22  1  0  0  0  0
 20 23  1  0  0  0  0
 17 18  1  0  0  0  0
 17 19  1  0  0  0  0
 17 20  1  0  0  0  0
 13 14  1  0  0  0  0
 13 15  1  0  0  0  0
 13 16  1  0  0  0  0
 11 12  1  0  0  0  0
 11 13  1  0  0  0  0
 11 17  1  0  0  0  0
  9 10  1  0  0  0  0
  9 11  1  0  0  0  0
  9 24  1  0  0  0  0
  7  8  1  0  0  0  0
  7  9  1  0  0  0  0
 28 29  1  0  0  0  0
 28 30  1  0  0  0  0
 28 31  1  0  0  0  0
 26 27  1  0  0  0  0
 26 28  1  0  0  0  0
M  END
$$$$
default_name
  -OEChem-02102213163D

 31 30  0     1  0  0  0  0  0999 V2000
   -3.0760   -3.6390    1.5496 H   0  0  0  0  0  0  0  0  0  0  0  0
   -3.0940   -2.6290    1.1426 C   0  0  0  0  0  0  0  0  0  0  0  0
   -3.7160   -1.9930    1.7706 H   0  0  0  0  0  0  0  0  0  0  0  0
   -3.4880   -2.6500    0.1286 H   0  0  0  0  0  0  0  0  0  0  0  0
   -1.6860   -2.0850    1.1196 C   0  0  0  0  0  0  0  0  0  0  0  0
   -0.7540   -2.7700    1.5226 O   0  0  0  0  0  0  0  0  0  0  0  0
   -1.5320   -0.8490    0.6496 N   0  0  0  0  0  0  0  0  0  0  0  0
   -2.3500   -0.3360    0.3566 H   0  0  0  0  0  0  0  0  0  0  0  0
   -0.2470   -0.1410    0.5576 C   0  0  1  0  0  0  0  0  0  0  0  0
    0.4239   -0.7541   -0.0450 H   0  0  0  0  0  0  0  0  0  0  0  0
   -0.4317    1.2160   -0.1683 C   0  0  1  0  0  0  0  0  0  0  0  0
   -0.2252    1.0453   -1.2266 H   0  0  0  0  0  0  0  0  0  0  0  0
   -1.8706    1.7543   -0.0524 C   0  0  0  0  0  0  0  0  0  0  0  0
   -2.1015    2.0132    0.9825 H   0  0  0  0  0  0  0  0  0  0  0  0
   -1.9953    2.6378   -0.6764 H   0  0  0  0  0  0  0  0  0  0  0  0
   -2.5827    1.0023   -0.3941 H   0  0  0  0  0  0  0  0  0  0  0  0
    0.5902    2.2587    0.3377 C   0  0  0  0  0  0  0  0  0  0  0  0
    1.5694    2.0638   -0.1017 H   0  0  0  0  0  0  0  0  0  0  0  0
    0.2650    3.2500    0.0224 H   0  0  0  0  0  0  0  0  0  0  0  0
    0.7362    2.2892    1.8651 C   0  0  0  0  0  0  0  0  0  0  0  0
    1.1621    1.3536    2.2272 H   0  0  0  0  0  0  0  0  0  0  0  0
    1.4024    3.1051    2.1464 H   0  0  0  0  0  0  0  0  0  0  0  0
   -0.2372    2.4504    2.3298 H   0  0  0  0  0  0  0  0  0  0  0  0
    0.3833   -0.0008    1.9525 C   0  0  0  0  0  0  0  0  0  0  0  0
    1.5803   -0.2304    2.1189 O   0  0  0  0  0  0  0  0  0  0  0  0
   -0.4170    0.3858    2.9541 N   0  0  0  0  0  0  0  0  0  0  0  0
   -1.3850    0.5669    2.7398 H   0  0  0  0  0  0  0  0  0  0  0  0
    0.0265    0.5600    4.3358 C   0  0  0  0  0  0  0  0  0  0  0  0
    0.8964    1.2200    4.3632 H   0  0  0  0  0  0  0  0  0  0  0  0
   -0.7726    0.9946    4.9382 H   0  0  0  0  0  0  0  0  0  0  0  0
    0.3119   -0.4069    4.7547 H   0  0  0  0  0  0  0  0  0  0  0  0
  5  6  2  0  0  0  0
  5  7  1  0  0  0  0
  2  3  1  0  0  0  0
  2  4  1  0  0  0  0
  2  5  1  0  0  0  0
  1  2  1  0  0  0  0
 24 25  2  0  0  0  0
 24 26  1  0  0  0  0
 20 21  1  0  0  0  0
 20 22  1  0  0  0  0
 20 23  1  0  0  0  0
 17 18  1  0  0  0  0
 17 19  1  0  0  0  0
 17 20  1  0  0  0  0
 13 14  1  0  0  0  0
 13 15  1  0  0  0  0
 13 16  1  0  0  0  0
 11 12  1  0  0  0  0
 11 13  1  0  0  0  0
 11 17  1  0  0  0  0
  9 10  1  0  0  0  0
  9 11  1  0  0  0  0
  9 24  1  0  0  0  0
  7  8  1  0  0  0  0
  7  9  1  0  0  0  0
 28 29  1  0  0  0  0
 28 30  1  0  0  0  0
 28 31  1  0  0  0  0
 26 27  1  0  0  0  0
 26 28  1  0  0  0  0
M  END
$$$$
default_name
  -OEChem-02102213163D

 31 30  0     1  0  0  0  0  0999 V2000
   -3.0760   -3.6390    1.5496 H   0  0  0  0  0  0  0  0  0  0  0  0
   -3.0940   -2.6290    1.1426 C   0  0  0  0  0  0  0  0  0  0  0  0
   -3.7160   -1.9930    1.7706 H   0  0  0  0  0  0  0  0  0  0  0  0
   -3.4880   -2.6500    0.1286 H   0  0  0  0  0  0  0  0  0  0  0  0
   -1.6860   -2.0850    1.1196 C   0  0  0  0  0  0  0  0  0  0  0  0
   -0.7540   -2.7700    1.5226 O   0  0  0  0  0  0  0  0  0  0  0  0
   -1.5320   -0.8490    0.6496 N   0  0  0  0  0  0  0  0  0  0  0  0
   -2.3500   -0.3360    0.3566 H   0  0  0  0  0  0  0  0  0  0  0  0
   -0.2470   -0.1410    0.5576 C   0  0  1  0  0  0  0  0  0  0  0  0
    0.4239   -0.7541   -0.0450 H   0  0  0  0  0  0  0  0  0  0  0  0
   -0.4317    1.2160   -0.1683 C   0  0  1  0  0  0  0  0  0  0  0  0
   -0.2252    1.0453   -1.2266 H   0  0  0  0  0  0  0  0  0  0  0  0
   -1.8706    1.7543   -0.0524 C   0  0  0  0  0  0  0  0  0  0  0  0
   -2.1015    2.0132    0.9825 H   0  0  0  0  0  0  0  0  0  0  0  0
   -1.9953    2.6378   -0.6764 H   0  0  0  0  0  0  0  0  0  0  0  0
   -2.5827    1.0023   -0.3941 H   0  0  0  0  0  0  0  0  0  0  0  0
    0.5902    2.2587    0.3377 C   0  0  0  0  0  0  0  0  0  0  0  0
    1.4842    2.2372   -0.2870 H   0  0  0  0  0  0  0  0  0  0  0  0
    0.1449    3.2507    0.2635 H   0  0  0  0  0  0  0  0  0  0  0  0
    1.0093    2.0533    1.7997 C   0  0  0  0  0  0  0  0  0  0  0  0
    1.5580    1.1184    1.9124 H   0  0  0  0  0  0  0  0  0  0  0  0
    1.6571    2.8746    2.1068 H   0  0  0  0  0  0  0  0  0  0  0  0
    0.1279    2.0382    2.4418 H   0  0  0  0  0  0  0  0  0  0  0  0
    0.3833   -0.0008    1.9525 C   0  0  0  0  0  0  0  0  0  0  0  0
    1.5803   -0.2304    2.1189 O   0  0  0  0  0  0  0  0  0  0  0  0
   -0.4170    0.3858    2.9541 N   0  0  0  0  0  0  0  0  0  0  0  0
   -1.3850    0.5669    2.7398 H   0  0  0  0  0  0  0  0  0  0  0  0
    0.0265    0.5600    4.3358 C   0  0  0  0  0  0  0  0  0  0  0  0
    0.8964    1.2200    4.3632 H   0  0  0  0  0  0  0  0  0  0  0  0
   -0.7726    0.9946    4.9382 H   0  0  0  0  0  0  0  0  0  0  0  0
    0.3119   -0.4069    4.7547 H   0  0  0  0  0  0  0  0  0  0  0  0
  5  6  2  0  0  0  0
  5  7  1  0  0  0  0
  2  3  1  0  0  0  0
  2  4  1  0  0  0  0
  2  5  1  0  0  0  0
  1  2  1  0  0  0  0
 24 25  2  0  0  0  0
 24 26  1  0  0  0  0
 20 21  1  0  0  0  0
 20 22  1  0  0  0  0
 20 23  1  0  0  0  0
 17 18  1  0  0  0  0
 17 19  1  0  0  0  0
 17 20  1  0  0  0  0
 13 14  1  0  0  0  0
 13 15  1  0  0  0  0
 13 16  1  0  0  0  0
 11 12  1  0  0  0  0
 11 13  1  0  0  0  0
 11 17  1  0  0  0  0
  9 10  1  0  0  0  0
  9 11  1  0  0  0  0
  9 24  1  0  0  0  0
  7  8  1  0  0  0  0
  7  9  1  0  0  0  0
 28 29  1  0  0  0  0
 28 30  1  0  0  0  0
 28 31  1  0  0  0  0
 26 27  1  0  0  0  0
 26 28  1  0  0  0  0
M  END
$$$$
default_name
  -OEChem-02102213163D

 31 30  0     1  0  0  0  0  0999 V2000
   -3.0760   -3.6390    1.5496 H   0  0  0  0  0  0  0  0  0  0  0  0
   -3.0940   -2.6290    1.1426 C   0  0  0  0  0  0  0  0  0  0  0  0
   -3.7160   -1.9930    1.7706 H   0  0  0  0  0  0  0  0  0  0  0  0
   -3.4880   -2.6500    0.1286 H   0  0  0  0  0  0  0  0  0  0  0  0
   -1.6860   -2.0850    1.1196 C   0  0  0  0  0  0  0  0  0  0  0  0
   -0.7540   -2.7700    1.5226 O   0  0  0  0  0  0  0  0  0  0  0  0
   -1.5320   -0.8490    0.6496 N   0  0  0  0  0  0  0  0  0  0  0  0
   -2.3500   -0.3360    0.3566 H   0  0  0  0  0  0  0  0  0  0  0  0
   -0.2470   -0.1410    0.5576 C   0  0  1  0  0  0  0  0  0  0  0  0
    0.4239   -0.7541   -0.0450 H   0  0  0  0  0  0  0  0  0  0  0  0
   -0.4317    1.2160   -0.1683 C   0  0  1  0  0  0  0  0  0  0  0  0
   -0.2252    1.0453   -1.2266 H   0  0  0  0  0  0  0  0  0  0  0  0
   -1.8706    1.7543   -0.0524 C   0  0  0  0  0  0  0  0  0  0  0  0
   -2.1015    2.0132    0.9825 H   0  0  0  0  0  0  0  0  0  0  0  0
   -1.9953    2.6378   -0.6764 H   0  0  0  0  0  0  0  0  0  0  0  0
   -2.5827    1.0023   -0.3941 H   0  0  0  0  0  0  0  0  0  0  0  0
    0.5902    2.2587    0.3377 C   0  0  0  0  0  0  0  0  0  0  0  0
    1.3548    2.4292   -0.4213 H   0  0  0  0  0  0  0  0  0  0  0  0
    0.0709    3.1999    0.5175 H   0  0  0  0  0  0  0  0  0  0  0  0
    1.2817    1.8597    1.6484 C   0  0  0  0  0  0  0  0  0  0  0  0
    1.9054    0.9786    1.4988 H   0  0  0  0  0  0  0  0  0  0  0  0
    1.9159    2.6804    1.9845 H   0  0  0  0  0  0  0  0  0  0  0  0
    0.5352    1.6518    2.4158 H   0  0  0  0  0  0  0  0  0  0  0  0
    0.3833   -0.0008    1.9525 C   0  0  0  0  0  0  0  0  0  0  0  0
    1.5803   -0.2304    2.1189 O   0  0  0  0  0  0  0  0  0  0  0  0
   -0.4170    0.3858    2.9541 N   0  0  0  0  0  0  0  0  0  0  0  0
   -1.3850    0.5669    2.7398 H   0  0  0  0  0  0  0  0  0  0  0  0
    0.0265    0.5600    4.3358 C   0  0  0  0  0  0  0  0  0  0  0  0
    0.8964    1.2200    4.3632 H   0  0  0  0  0  0  0  0  0  0  0  0
   -0.7726    0.9946    4.9382 H   0  0  0  0  0  0  0  0  0  0  0  0
    0.3119   -0.4069    4.7547 H   0  0  0  0  0  0  0  0  0  0  0  0
  5  6  2  0  0  0  0
  5  7  1  0  0  0  0
  2  3  1  0  0  0  0
  2  4  1  0  0  0  0
  2  5  1  0  0  0  0
  1  2  1  0  0  0  0
 24 25  2  0  0  0  0
 24 26  1  0  0  0  0
 20 21  1  0  0  0  0
 20 22  1  0  0  0  0
 20 23  1  0  0  0  0
 17 18  1  0  0  0  0
 17 19  1  0  0  0  0
 17 20  1  0  0  0  0
 13 14  1  0  0  0  0
 13 15  1  0  0  0  0
 13 16  1  0  0  0  0
 11 12  1  0  0  0  0
 11 13  1  0  0  0  0
 11 17  1  0  0  0  0
  9 10  1  0  0  0  0
  9 11  1  0  0  0  0
  9 24  1  0  0  0  0
  7  8  1  0  0  0  0
  7  9  1  0  0  0  0
 28 29  1  0  0  0  0
 28 30  1  0  0  0  0
 28 31  1  0  0  0  0
 26 27  1  0  0  0  0
 26 28  1  0  0  0  0
M  END
$$$$
default_name
  -OEChem-02102213163D

 31 30  0     1  0  0  0  0  0999 V2000
   -3.0760   -3.6390    1.5496 H   0  0  0  0  0  0  0  0  0  0  0  0
   -3.0940   -2.6290    1.1426 C   0  0  0  0  0  0  0  0  0  0  0  0
   -3.7160   -1.9930    1.7706 H   0  0  0  0  0  0  0  0  0  0  0  0
   -3.4880   -2.6500    0.1286 H   0  0  0  0  0  0  0  0  0  0  0  0
   -1.6860   -2.0850    1.1196 C   0  0  0  0  0  0  0  0  0  0  0  0
   -0.7540   -2.7700    1.5226 O   0  0  0  0  0  0  0  0  0  0  0  0
   -1.5320   -0.8490    0.6496 N   0  0  0  0  0  0  0  0  0  0  0  0
   -2.3500   -0.3360    0.3566 H   0  0  0  0  0  0  0  0  0  0  0  0
   -0.2470   -0.1410    0.5576 C   0  0  1  0  0  0  0  0  0  0  0  0
    0.4239   -0.7541   -0.0450 H   0  0  0  0  0  0  0  0  0  0  0  0
   -0.4317    1.2160   -0.1683 C   0  0  1  0  0  0  0  0  0  0  0  0
   -0.2252    1.0453   -1.2266 H   0  0  0  0  0  0  0  0  0  0  0  0
   -1.8706    1.7543   -0.0524 C   0  0  0  0  0  0  0  0  0  0  0  0
   -2.1015    2.0132    0.9825 H   0  0  0  0  0  0  0  0  0  0  0  0
   -1.9953    2.6378   -0.6764 H   0  0  0  0  0  0  0  0  0  0  0  0
   -2.5827    1.0023   -0.3941 H   0  0  0  0  0  0  0  0  0  0  0  0
    0.5902    2.2587    0.3377 C   0  0  0  0  0  0  0  0  0  0  0  0
    1.1901    2.6267   -0.4957 H   0  0  0  0  0  0  0  0  0  0  0  0
    0.0481    3.1011    0.7671 H   0  0  0  0  0  0  0  0  0  0  0  0
    1.5348    1.7218    1.4216 C   0  0  0  0  0  0  0  0  0  0  0  0
    2.1806    0.9439    1.0148 H   0  0  0  0  0  0  0  0  0  0  0  0
    2.1609    2.5356    1.7881 H   0  0  0  0  0  0  0  0  0  0  0  0
    0.9567    1.3175    2.2533 H   0  0  0  0  0  0  0  0  0  0  0  0
    0.3833   -0.0008    1.9525 C   0  0  0  0  0  0  0  0  0  0  0  0
    1.5803   -0.2304    2.1189 O   0  0  0  0  0  0  0  0  0  0  0  0
   -0.4170    0.3858    2.9541 N   0  0  0  0  0  0  0  0  0  0  0  0
   -1.3850    0.5669    2.7398 H   0  0  0  0  0  0  0  0  0  0  0  0
    0.0265    0.5600    4.3358 C   0  0  0  0  0  0  0  0  0  0  0  0
    0.8964    1.2200    4.3632 H   0  0  0  0  0  0  0  0  0  0  0  0
   -0.7726    0.9946    4.9382 H   0  0  0  0  0  0  0  0  0  0  0  0
    0.3119   -0.4069    4.7547 H   0  0  0  0  0  0  0  0  0  0  0  0
  5  6  2  0  0  0  0
  5  7  1  0  0  0  0
  2  3  1  0  0  0  0
  2  4  1  0  0  0  0
  2  5  1  0  0  0  0
  1  2  1  0  0  0  0
 24 25  2  0  0  0  0
 24 26  1  0  0  0  0
 20 21  1  0  0  0  0
 20 22  1  0  0  0  0
 20 23  1  0  0  0  0
 17 18  1  0  0  0  0
 17 19  1  0  0  0  0
 17 20  1  0  0  0  0
 13 14  1  0  0  0  0
 13 15  1  0  0  0  0
 13 16  1  0  0  0  0
 11 12  1  0  0  0  0
 11 13  1  0  0  0  0
 11 17  1  0  0  0  0
  9 10  1  0  0  0  0
  9 11  1  0  0  0  0
  9 24  1  0  0  0  0
  7  8  1  0  0  0  0
  7  9  1  0  0  0  0
 28 29  1  0  0  0  0
 28 30  1  0  0  0  0
 28 31  1  0  0  0  0
 26 27  1  0  0  0  0
 26 28  1  0  0  0  0
M  END
$$$$
default_name
  -OEChem-02102213163D

 31 30  0     1  0  0  0  0  0999 V2000
   -3.0760   -3.6390    1.5496 H   0  0  0  0  0  0  0  0  0  0  0  0
   -3.0940   -2.6290    1.1426 C   0  0  0  0  0  0  0  0  0  0  0  0
   -3.7160   -1.9930    1.7706 H   0  0  0  0  0  0  0  0  0  0  0  0
   -3.4880   -2.6500    0.1286 H   0  0  0  0  0  0  0  0  0  0  0  0
   -1.6860   -2.0850    1.1196 C   0  0  0  0  0  0  0  0  0  0  0  0
   -0.7540   -2.7700    1.5226 O   0  0  0  0  0  0  0  0  0  0  0  0
   -1.5320   -0.8490    0.6496 N   0  0  0  0  0  0  0  0  0  0  0  0
   -2.3500   -0.3360    0.3566 H   0  0  0  0  0  0  0  0  0  0  0  0
   -0.2470   -0.1410    0.5576 C   0  0  1  0  0  0  0  0  0  0  0  0
    0.4239   -0.7541   -0.0450 H   0  0  0  0  0  0  0  0  0  0  0  0
   -0.4317    1.2160   -0.1683 C   0  0  1  0  0  0  0  0  0  0  0  0
   -0.2252    1.0453   -1.2266 H   0  0  0  0  0  0  0  0  0  0  0  0
   -1.8706    1.7543   -0.0524 C   0  0  0  0  0  0  0  0  0  0  0  0
   -2.1015    2.0132    0.9825 H   0  0  0  0  0  0  0  0  0  0  0  0
   -1.9953    2.6378   -0.6764 H   0  0  0  0  0  0  0  0  0  0  0  0
   -2.5827    1.0023   -0.3941 H   0  0  0  0  0  0  0  0  0  0  0  0
    0.5902    2.2587    0.3377 C   0  0  0  0  0  0  0  0  0  0  0  0
    1.0013    2.8162   -0.5049 H   0  0  0  0  0  0  0  0  0  0  0  0
    0.0781    2.9610    0.9953 H   0  0  0  0  0  0  0  0  0  0  0  0
    1.7513    1.6488    1.1347 C   0  0  0  0  0  0  0  0  0  0  0  0
    2.3648    1.0165    0.4932 H   0  0  0  0  0  0  0  0  0  0  0  0
    2.3755    2.4501    1.5307 H   0  0  0  0  0  0  0  0  0  0  0  0
    1.3638    1.0581    1.9655 H   0  0  0  0  0  0  0  0  0  0  0  0
    0.3833   -0.0008    1.9525 C   0  0  0  0  0  0  0  0  0  0  0  0
    1.5803   -0.2304    2.1189 O   0  0  0  0  0  0  0  0  0  0  0  0
   -0.4170    0.3858    2.9541 N   0  0  0  0  0  0  0  0  0  0  0  0
   -1.3850    0.5669    2.7398 H   0  0  0  0  0  0  0  0  0  0  0  0
    0.0265    0.5600    4.3358 C   0  0  0  0  0  0  0  0  0  0  0  0
    0.8964    1.2200    4.3632 H   0  0  0  0  0  0  0  0  0  0  0  0
   -0.7726    0.9946    4.9382 H   0  0  0  0  0  0  0  0  0  0  0  0
    0.3119   -0.4069    4.7547 H   0  0  0  0  0  0  0  0  0  0  0  0
  5  6  2  0  0  0  0
  5  7  1  0  0  0  0
  2  3  1  0  0  0  0
  2  4  1  0  0  0  0
  2  5  1  0  0  0  0
  1  2  1  0  0  0  0
 24 25  2  0  0  0  0
 24 26  1  0  0  0  0
 20 21  1  0  0  0  0
 20 22  1  0  0  0  0
 20 23  1  0  0  0  0
 17 18  1  0  0  0  0
 17 19  1  0  0  0  0
 17 20  1  0  0  0  0
 13 14  1  0  0  0  0
 13 15  1  0  0  0  0
 13 16  1  0  0  0  0
 11 12  1  0  0  0  0
 11 13  1  0  0  0  0
 11 17  1  0  0  0  0
  9 10  1  0  0  0  0
  9 11  1  0  0  0  0
  9 24  1  0  0  0  0
  7  8  1  0  0  0  0
  7  9  1  0  0  0  0
 28 29  1  0  0  0  0
 28 30  1  0  0  0  0
 28 31  1  0  0  0  0
 26 27  1  0  0  0  0
 26 28  1  0  0  0  0
M  END
$$$$
default_name
  -OEChem-02102213163D

 31 30  0     1  0  0  0  0  0999 V2000
   -3.0760   -3.6390    1.5496 H   0  0  0  0  0  0  0  0  0  0  0  0
   -3.0940   -2.6290    1.1426 C   0  0  0  0  0  0  0  0  0  0  0  0
   -3.7160   -1.9930    1.7706 H   0  0  0  0  0  0  0  0  0  0  0  0
   -3.4880   -2.6500    0.1286 H   0  0  0  0  0  0  0  0  0  0  0  0
   -1.6860   -2.0850    1.1196 C   0  0  0  0  0  0  0  0  0  0  0  0
   -0.7540   -2.7700    1.5226 O   0  0  0  0  0  0  0  0  0  0  0  0
   -1.5320   -0.8490    0.6496 N   0  0  0  0  0  0  0  0  0  0  0  0
   -2.3500   -0.3360    0.3566 H   0  0  0  0  0  0  0  0  0  0  0  0
   -0.2470   -0.1410    0.5576 C   0  0  1  0  0  0  0  0  0  0  0  0
    0.4239   -0.7541   -0.0450 H   0  0  0  0  0  0  0  0  0  0  0  0
   -0.4317    1.2160   -0.1683 C   0  0  1  0  0  0  0  0  0  0  0  0
   -0.2252    1.0453   -1.2266 H   0  0  0  0  0  0  0  0  0  0  0  0
   -1.8706    1.7543   -0.0524 C   0  0  0  0  0  0  0  0  0  0  0  0
   -2.1015    2.0132    0.9825 H   0  0  0  0  0  0  0  0  0  0  0  0
   -1.9953    2.6378   -0.6764 H   0  0  0  0  0  0  0  0  0  0  0  0
   -2.5827    1.0023   -0.3941 H   0  0  0  0  0  0  0  0  0  0  0  0
    0.5902    2.2587    0.3377 C   0  0  0  0  0  0  0  0  0  0  0  0
    0.8013    2.9848   -0.4484 H   0  0  0  0  0  0  0  0  0  0  0  0
    0.1588    2.7892    1.1865 H   0  0  0  0  0  0  0  0  0  0  0  0
    1.9165    1.6458    0.8073 C   0  0  0  0  0  0  0  0  0  0  0  0
    2.4455    1.1915   -0.0304 H   0  0  0  0  0  0  0  0  0  0  0  0
    2.5452    2.4298    1.2300 H   0  0  0  0  0  0  0  0  0  0  0  0
    1.7288    0.8914    1.5721 H   0  0  0  0  0  0  0  0  0  0  0  0
    0.3833   -0.0008    1.9525 C   0  0  0  0  0  0  0  0  0  0  0  0
    1.5803   -0.2304    2.1189 O   0  0  0  0  0  0  0  0  0  0  0  0
   -0.4170    0.3858    2.9541 N   0  0  0  0  0  0  0  0  0  0  0  0
   -1.3850    0.5669    2.7398 H   0  0  0  0  0  0  0  0  0  0  0  0
    0.0265    0.5600    4.3358 C   0  0  0  0  0  0  0  0  0  0  0  0
    0.8964    1.2200    4.3632 H   0  0  0  0  0  0  0  0  0  0  0  0
   -0.7726    0.9946    4.9382 H   0  0  0  0  0  0  0  0  0  0  0  0
    0.3119   -0.4069    4.7547 H   0  0  0  0  0  0  0  0  0  0  0  0
  5  6  2  0  0  0  0
  5  7  1  0  0  0  0
  2  3  1  0  0  0  0
  2  4  1  0  0  0  0
  2  5  1  0  0  0  0
  1  2  1  0  0  0  0
 24 25  2  0  0  0  0
 24 26  1  0  0  0  0
 20 21  1  0  0  0  0
 20 22  1  0  0  0  0
 20 23  1  0  0  0  0
 17 18  1  0  0  0  0
 17 19  1  0  0  0  0
 17 20  1  0  0  0  0
 13 14  1  0  0  0  0
 13 15  1  0  0  0  0
 13 16  1  0  0  0  0
 11 12  1  0  0  0  0
 11 13  1  0  0  0  0
 11 17  1  0  0  0  0
  9 10  1  0  0  0  0
  9 11  1  0  0  0  0
  9 24  1  0  0  0  0
  7  8  1  0  0  0  0
  7  9  1  0  0  0  0
 28 29  1  0  0  0  0
 28 30  1  0  0  0  0
 28 31  1  0  0  0  0
 26 27  1  0  0  0  0
 26 28  1  0  0  0  0
M  END
$$$$
default_name
  -OEChem-02102213163D

 31 30  0     1  0  0  0  0  0999 V2000
   -3.0760   -3.6390    1.5496 H   0  0  0  0  0  0  0  0  0  0  0  0
   -3.0940   -2.6290    1.1426 C   0  0  0  0  0  0  0  0  0  0  0  0
   -3.7160   -1.9930    1.7706 H   0  0  0  0  0  0  0  0  0  0  0  0
   -3.4880   -2.6500    0.1286 H   0  0  0  0  0  0  0  0  0  0  0  0
   -1.6860   -2.0850    1.1196 C   0  0  0  0  0  0  0  0  0  0  0  0
   -0.7540   -2.7700    1.5226 O   0  0  0  0  0  0  0  0  0  0  0  0
   -1.5320   -0.8490    0.6496 N   0  0  0  0  0  0  0  0  0  0  0  0
   -2.3500   -0.3360    0.3566 H   0  0  0  0  0  0  0  0  0  0  0  0
   -0.2470   -0.1410    0.5576 C   0  0  1  0  0  0  0  0  0  0  0  0
    0.4239   -0.7541   -0.0450 H   0  0  0  0  0  0  0  0  0  0  0  0
   -0.4317    1.2160   -0.1683 C   0  0  1  0  0  0  0  0  0  0  0  0
   -0.2252    1.0453   -1.2266 H   0  0  0  0  0  0  0  0  0  0  0  0
   -1.8706    1.7543   -0.0524 C   0  0  0  0  0  0  0  0  0  0  0  0
   -2.1015    2.0132    0.9825 H   0  0  0  0  0  0  0  0  0  0  0  0
   -1.9953    2.6378   -0.6764 H   0  0  0  0  0  0  0  0  0  0  0  0
   -2.5827    1.0023   -0.3941 H   0  0  0  0  0  0  0  0  0  0  0  0
    0.5902    2.2587    0.3377 C   0  0  0  0  0  0  0  0  0  0  0  0
    0.6036    3.1211   -0.3301 H   0  0  0  0  0  0  0  0  0  0  0  0
    0.2846    2.5973    1.3276 H   0  0  0  0  0  0  0  0  0  0  0  0
    2.0192    1.7129    0.4616 C   0  0  0  0  0  0  0  0  0  0  0  0
    2.4171    1.4570   -0.5202 H   0  0  0  0  0  0  0  0  0  0  0  0
    2.6582    2.4761    0.9064 H   0  0  0  0  0  0  0  0  0  0  0  0
    2.0268    0.8286    1.0997 H   0  0  0  0  0  0  0  0  0  0  0  0
    0.3833   -0.0008    1.9525 C   0  0  0  0  0  0  0  0  0  0  0  0
    1.5803   -0.2304    2.1189 O   0  0  0  0  0  0  0  0  0  0  0  0
   -0.4170    0.3858    2.9541 N   0  0  0  0  0  0  0  0  0  0  0  0
   -1.3850    0.5669    2.7398 H   0  0  0  0  0  0  0  0  0  0  0  0
    0.0265    0.5600    4.3358 C   0  0  0  0  0  0  0  0  0  0  0  0
    0.8964    1.2200    4.3632 H   0  0  0  0  0  0  0  0  0  0  0  0
   -0.7726    0.9946    4.9382 H   0  0  0  0  0  0  0  0  0  0  0  0
    0.3119   -0.4069    4.7547 H   0  0  0  0  0  0  0  0  0  0  0  0
  5  6  2  0  0  0  0
  5  7  1  0  0  0  0
  2  3  1  0  0  0  0
  2  4  1  0  0  0  0
  2  5  1  0  0  0  0
  1  2  1  0  0  0  0
 24 25  2  0  0  0  0
 24 26  1  0  0  0  0
 20 21  1  0  0  0  0
 20 22  1  0  0  0  0
 20 23  1  0  0  0  0
 17 18  1  0  0  0  0
 17 19  1  0  0  0  0
 17 20  1  0  0  0  0
 13 14  1  0  0  0  0
 13 15  1  0  0  0  0
 13 16  1  0  0  0  0
 11 12  1  0  0  0  0
 11 13  1  0  0  0  0
 11 17  1  0  0  0  0
  9 10  1  0  0  0  0
  9 11  1  0  0  0  0
  9 24  1  0  0  0  0
  7  8  1  0  0  0  0
  7  9  1  0  0  0  0
 28 29  1  0  0  0  0
 28 30  1  0  0  0  0
 28 31  1  0  0  0  0
 26 27  1  0  0  0  0
 26 28  1  0  0  0  0
M  END
$$$$
default_name
  -OEChem-02102213163D

 31 30  0     1  0  0  0  0  0999 V2000
   -3.0760   -3.6390    1.5496 H   0  0  0  0  0  0  0  0  0  0  0  0
   -3.0940   -2.6290    1.1426 C   0  0  0  0  0  0  0  0  0  0  0  0
   -3.7160   -1.9930    1.7706 H   0  0  0  0  0  0  0  0  0  0  0  0
   -3.4880   -2.6500    0.1286 H   0  0  0  0  0  0  0  0  0  0  0  0
   -1.6860   -2.0850    1.1196 C   0  0  0  0  0  0  0  0  0  0  0  0
   -0.7540   -2.7700    1.5226 O   0  0  0  0  0  0  0  0  0  0  0  0
   -1.5320   -0.8490    0.6496 N   0  0  0  0  0  0  0  0  0  0  0  0
   -2.3500   -0.3360    0.3566 H   0  0  0  0  0  0  0  0  0  0  0  0
   -0.2470   -0.1410    0.5576 C   0  0  1  0  0  0  0  0  0  0  0  0
    0.4239   -0.7541   -0.0450 H   0  0  0  0  0  0  0  0  0  0  0  0
   -0.4317    1.2160   -0.1683 C   0  0  1  0  0  0  0  0  0  0  0  0
   -0.2252    1.0453   -1.2266 H   0  0  0  0  0  0  0  0  0  0  0  0
   -1.8706    1.7543   -0.0524 C   0  0  0  0  0  0  0  0  0  0  0  0
   -2.1015    2.0132    0.9825 H   0  0  0  0  0  0  0  0  0  0  0  0
   -1.9953    2.6378   -0.6764 H   0  0  0  0  0  0  0  0  0  0  0  0
   -2.5827    1.0023   -0.3941 H   0  0  0  0  0  0  0  0  0  0  0  0
    0.5902    2.2587    0.3377 C   0  0  0  0  0  0  0  0  0  0  0  0
    0.4218    3.2157   -0.1579 H   0  0  0  0  0  0  0  0  0  0  0  0
    0.4471    2.3985    1.4092 H   0  0  0  0  0  0  0  0  0  0  0  0
    2.0523    1.8456    0.1213 C   0  0  0  0  0  0  0  0  0  0  0  0
    2.2817    1.7949   -0.9430 H   0  0  0  0  0  0  0  0  0  0  0  0
    2.7070    2.5857    0.5820 H   0  0  0  0  0  0  0  0  0  0  0  0
    2.2374    0.8740    0.5807 H   0  0  0  0  0  0  0  0  0  0  0  0
    0.3833   -0.0008    1.9525 C   0  0  0  0  0  0  0  0  0  0  0  0
    1.5803   -0.2304    2.1189 O   0  0  0  0  0  0  0  0  0  0  0  0
   -0.4170    0.3858    2.9541 N   0  0  0  0  0  0  0  0  0  0  0  0
   -1.3850    0.5669    2.7398 H   0  0  0  0  0  0  0  0  0  0  0  0
    0.0265    0.5600    4.3358 C   0  0  0  0  0  0  0  0  0  0  0  0
    0.8964    1.2200    4.3632 H   0  0  0  0  0  0  0  0  0  0  0  0
   -0.7726    0.9946    4.9382 H   0  0  0  0  0  0  0  0  0  0  0  0
    0.3119   -0.4069    4.7547 H   0  0  0  0  0  0  0  0  0  0  0  0
  5  6  2  0  0  0  0
  5  7  1  0  0  0  0
  2  3  1  0  0  0  0
  2  4  1  0  0  0  0
  2  5  1  0  0  0  0
  1  2  1  0  0  0  0
 24 25  2  0  0  0  0
 24 26  1  0  0  0  0
 20 21  1  0  0  0  0
 20 22  1  0  0  0  0
 20 23  1  0  0  0  0
 17 18  1  0  0  0  0
 17 19  1  0  0  0  0
 17 20  1  0  0  0  0
 13 14  1  0  0  0  0
 13 15  1  0  0  0  0
 13 16  1  0  0  0  0
 11 12  1  0  0  0  0
 11 13  1  0  0  0  0
 11 17  1  0  0  0  0
  9 10  1  0  0  0  0
  9 11  1  0  0  0  0
  9 24  1  0  0  0  0
  7  8  1  0  0  0  0
  7  9  1  0  0  0  0
 28 29  1  0  0  0  0
 28 30  1  0  0  0  0
 28 31  1  0  0  0  0
 26 27  1  0  0  0  0
 26 28  1  0  0  0  0
M  END
$$$$
default_name
  -OEChem-02102213163D

 31 30  0     1  0  0  0  0  0999 V2000
   -3.0760   -3.6390    1.5496 H   0  0  0  0  0  0  0  0  0  0  0  0
   -3.0940   -2.6290    1.1426 C   0  0  0  0  0  0  0  0  0  0  0  0
   -3.7160   -1.9930    1.7706 H   0  0  0  0  0  0  0  0  0  0  0  0
   -3.4880   -2.6500    0.1286 H   0  0  0  0  0  0  0  0  0  0  0  0
   -1.6860   -2.0850    1.1196 C   0  0  0  0  0  0  0  0  0  0  0  0
   -0.7540   -2.7700    1.5226 O   0  0  0  0  0  0  0  0  0  0  0  0
   -1.5320   -0.8490    0.6496 N   0  0  0  0  0  0  0  0  0  0  0  0
   -2.3500   -0.3360    0.3566 H   0  0  0  0  0  0  0  0  0  0  0  0
   -0.2470   -0.1410    0.5576 C   0  0  1  0  0  0  0  0  0  0  0  0
    0.4239   -0.7541   -0.0450 H   0  0  0  0  0  0  0  0  0  0  0  0
   -0.4317    1.2160   -0.1683 C   0  0  1  0  0  0  0  0  0  0  0  0
   -0.2252    1.0453   -1.2266 H   0  0  0  0  0  0  0  0  0  0  0  0
   -1.8706    1.7543   -0.0524 C   0  0  0  0  0  0  0  0  0  0  0  0
   -2.1015    2.0132    0.9825 H   0  0  0  0  0  0  0  0  0  0  0  0
   -1.9953    2.6378   -0.6764 H   0  0  0  0  0  0  0  0  0  0  0  0
   -2.5827    1.0023   -0.3941 H   0  0  0  0  0  0  0  0  0  0  0  0
    0.5902    2.2587    0.3377 C   0  0  0  0  0  0  0  0  0  0  0  0
    0.2683    3.2622    0.0564 H   0  0  0  0  0  0  0  0  0  0  0  0
    0.6352    2.2063    1.4255 H   0  0  0  0  0  0  0  0  0  0  0  0
    2.0136    2.0349   -0.1906 C   0  0  0  0  0  0  0  0  0  0  0  0
    2.0484    2.1822   -1.2698 H   0  0  0  0  0  0  0  0  0  0  0  0
    2.6881    2.7513    0.2790 H   0  0  0  0  0  0  0  0  0  0  0  0
    2.3464    1.0246    0.0503 H   0  0  0  0  0  0  0  0  0  0  0  0
    0.3833   -0.0008    1.9525 C   0  0  0  0  0  0  0  0  0  0  0  0
    1.5803   -0.2304    2.1189 O   0  0  0  0  0  0  0  0  0  0  0  0
   -0.4170    0.3858    2.9541 N   0  0  0  0  0  0  0  0  0  0  0  0
   -1.3850    0.5669    2.7398 H   0  0  0  0  0  0  0  0  0  0  0  0
    0.0265    0.5600    4.3358 C   0  0  0  0  0  0  0  0  0  0  0  0
    0.8964    1.2200    4.3632 H   0  0  0  0  0  0  0  0  0  0  0  0
   -0.7726    0.9946    4.9382 H   0  0  0  0  0  0  0  0  0  0  0  0
    0.3119   -0.4069    4.7547 H   0  0  0  0  0  0  0  0  0  0  0  0
  5  6  2  0  0  0  0
  5  7  1  0  0  0  0
  2  3  1  0  0  0  0
  2  4  1  0  0  0  0
  2  5  1  0  0  0  0
  1  2  1  0  0  0  0
 24 25  2  0  0  0  0
 24 26  1  0  0  0  0
 20 21  1  0  0  0  0
 20 22  1  0  0  0  0
 20 23  1  0  0  0  0
 17 18  1  0  0  0  0
 17 19  1  0  0  0  0
 17 20  1  0  0  0  0
 13 14  1  0  0  0  0
 13 15  1  0  0  0  0
 13 16  1  0  0  0  0
 11 12  1  0  0  0  0
 11 13  1  0  0  0  0
 11 17  1  0  0  0  0
  9 10  1  0  0  0  0
  9 11  1  0  0  0  0
  9 24  1  0  0  0  0
  7  8  1  0  0  0  0
  7  9  1  0  0  0  0
 28 29  1  0  0  0  0
 28 30  1  0  0  0  0
 28 31  1  0  0  0  0
 26 27  1  0  0  0  0
 26 28  1  0  0  0  0
M  END
$$$$
default_name
  -OEChem-02102213163D

 31 30  0     1  0  0  0  0  0999 V2000
   -3.0760   -3.6390    1.5496 H   0  0  0  0  0  0  0  0  0  0  0  0
   -3.0940   -2.6290    1.1426 C   0  0  0  0  0  0  0  0  0  0  0  0
   -3.7160   -1.9930    1.7706 H   0  0  0  0  0  0  0  0  0  0  0  0
   -3.4880   -2.6500    0.1286 H   0  0  0  0  0  0  0  0  0  0  0  0
   -1.6860   -2.0850    1.1196 C   0  0  0  0  0  0  0  0  0  0  0  0
   -0.7540   -2.7700    1.5226 O   0  0  0  0  0  0  0  0  0  0  0  0
   -1.5320   -0.8490    0.6496 N   0  0  0  0  0  0  0  0  0  0  0  0
   -2.3500   -0.3360    0.3566 H   0  0  0  0  0  0  0  0  0  0  0  0
   -0.2470   -0.1410    0.5576 C   0  0  1  0  0  0  0  0  0  0  0  0
    0.4239   -0.7541   -0.0450 H   0  0  0  0  0  0  0  0  0  0  0  0
   -0.4317    1.2160   -0.1683 C   0  0  1  0  0  0  0  0  0  0  0  0
   -0.2252    1.0453   -1.2266 H   0  0  0  0  0  0  0  0  0  0  0  0
   -1.8706    1.7543   -0.0524 C   0  0  0  0  0  0  0  0  0  0  0  0
   -2.1015    2.0132    0.9825 H   0  0  0  0  0  0  0  0  0  0  0  0
   -1.9953    2.6378   -0.6764 H   0  0  0  0  0  0  0  0  0  0  0  0
   -2.5827    1.0023   -0.3941 H   0  0  0  0  0  0  0  0  0  0  0  0
    0.5902    2.2587    0.3377 C   0  0  0  0  0  0  0  0  0  0  0  0
    0.1534    3.2574    0.2981 H   0  0  0  0  0  0  0  0  0  0  0  0
    0.8360    2.0337    1.3755 H   0  0  0  0  0  0  0  0  0  0  0  0
    1.9057    2.2678   -0.4526 C   0  0  0  0  0  0  0  0  0  0  0  0
    1.7331    2.5924   -1.4785 H   0  0  0  0  0  0  0  0  0  0  0  0
    2.6029    2.9615    0.0179 H   0  0  0  0  0  0  0  0  0  0  0  0
    2.3463    1.2701   -0.4552 H   0  0  0  0  0  0  0  0  0  0  0  0
    0.3833   -0.0008    1.9525 C   0  0  0  0  0  0  0  0  0  0  0  0
    1.5803   -0.2304    2.1189 O   0  0  0  0  0  0  0  0  0  0  0  0
   -0.4170    0.3858    2.9541 N   0  0  0  0  0  0  0  0  0  0  0  0
   -1.3850    0.5669    2.7398 H   0  0  0  0  0  0  0  0  0  0  0  0
    0.0265    0.5600    4.3358 C   0  0  0  0  0  0  0  0  0  0  0  0
    0.8964    1.2200    4.3632 H   0  0  0  0  0  0  0  0  0  0  0  0
   -0.7726    0.9946    4.9382 H   0  0  0  0  0  0  0  0  0  0  0  0
    0.3119   -0.4069    4.7547 H   0  0  0  0  0  0  0  0  0  0  0  0
  5  6  2  0  0  0  0
  5  7  1  0  0  0  0
  2  3  1  0  0  0  0
  2  4  1  0  0  0  0
  2  5  1  0  0  0  0
  1  2  1  0  0  0  0
 24 25  2  0  0  0  0
 24 26  1  0  0  0  0
 20 21  1  0  0  0  0
 20 22  1  0  0  0  0
 20 23  1  0  0  0  0
 17 18  1  0  0  0  0
 17 19  1  0  0  0  0
 17 20  1  0  0  0  0
 13 14  1  0  0  0  0
 13 15  1  0  0  0  0
 13 16  1  0  0  0  0
 11 12  1  0  0  0  0
 11 13  1  0  0  0  0
 11 17  1  0  0  0  0
  9 10  1  0  0  0  0
  9 11  1  0  0  0  0
  9 24  1  0  0  0  0
  7  8  1  0  0  0  0
  7  9  1  0  0  0  0
 28 29  1  0  0  0  0
 28 30  1  0  0  0  0
 28 31  1  0  0  0  0
 26 27  1  0  0  0  0
 26 28  1  0  0  0  0
M  END
$$$$
default_name
  -OEChem-02102213163D

 31 30  0     1  0  0  0  0  0999 V2000
   -3.0760   -3.6390    1.5496 H   0  0  0  0  0  0  0  0  0  0  0  0
   -3.0940   -2.6290    1.1426 C   0  0  0  0  0  0  0  0  0  0  0  0
   -3.7160   -1.9930    1.7706 H   0  0  0  0  0  0  0  0  0  0  0  0
   -3.4880   -2.6500    0.1286 H   0  0  0  0  0  0  0  0  0  0  0  0
   -1.6860   -2.0850    1.1196 C   0  0  0  0  0  0  0  0  0  0  0  0
   -0.7540   -2.7700    1.5226 O   0  0  0  0  0  0  0  0  0  0  0  0
   -1.5320   -0.8490    0.6496 N   0  0  0  0  0  0  0  0  0  0  0  0
   -2.3500   -0.3360    0.3566 H   0  0  0  0  0  0  0  0  0  0  0  0
   -0.2470   -0.1410    0.5576 C   0  0  1  0  0  0  0  0  0  0  0  0
    0.4239   -0.7541   -0.0450 H   0  0  0  0  0  0  0  0  0  0  0  0
   -0.4317    1.2160   -0.1683 C   0  0  1  0  0  0  0  0  0  0  0  0
   -0.2252    1.0453   -1.2266 H   0  0  0  0  0  0  0  0  0  0  0  0
   -1.8706    1.7543   -0.0524 C   0  0  0  0  0  0  0  0  0  0  0  0
   -2.1015    2.0132    0.9825 H   0  0  0  0  0  0  0  0  0  0  0  0
   -1.9953    2.6378   -0.6764 H   0  0  0  0  0  0  0  0  0  0  0  0
   -2.5827    1.0023   -0.3941 H   0  0  0  0  0  0  0  0  0  0  0  0
    0.5902    2.2587    0.3377 C   0  0  0  0  0  0  0  0  0  0  0  0
    0.0851    3.2017    0.5509 H   0  0  0  0  0  0  0  0  0  0  0  0
    1.0358    1.8927    1.2626 H   0  0  0  0  0  0  0  0  0  0  0  0
    1.7360    2.5284   -0.6470 C   0  0  0  0  0  0  0  0  0  0  0  0
    1.3574    2.9977   -1.5548 H   0  0  0  0  0  0  0  0  0  0  0  0
    2.4572    3.2020   -0.1835 H   0  0  0  0  0  0  0  0  0  0  0  0
    2.2370    1.5938   -0.9015 H   0  0  0  0  0  0  0  0  0  0  0  0
    0.3833   -0.0008    1.9525 C   0  0  0  0  0  0  0  0  0  0  0  0
    1.5803   -0.2304    2.1189 O   0  0  0  0  0  0  0  0  0  0  0  0
   -0.4170    0.3858    2.9541 N   0  0  0  0  0  0  0  0  0  0  0  0
   -1.3850    0.5669    2.7398 H   0  0  0  0  0  0  0  0  0  0  0  0
    0.0265    0.5600    4.3358 C   0  0  0  0  0  0  0  0  0  0  0  0
    0.8964    1.2200    4.3632 H   0  0  0  0  0  0  0  0  0  0  0  0
   -0.7726    0.9946    4.9382 H   0  0  0  0  0  0  0  0  0  0  0  0
    0.3119   -0.4069    4.7547 H   0  0  0  0  0  0  0  0  0  0  0  0
  5  6  2  0  0  0  0
  5  7  1  0  0  0  0
  2  3  1  0  0  0  0
  2  4  1  0  0  0  0
  2  5  1  0  0  0  0
  1  2  1  0  0  0  0
 24 25  2  0  0  0  0
 24 26  1  0  0  0  0
 20 21  1  0  0  0  0
 20 22  1  0  0  0  0
 20 23  1  0  0  0  0
 17 18  1  0  0  0  0
 17 19  1  0  0  0  0
 17 20  1  0  0  0  0
 13 14  1  0  0  0  0
 13 15  1  0  0  0  0
 13 16  1  0  0  0  0
 11 12  1  0  0  0  0
 11 13  1  0  0  0  0
 11 17  1  0  0  0  0
  9 10  1  0  0  0  0
  9 11  1  0  0  0  0
  9 24  1  0  0  0  0
  7  8  1  0  0  0  0
  7  9  1  0  0  0  0
 28 29  1  0  0  0  0
 28 30  1  0  0  0  0
 28 31  1  0  0  0  0
 26 27  1  0  0  0  0
 26 28  1  0  0  0  0
M  END
$$$$
default_name
  -OEChem-02102213163D

 31 30  0     1  0  0  0  0  0999 V2000
   -3.0760   -3.6390    1.5496 H   0  0  0  0  0  0  0  0  0  0  0  0
   -3.0940   -2.6290    1.1426 C   0  0  0  0  0  0  0  0  0  0  0  0
   -3.7160   -1.9930    1.7706 H   0  0  0  0  0  0  0  0  0  0  0  0
   -3.4880   -2.6500    0.1286 H   0  0  0  0  0  0  0  0  0  0  0  0
   -1.6860   -2.0850    1.1196 C   0  0  0  0  0  0  0  0  0  0  0  0
   -0.7540   -2.7700    1.5226 O   0  0  0  0  0  0  0  0  0  0  0  0
   -1.5320   -0.8490    0.6496 N   0  0  0  0  0  0  0  0  0  0  0  0
   -2.3500   -0.3360    0.3566 H   0  0  0  0  0  0  0  0  0  0  0  0
   -0.2470   -0.1410    0.5576 C   0  0  1  0  0  0  0  0  0  0  0  0
    0.4239   -0.7541   -0.0450 H   0  0  0  0  0  0  0  0  0  0  0  0
   -0.4317    1.2160   -0.1683 C   0  0  1  0  0  0  0  0  0  0  0  0
   -0.2252    1.0453   -1.2266 H   0  0  0  0  0  0  0  0  0  0  0  0
   -1.8706    1.7543   -0.0524 C   0  0  0  0  0  0  0  0  0  0  0  0
   -2.1015    2.0132    0.9825 H   0  0  0  0  0  0  0  0  0  0  0  0
   -1.9953    2.6378   -0.6764 H   0  0  0  0  0  0  0  0  0  0  0  0
   -2.5827    1.0023   -0.3941 H   0  0  0  0  0  0  0  0  0  0  0  0
    0.5902    2.2587    0.3377 C   0  0  0  0  0  0  0  0  0  0  0  0
    0.0680    3.0988    0.7974 H   0  0  0  0  0  0  0  0  0  0  0  0
    1.2211    1.7927    1.0946 H   0  0  0  0  0  0  0  0  0  0  0  0
    1.5161    2.7991   -0.7605 C   0  0  0  0  0  0  0  0  0  0  0  0
    0.9468    3.3704   -1.4935 H   0  0  0  0  0  0  0  0  0  0  0  0
    2.2609    3.4564   -0.3114 H   0  0  0  0  0  0  0  0  0  0  0  0
    2.0261    1.9735   -1.2581 H   0  0  0  0  0  0  0  0  0  0  0  0
    0.3833   -0.0008    1.9525 C   0  0  0  0  0  0  0  0  0  0  0  0
    1.5803   -0.2304    2.1189 O   0  0  0  0  0  0  0  0  0  0  0  0
   -0.4170    0.3858    2.9541 N   0  0  0  0  0  0  0  0  0  0  0  0
   -1.3850    0.5669    2.7398 H   0  0  0  0  0  0  0  0  0  0  0  0
    0.0265    0.5600    4.3358 C   0  0  0  0  0  0  0  0  0  0  0  0
    0.8964    1.2200    4.3632 H   0  0  0  0  0  0  0  0  0  0  0  0
   -0.7726    0.9946    4.9382 H   0  0  0  0  0  0  0  0  0  0  0  0
    0.3119   -0.4069    4.7547 H   0  0  0  0  0  0  0  0  0  0  0  0
  5  6  2  0  0  0  0
  5  7  1  0  0  0  0
  2  3  1  0  0  0  0
  2  4  1  0  0  0  0
  2  5  1  0  0  0  0
  1  2  1  0  0  0  0
 24 25  2  0  0  0  0
 24 26  1  0  0  0  0
 20 21  1  0  0  0  0
 20 22  1  0  0  0  0
 20 23  1  0  0  0  0
 17 18  1  0  0  0  0
 17 19  1  0  0  0  0
 17 20  1  0  0  0  0
 13 14  1  0  0  0  0
 13 15  1  0  0  0  0
 13 16  1  0  0  0  0
 11 12  1  0  0  0  0
 11 13  1  0  0  0  0
 11 17  1  0  0  0  0
  9 10  1  0  0  0  0
  9 11  1  0  0  0  0
  9 24  1  0  0  0  0
  7  8  1  0  0  0  0
  7  9  1  0  0  0  0
 28 29  1  0  0  0  0
 28 30  1  0  0  0  0
 28 31  1  0  0  0  0
 26 27  1  0  0  0  0
 26 28  1  0  0  0  0
M  END
$$$$
default_name
  -OEChem-02102213163D

 31 30  0     1  0  0  0  0  0999 V2000
   -3.0760   -3.6390    1.5496 H   0  0  0  0  0  0  0  0  0  0  0  0
   -3.0940   -2.6290    1.1426 C   0  0  0  0  0  0  0  0  0  0  0  0
   -3.7160   -1.9930    1.7706 H   0  0  0  0  0  0  0  0  0  0  0  0
   -3.4880   -2.6500    0.1286 H   0  0  0  0  0  0  0  0  0  0  0  0
   -1.6860   -2.0850    1.1196 C   0  0  0  0  0  0  0  0  0  0  0  0
   -0.7540   -2.7700    1.5226 O   0  0  0  0  0  0  0  0  0  0  0  0
   -1.5320   -0.8490    0.6496 N   0  0  0  0  0  0  0  0  0  0  0  0
   -2.3500   -0.3360    0.3566 H   0  0  0  0  0  0  0  0  0  0  0  0
   -0.2470   -0.1410    0.5576 C   0  0  1  0  0  0  0  0  0  0  0  0
    0.4239   -0.7541   -0.0450 H   0  0  0  0  0  0  0  0  0  0  0  0
   -0.4317    1.2160   -0.1683 C   0  0  1  0  0  0  0  0  0  0  0  0
   -0.2252    1.0453   -1.2266 H   0  0  0  0  0  0  0  0  0  0  0  0
   -1.8706    1.7543   -0.0524 C   0  0  0  0  0  0  0  0  0  0  0  0
   -2.1015    2.0132    0.9825 H   0  0  0  0  0  0  0  0  0  0  0  0
   -1.9953    2.6378   -0.6764 H   0  0  0  0  0  0  0  0  0  0  0  0
   -2.5827    1.0023   -0.3941 H   0  0  0  0  0  0  0  0  0  0  0  0
    0.5902    2.2587    0.3377 C   0  0  0  0  0  0  0  0  0  0  0  0
    0.1033    2.9558    1.0209 H   0  0  0  0  0  0  0  0  0  0  0  0
    1.3792    1.7405    0.8827 H   0  0  0  0  0  0  0  0  0  0  0  0
    1.2608    3.0613   -0.7854 C   0  0  0  0  0  0  0  0  0  0  0  0
    0.5293    3.6850   -1.2988 H   0  0  0  0  0  0  0  0  0  0  0  0
    2.0275    3.7074   -0.3571 H   0  0  0  0  0  0  0  0  0  0  0  0
    1.7279    2.3835   -1.5007 H   0  0  0  0  0  0  0  0  0  0  0  0
    0.3833   -0.0008    1.9525 C   0  0  0  0  0  0  0  0  0  0  0  0
    1.5803   -0.2304    2.1189 O   0  0  0  0  0  0  0  0  0  0  0  0
   -0.4170    0.3858    2.9541 N   0  0  0  0  0  0  0  0  0  0  0  0
   -1.3850    0.5669    2.7398 H   0  0  0  0  0  0  0  0  0  0  0  0
    0.0265    0.5600    4.3358 C   0  0  0  0  0  0  0  0  0  0  0  0
    0.8964    1.2200    4.3632 H   0  0  0  0  0  0  0  0  0  0  0  0
   -0.7726    0.9946    4.9382 H   0  0  0  0  0  0  0  0  0  0  0  0
    0.3119   -0.4069    4.7547 H   0  0  0  0  0  0  0  0  0  0  0  0
  5  6  2  0  0  0  0
  5  7  1  0  0  0  0
  2  3  1  0  0  0  0
  2  4  1  0  0  0  0
  2  5  1  0  0  0  0
  1  2  1  0  0  0  0
 24 25  2  0  0  0  0
 24 26  1  0  0  0  0
 20 21  1  0  0  0  0
 20 22  1  0  0  0  0
 20 23  1  0  0  0  0
 17 18  1  0  0  0  0
 17 19  1  0  0  0  0
 17 20  1  0  0  0  0
 13 14  1  0  0  0  0
 13 15  1  0  0  0  0
 13 16  1  0  0  0  0
 11 12  1  0  0  0  0
 11 13  1  0  0  0  0
 11 17  1  0  0  0  0
  9 10  1  0  0  0  0
  9 11  1  0  0  0  0
  9 24  1  0  0  0  0
  7  8  1  0  0  0  0
  7  9  1  0  0  0  0
 28 29  1  0  0  0  0
 28 30  1  0  0  0  0
 28 31  1  0  0  0  0
 26 27  1  0  0  0  0
 26 28  1  0  0  0  0
M  END
$$$$
default_name
  -OEChem-02102213163D

 31 30  0     1  0  0  0  0  0999 V2000
   -3.0760   -3.6390    1.5496 H   0  0  0  0  0  0  0  0  0  0  0  0
   -3.0940   -2.6290    1.1426 C   0  0  0  0  0  0  0  0  0  0  0  0
   -3.7160   -1.9930    1.7706 H   0  0  0  0  0  0  0  0  0  0  0  0
   -3.4880   -2.6500    0.1286 H   0  0  0  0  0  0  0  0  0  0  0  0
   -1.6860   -2.0850    1.1196 C   0  0  0  0  0  0  0  0  0  0  0  0
   -0.7540   -2.7700    1.5226 O   0  0  0  0  0  0  0  0  0  0  0  0
   -1.5320   -0.8490    0.6496 N   0  0  0  0  0  0  0  0  0  0  0  0
   -2.3500   -0.3360    0.3566 H   0  0  0  0  0  0  0  0  0  0  0  0
   -0.2470   -0.1410    0.5576 C   0  0  1  0  0  0  0  0  0  0  0  0
    0.4239   -0.7541   -0.0450 H   0  0  0  0  0  0  0  0  0  0  0  0
   -0.4317    1.2160   -0.1683 C   0  0  1  0  0  0  0  0  0  0  0  0
   -0.2252    1.0453   -1.2266 H   0  0  0  0  0  0  0  0  0  0  0  0
   -1.8706    1.7543   -0.0524 C   0  0  0  0  0  0  0  0  0  0  0  0
   -2.1015    2.0132    0.9825 H   0  0  0  0  0  0  0  0  0  0  0  0
   -1.9953    2.6378   -0.6764 H   0  0  0  0  0  0  0  0  0  0  0  0
   -2.5827    1.0023   -0.3941 H   0  0  0  0  0  0  0  0  0  0  0  0
    0.5902    2.2587    0.3377 C   0  0  0  0  0  0  0  0  0  0  0  0
    0.1885    2.7824    1.2062 H   0  0  0  0  0  0  0  0  0  0  0  0
    1.4993    1.7398    0.6416 H   0  0  0  0  0  0  0  0  0  0  0  0
    0.9877    3.2973   -0.7199 C   0  0  0  0  0  0  0  0  0  0  0  0
    0.1333    3.9203   -0.9839 H   0  0  0  0  0  0  0  0  0  0  0  0
    1.7727    3.9379   -0.3174 H   0  0  0  0  0  0  0  0  0  0  0  0
    1.3628    2.7958   -1.6127 H   0  0  0  0  0  0  0  0  0  0  0  0
    0.3833   -0.0008    1.9525 C   0  0  0  0  0  0  0  0  0  0  0  0
    1.5803   -0.2304    2.1189 O   0  0  0  0  0  0  0  0  0  0  0  0
   -0.4170    0.3858    2.9541 N   0  0  0  0  0  0  0  0  0  0  0  0
   -1.3850    0.5669    2.7398 H   0  0  0  0  0  0  0  0  0  0  0  0
    0.0265    0.5600    4.3358 C   0  0  0  0  0  0  0  0  0  0  0  0
    0.8964    1.2200    4.3632 H   0  0  0  0  0  0  0  0  0  0  0  0
   -0.7726    0.9946    4.9382 H   0  0  0  0  0  0  0  0  0  0  0  0
    0.3119   -0.4069    4.7547 H   0  0  0  0  0  0  0  0  0  0  0  0
  5  6  2  0  0  0  0
  5  7  1  0  0  0  0
  2  3  1  0  0  0  0
  2  4  1  0  0  0  0
  2  5  1  0  0  0  0
  1  2  1  0  0  0  0
 24 25  2  0  0  0  0
 24 26  1  0  0  0  0
 20 21  1  0  0  0  0
 20 22  1  0  0  0  0
 20 23  1  0  0  0  0
 17 18  1  0  0  0  0
 17 19  1  0  0  0  0
 17 20  1  0  0  0  0
 13 14  1  0  0  0  0
 13 15  1  0  0  0  0
 13 16  1  0  0  0  0
 11 12  1  0  0  0  0
 11 13  1  0  0  0  0
 11 17  1  0  0  0  0
  9 10  1  0  0  0  0
  9 11  1  0  0  0  0
  9 24  1  0  0  0  0
  7  8  1  0  0  0  0
  7  9  1  0  0  0  0
 28 29  1  0  0  0  0
 28 30  1  0  0  0  0
 28 31  1  0  0  0  0
 26 27  1  0  0  0  0
 26 28  1  0  0  0  0
M  END
$$$$
default_name
  -OEChem-02102213163D

 31 30  0     1  0  0  0  0  0999 V2000
   -3.0760   -3.6390    1.5496 H   0  0  0  0  0  0  0  0  0  0  0  0
   -3.0940   -2.6290    1.1426 C   0  0  0  0  0  0  0  0  0  0  0  0
   -3.7160   -1.9930    1.7706 H   0  0  0  0  0  0  0  0  0  0  0  0
   -3.4880   -2.6500    0.1286 H   0  0  0  0  0  0  0  0  0  0  0  0
   -1.6860   -2.0850    1.1196 C   0  0  0  0  0  0  0  0  0  0  0  0
   -0.7540   -2.7700    1.5226 O   0  0  0  0  0  0  0  0  0  0  0  0
   -1.5320   -0.8490    0.6496 N   0  0  0  0  0  0  0  0  0  0  0  0
   -2.3500   -0.3360    0.3566 H   0  0  0  0  0  0  0  0  0  0  0  0
   -0.2470   -0.1410    0.5576 C   0  0  1  0  0  0  0  0  0  0  0  0
    0.4239   -0.7541   -0.0450 H   0  0  0  0  0  0  0  0  0  0  0  0
   -0.4317    1.2160   -0.1683 C   0  0  1  0  0  0  0  0  0  0  0  0
   -0.2252    1.0453   -1.2266 H   0  0  0  0  0  0  0  0  0  0  0  0
   -1.8706    1.7543   -0.0524 C   0  0  0  0  0  0  0  0  0  0  0  0
   -2.1015    2.0132    0.9825 H   0  0  0  0  0  0  0  0  0  0  0  0
   -1.9953    2.6378   -0.6764 H   0  0  0  0  0  0  0  0  0  0  0  0
   -2.5827    1.0023   -0.3941 H   0  0  0  0  0  0  0  0  0  0  0  0
    0.5902    2.2587    0.3377 C   0  0  0  0  0  0  0  0  0  0  0  0
    0.3178    2.5904    1.3405 H   0  0  0  0  0  0  0  0  0  0  0  0
    1.5733    1.7906    0.3876 H   0  0  0  0  0  0  0  0  0  0  0  0
    0.7153    3.4908   -0.5687 C   0  0  0  0  0  0  0  0  0  0  0  0
   -0.2141    4.0600   -0.5704 H   0  0  0  0  0  0  0  0  0  0  0  0
    1.5139    4.1322   -0.1952 H   0  0  0  0  0  0  0  0  0  0  0  0
    0.9556    3.1822   -1.5867 H   0  0  0  0  0  0  0  0  0  0  0  0
    0.3833   -0.0008    1.9525 C   0  0  0  0  0  0  0  0  0  0  0  0
    1.5803   -0.2304    2.1189 O   0  0  0  0  0  0  0  0  0  0  0  0
   -0.4170    0.3858    2.9541 N   0  0  0  0  0  0  0  0  0  0  0  0
   -1.3850    0.5669    2.7398 H   0  0  0  0  0  0  0  0  0  0  0  0
    0.0265    0.5600    4.3358 C   0  0  0  0  0  0  0  0  0  0  0  0
    0.8964    1.2200    4.3632 H   0  0  0  0  0  0  0  0  0  0  0  0
   -0.7726    0.9946    4.9382 H   0  0  0  0  0  0  0  0  0  0  0  0
    0.3119   -0.4069    4.7547 H   0  0  0  0  0  0  0  0  0  0  0  0
  5  6  2  0  0  0  0
  5  7  1  0  0  0  0
  2  3  1  0  0  0  0
  2  4  1  0  0  0  0
  2  5  1  0  0  0  0
  1  2  1  0  0  0  0
 24 25  2  0  0  0  0
 24 26  1  0  0  0  0
 20 21  1  0  0  0  0
 20 22  1  0  0  0  0
 20 23  1  0  0  0  0
 17 18  1  0  0  0  0
 17 19  1  0  0  0  0
 17 20  1  0  0  0  0
 13 14  1  0  0  0  0
 13 15  1  0  0  0  0
 13 16  1  0  0  0  0
 11 12  1  0  0  0  0
 11 13  1  0  0  0  0
 11 17  1  0  0  0  0
  9 10  1  0  0  0  0
  9 11  1  0  0  0  0
  9 24  1  0  0  0  0
  7  8  1  0  0  0  0
  7  9  1  0  0  0  0
 28 29  1  0  0  0  0
 28 30  1  0  0  0  0
 28 31  1  0  0  0  0
 26 27  1  0  0  0  0
 26 28  1  0  0  0  0
M  END
$$$$
default_name
  -OEChem-02102213163D

 31 30  0     1  0  0  0  0  0999 V2000
   -3.0760   -3.6390    1.5496 H   0  0  0  0  0  0  0  0  0  0  0  0
   -3.0940   -2.6290    1.1426 C   0  0  0  0  0  0  0  0  0  0  0  0
   -3.7160   -1.9930    1.7706 H   0  0  0  0  0  0  0  0  0  0  0  0
   -3.4880   -2.6500    0.1286 H   0  0  0  0  0  0  0  0  0  0  0  0
   -1.6860   -2.0850    1.1196 C   0  0  0  0  0  0  0  0  0  0  0  0
   -0.7540   -2.7700    1.5226 O   0  0  0  0  0  0  0  0  0  0  0  0
   -1.5320   -0.8490    0.6496 N   0  0  0  0  0  0  0  0  0  0  0  0
   -2.3500   -0.3360    0.3566 H   0  0  0  0  0  0  0  0  0  0  0  0
   -0.2470   -0.1410    0.5576 C   0  0  1  0  0  0  0  0  0  0  0  0
    0.4239   -0.7541   -0.0450 H   0  0  0  0  0  0  0  0  0  0  0  0
   -0.4317    1.2160   -0.1683 C   0  0  1  0  0  0  0  0  0  0  0  0
   -0.4940    1.0030   -1.2372 H   0  0  0  0  0  0  0  0  0  0  0  0
   -1.7324    1.9315    0.2437 C   0  0  0  0  0  0  0  0  0  0  0  0
   -1.6886    2.2346    1.2913 H   0  0  0  0  0  0  0  0  0  0  0  0
   -1.8916    2.8130   -0.3753 H   0  0  0  0  0  0  0  0  0  0  0  0
   -2.5872    1.2685    0.1048 H   0  0  0  0  0  0  0  0  0  0  0  0
    0.7942    2.1314    0.0479 C   0  0  0  0  0  0  0  0  0  0  0  0
    0.9521    2.2962    1.1146 H   0  0  0  0  0  0  0  0  0  0  0  0
    1.6772    1.6362   -0.3560 H   0  0  0  0  0  0  0  0  0  0  0  0
    0.6764    3.4951   -0.6462 C   0  0  0  0  0  0  0  0  0  0  0  0
   -0.1298    4.0804   -0.2046 H   0  0  0  0  0  0  0  0  0  0  0  0
    1.6107    4.0432   -0.5225 H   0  0  0  0  0  0  0  0  0  0  0  0
    0.4853    3.3565   -1.7109 H   0  0  0  0  0  0  0  0  0  0  0  0
    0.3833   -0.0008    1.9525 C   0  0  0  0  0  0  0  0  0  0  0  0
    1.5803   -0.2304    2.1189 O   0  0  0  0  0  0  0  0  0  0  0  0
   -0.4170    0.3858    2.9541 N   0  0  0  0  0  0  0  0  0  0  0  0
   -1.3850    0.5669    2.7398 H   0  0  0  0  0  0  0  0  0  0  0  0
    0.0265    0.5600    4.3358 C   0  0  0  0  0  0  0  0  0  0  0  0
    0.8964    1.2200    4.3632 H   0  0  0  0  0  0  0  0  0  0  0  0
   -0.7726    0.9946    4.9382 H   0  0  0  0  0  0  0  0  0  0  0  0
    0.3119   -0.4069    4.7547 H   0  0  0  0  0  0  0  0  0  0  0  0
  5  6  2  0  0  0  0
  5  7  1  0  0  0  0
  2  3  1  0  0  0  0
  2  4  1  0  0  0  0
  2  5  1  0  0  0  0
  1  2  1  0  0  0  0
 24 25  2  0  0  0  0
 24 26  1  0  0  0  0
 20 21  1  0  0  0  0
 20 22  1  0  0  0  0
 20 23  1  0  0  0  0
 17 18  1  0  0  0  0
 17 19  1  0  0  0  0
 17 20  1  0  0  0  0
 13 14  1  0  0  0  0
 13 15  1  0  0  0  0
 13 16  1  0  0  0  0
 11 12  1  0  0  0  0
 11 13  1  0  0  0  0
 11 17  1  0  0  0  0
  9 10  1  0  0  0  0
  9 11  1  0  0  0  0
  9 24  1  0  0  0  0
  7  8  1  0  0  0  0
  7  9  1  0  0  0  0
 28 29  1  0  0  0  0
 28 30  1  0  0  0  0
 28 31  1  0  0  0  0
 26 27  1  0  0  0  0
 26 28  1  0  0  0  0
M  END
$$$$
default_name
  -OEChem-02102213163D

 31 30  0     1  0  0  0  0  0999 V2000
   -3.0760   -3.6390    1.5496 H   0  0  0  0  0  0  0  0  0  0  0  0
   -3.0940   -2.6290    1.1426 C   0  0  0  0  0  0  0  0  0  0  0  0
   -3.7160   -1.9930    1.7706 H   0  0  0  0  0  0  0  0  0  0  0  0
   -3.4880   -2.6500    0.1286 H   0  0  0  0  0  0  0  0  0  0  0  0
   -1.6860   -2.0850    1.1196 C   0  0  0  0  0  0  0  0  0  0  0  0
   -0.7540   -2.7700    1.5226 O   0  0  0  0  0  0  0  0  0  0  0  0
   -1.5320   -0.8490    0.6496 N   0  0  0  0  0  0  0  0  0  0  0  0
   -2.3500   -0.3360    0.3566 H   0  0  0  0  0  0  0  0  0  0  0  0
   -0.2470   -0.1410    0.5576 C   0  0  1  0  0  0  0  0  0  0  0  0
    0.4239   -0.7541   -0.0450 H   0  0  0  0  0  0  0  0  0  0  0  0
   -0.4317    1.2160   -0.1683 C   0  0  1  0  0  0  0  0  0  0  0  0
   -0.4940    1.0030   -1.2372 H   0  0  0  0  0  0  0  0  0  0  0  0
   -1.7324    1.9315    0.2437 C   0  0  0  0  0  0  0  0  0  0  0  0
   -1.6886    2.2346    1.2913 H   0  0  0  0  0  0  0  0  0  0  0  0
   -1.8916    2.8130   -0.3753 H   0  0  0  0  0  0  0  0  0  0  0  0
   -2.5872    1.2685    0.1048 H   0  0  0  0  0  0  0  0  0  0  0  0
    0.7942    2.1314    0.0479 C   0  0  0  0  0  0  0  0  0  0  0  0
    1.1143    2.0848    1.0897 H   0  0  0  0  0  0  0  0  0  0  0  0
    1.6126    1.7751   -0.5776 H   0  0  0  0  0  0  0  0  0  0  0  0
    0.5413    3.5993   -0.3215 C   0  0  0  0  0  0  0  0  0  0  0  0
   -0.1972    4.0402    0.3478 H   0  0  0  0  0  0  0  0  0  0  0  0
    1.4721    4.1591   -0.2276 H   0  0  0  0  0  0  0  0  0  0  0  0
    0.1881    3.6694   -1.3509 H   0  0  0  0  0  0  0  0  0  0  0  0
    0.3833   -0.0008    1.9525 C   0  0  0  0  0  0  0  0  0  0  0  0
    1.5803   -0.2304    2.1189 O   0  0  0  0  0  0  0  0  0  0  0  0
   -0.4170    0.3858    2.9541 N   0  0  0  0  0  0  0  0  0  0  0  0
   -1.3850    0.5669    2.7398 H   0  0  0  0  0  0  0  0  0  0  0  0
    0.0265    0.5600    4.3358 C   0  0  0  0  0  0  0  0  0  0  0  0
    0.8964    1.2200    4.3632 H   0  0  0  0  0  0  0  0  0  0  0  0
   -0.7726    0.9946    4.9382 H   0  0  0  0  0  0  0  0  0  0  0  0
    0.3119   -0.4069    4.7547 H   0  0  0  0  0  0  0  0  0  0  0  0
  5  6  2  0  0  0  0
  5  7  1  0  0  0  0
  2  3  1  0  0  0  0
  2  4  1  0  0  0  0
  2  5  1  0  0  0  0
  1  2  1  0  0  0  0
 24 25  2  0  0  0  0
 24 26  1  0  0  0  0
 20 21  1  0  0  0  0
 20 22  1  0  0  0  0
 20 23  1  0  0  0  0
 17 18  1  0  0  0  0
 17 19  1  0  0  0  0
 17 20  1  0  0  0  0
 13 14  1  0  0  0  0
 13 15  1  0  0  0  0
 13 16  1  0  0  0  0
 11 12  1  0  0  0  0
 11 13  1  0  0  0  0
 11 17  1  0  0  0  0
  9 10  1  0  0  0  0
  9 11  1  0  0  0  0
  9 24  1  0  0  0  0
  7  8  1  0  0  0  0
  7  9  1  0  0  0  0
 28 29  1  0  0  0  0
 28 30  1  0  0  0  0
 28 31  1  0  0  0  0
 26 27  1  0  0  0  0
 26 28  1  0  0  0  0
M  END
$$$$
default_name
  -OEChem-02102213163D

 31 30  0     1  0  0  0  0  0999 V2000
   -3.0760   -3.6390    1.5496 H   0  0  0  0  0  0  0  0  0  0  0  0
   -3.0940   -2.6290    1.1426 C   0  0  0  0  0  0  0  0  0  0  0  0
   -3.7160   -1.9930    1.7706 H   0  0  0  0  0  0  0  0  0  0  0  0
   -3.4880   -2.6500    0.1286 H   0  0  0  0  0  0  0  0  0  0  0  0
   -1.6860   -2.0850    1.1196 C   0  0  0  0  0  0  0  0  0  0  0  0
   -0.7540   -2.7700    1.5226 O   0  0  0  0  0  0  0  0  0  0  0  0
   -1.5320   -0.8490    0.6496 N   0  0  0  0  0  0  0  0  0  0  0  0
   -2.3500   -0.3360    0.3566 H   0  0  0  0  0  0  0  0  0  0  0  0
   -0.2470   -0.1410    0.5576 C   0  0  1  0  0  0  0  0  0  0  0  0
    0.4239   -0.7541   -0.0450 H   0  0  0  0  0  0  0  0  0  0  0  0
   -0.4317    1.2160   -0.1683 C   0  0  1  0  0  0  0  0  0  0  0  0
   -0.4940    1.0030   -1.2372 H   0  0  0  0  0  0  0  0  0  0  0  0
   -1.7324    1.9315    0.2437 C   0  0  0  0  0  0  0  0  0  0  0  0
   -1.6886    2.2346    1.2913 H   0  0  0  0  0  0  0  0  0  0  0  0
   -1.8916    2.8130   -0.3753 H   0  0  0  0  0  0  0  0  0  0  0  0
   -2.5872    1.2685    0.1048 H   0  0  0  0  0  0  0  0  0  0  0  0
    0.7942    2.1314    0.0479 C   0  0  0  0  0  0  0  0  0  0  0  0
    1.2749    1.8916    0.9973 H   0  0  0  0  0  0  0  0  0  0  0  0
    1.5112    1.9524   -0.7533 H   0  0  0  0  0  0  0  0  0  0  0  0
    0.4568    3.6285    0.0342 C   0  0  0  0  0  0  0  0  0  0  0  0
   -0.1762    3.8855    0.8834 H   0  0  0  0  0  0  0  0  0  0  0  0
    1.3793    4.2055    0.1023 H   0  0  0  0  0  0  0  0  0  0  0  0
   -0.0551    3.8870   -0.8934 H   0  0  0  0  0  0  0  0  0  0  0  0
    0.3833   -0.0008    1.9525 C   0  0  0  0  0  0  0  0  0  0  0  0
    1.5803   -0.2304    2.1189 O   0  0  0  0  0  0  0  0  0  0  0  0
   -0.4170    0.3858    2.9541 N   0  0  0  0  0  0  0  0  0  0  0  0
   -1.3850    0.5669    2.7398 H   0  0  0  0  0  0  0  0  0  0  0  0
    0.0265    0.5600    4.3358 C   0  0  0  0  0  0  0  0  0  0  0  0
    0.8964    1.2200    4.3632 H   0  0  0  0  0  0  0  0  0  0  0  0
   -0.7726    0.9946    4.9382 H   0  0  0  0  0  0  0  0  0  0  0  0
    0.3119   -0.4069    4.7547 H   0  0  0  0  0  0  0  0  0  0  0  0
  5  6  2  0  0  0  0
  5  7  1  0  0  0  0
  2  3  1  0  0  0  0
  2  4  1  0  0  0  0
  2  5  1  0  0  0  0
  1  2  1  0  0  0  0
 24 25  2  0  0  0  0
 24 26  1  0  0  0  0
 20 21  1  0  0  0  0
 20 22  1  0  0  0  0
 20 23  1  0  0  0  0
 17 18  1  0  0  0  0
 17 19  1  0  0  0  0
 17 20  1  0  0  0  0
 13 14  1  0  0  0  0
 13 15  1  0  0  0  0
 13 16  1  0  0  0  0
 11 12  1  0  0  0  0
 11 13  1  0  0  0  0
 11 17  1  0  0  0  0
  9 10  1  0  0  0  0
  9 11  1  0  0  0  0
  9 24  1  0  0  0  0
  7  8  1  0  0  0  0
  7  9  1  0  0  0  0
 28 29  1  0  0  0  0
 28 30  1  0  0  0  0
 28 31  1  0  0  0  0
 26 27  1  0  0  0  0
 26 28  1  0  0  0  0
M  END
$$$$
default_name
  -OEChem-02102213163D

 31 30  0     1  0  0  0  0  0999 V2000
   -3.0760   -3.6390    1.5496 H   0  0  0  0  0  0  0  0  0  0  0  0
   -3.0940   -2.6290    1.1426 C   0  0  0  0  0  0  0  0  0  0  0  0
   -3.7160   -1.9930    1.7706 H   0  0  0  0  0  0  0  0  0  0  0  0
   -3.4880   -2.6500    0.1286 H   0  0  0  0  0  0  0  0  0  0  0  0
   -1.6860   -2.0850    1.1196 C   0  0  0  0  0  0  0  0  0  0  0  0
   -0.7540   -2.7700    1.5226 O   0  0  0  0  0  0  0  0  0  0  0  0
   -1.5320   -0.8490    0.6496 N   0  0  0  0  0  0  0  0  0  0  0  0
   -2.3500   -0.3360    0.3566 H   0  0  0  0  0  0  0  0  0  0  0  0
   -0.2470   -0.1410    0.5576 C   0  0  1  0  0  0  0  0  0  0  0  0
    0.4239   -0.7541   -0.0450 H   0  0  0  0  0  0  0  0  0  0  0  0
   -0.4317    1.2160   -0.1683 C   0  0  1  0  0  0  0  0  0  0  0  0
   -0.4940    1.0030   -1.2372 H   0  0  0  0  0  0  0  0  0  0  0  0
   -1.7324    1.9315    0.2437 C   0  0  0  0  0  0  0  0  0  0  0  0
   -1.6886    2.2346    1.2913 H   0  0  0  0  0  0  0  0  0  0  0  0
   -1.8916    2.8130   -0.3753 H   0  0  0  0  0  0  0  0  0  0  0  0
   -2.5872    1.2685    0.1048 H   0  0  0  0  0  0  0  0  0  0  0  0
    0.7942    2.1314    0.0479 C   0  0  0  0  0  0  0  0  0  0  0  0
    1.4228    1.7297    0.8438 H   0  0  0  0  0  0  0  0  0  0  0  0
    1.3798    2.1561   -0.8710 H   0  0  0  0  0  0  0  0  0  0  0  0
    0.4287    3.5805    0.3968 C   0  0  0  0  0  0  0  0  0  0  0  0
   -0.0681    3.6268    1.3657 H   0  0  0  0  0  0  0  0  0  0  0  0
    1.3386    4.1792    0.4448 H   0  0  0  0  0  0  0  0  0  0  0  0
   -0.2277    3.9945   -0.3694 H   0  0  0  0  0  0  0  0  0  0  0  0
    0.3833   -0.0008    1.9525 C   0  0  0  0  0  0  0  0  0  0  0  0
    1.5803   -0.2304    2.1189 O   0  0  0  0  0  0  0  0  0  0  0  0
   -0.4170    0.3858    2.9541 N   0  0  0  0  0  0  0  0  0  0  0  0
   -1.3850    0.5669    2.7398 H   0  0  0  0  0  0  0  0  0  0  0  0
    0.0265    0.5600    4.3358 C   0  0  0  0  0  0  0  0  0  0  0  0
    0.8964    1.2200    4.3632 H   0  0  0  0  0  0  0  0  0  0  0  0
   -0.7726    0.9946    4.9382 H   0  0  0  0  0  0  0  0  0  0  0  0
    0.3119   -0.4069    4.7547 H   0  0  0  0  0  0  0  0  0  0  0  0
  5  6  2  0  0  0  0
  5  7  1  0  0  0  0
  2  3  1  0  0  0  0
  2  4  1  0  0  0  0
  2  5  1  0  0  0  0
  1  2  1  0  0  0  0
 24 25  2  0  0  0  0
 24 26  1  0  0  0  0
 20 21  1  0  0  0  0
 20 22  1  0  0  0  0
 20 23  1  0  0  0  0
 17 18  1  0  0  0  0
 17 19  1  0  0  0  0
 17 20  1  0  0  0  0
 13 14  1  0  0  0  0
 13 15  1  0  0  0  0
 13 16  1  0  0  0  0
 11 12  1  0  0  0  0
 11 13  1  0  0  0  0
 11 17  1  0  0  0  0
  9 10  1  0  0  0  0
  9 11  1  0  0  0  0
  9 24  1  0  0  0  0
  7  8  1  0  0  0  0
  7  9  1  0  0  0  0
 28 29  1  0  0  0  0
 28 30  1  0  0  0  0
 28 31  1  0  0  0  0
 26 27  1  0  0  0  0
 26 28  1  0  0  0  0
M  END
$$$$
default_name
  -OEChem-02102213163D

 31 30  0     1  0  0  0  0  0999 V2000
   -3.0760   -3.6390    1.5496 H   0  0  0  0  0  0  0  0  0  0  0  0
   -3.0940   -2.6290    1.1426 C   0  0  0  0  0  0  0  0  0  0  0  0
   -3.7160   -1.9930    1.7706 H   0  0  0  0  0  0  0  0  0  0  0  0
   -3.4880   -2.6500    0.1286 H   0  0  0  0  0  0  0  0  0  0  0  0
   -1.6860   -2.0850    1.1196 C   0  0  0  0  0  0  0  0  0  0  0  0
   -0.7540   -2.7700    1.5226 O   0  0  0  0  0  0  0  0  0  0  0  0
   -1.5320   -0.8490    0.6496 N   0  0  0  0  0  0  0  0  0  0  0  0
   -2.3500   -0.3360    0.3566 H   0  0  0  0  0  0  0  0  0  0  0  0
   -0.2470   -0.1410    0.5576 C   0  0  1  0  0  0  0  0  0  0  0  0
    0.4239   -0.7541   -0.0450 H   0  0  0  0  0  0  0  0  0  0  0  0
   -0.4317    1.2160   -0.1683 C   0  0  1  0  0  0  0  0  0  0  0  0
   -0.4940    1.0030   -1.2372 H   0  0  0  0  0  0  0  0  0  0  0  0
   -1.7324    1.9315    0.2437 C   0  0  0  0  0  0  0  0  0  0  0  0
   -1.6886    2.2346    1.2913 H   0  0  0  0  0  0  0  0  0  0  0  0
   -1.8916    2.8130   -0.3753 H   0  0  0  0  0  0  0  0  0  0  0  0
   -2.5872    1.2685    0.1048 H   0  0  0  0  0  0  0  0  0  0  0  0
    0.7942    2.1314    0.0479 C   0  0  0  0  0  0  0  0  0  0  0  0
    1.5481    1.6103    0.6395 H   0  0  0  0  0  0  0  0  0  0  0  0
    1.2276    2.3722   -0.9227 H   0  0  0  0  0  0  0  0  0  0  0  0
    0.4588    3.4587    0.7414 C   0  0  0  0  0  0  0  0  0  0  0  0
    0.1196    3.2818    1.7620 H   0  0  0  0  0  0  0  0  0  0  0  0
    1.3527    4.0820    0.7764 H   0  0  0  0  0  0  0  0  0  0  0  0
   -0.3180    3.9844    0.1852 H   0  0  0  0  0  0  0  0  0  0  0  0
    0.3833   -0.0008    1.9525 C   0  0  0  0  0  0  0  0  0  0  0  0
    1.5803   -0.2304    2.1189 O   0  0  0  0  0  0  0  0  0  0  0  0
   -0.4170    0.3858    2.9541 N   0  0  0  0  0  0  0  0  0  0  0  0
   -1.3850    0.5669    2.7398 H   0  0  0  0  0  0  0  0  0  0  0  0
    0.0265    0.5600    4.3358 C   0  0  0  0  0  0  0  0  0  0  0  0
    0.8964    1.2200    4.3632 H   0  0  0  0  0  0  0  0  0  0  0  0
   -0.7726    0.9946    4.9382 H   0  0  0  0  0  0  0  0  0  0  0  0
    0.3119   -0.4069    4.7547 H   0  0  0  0  0  0  0  0  0  0  0  0
  5  6  2  0  0  0  0
  5  7  1  0  0  0  0
  2  3  1  0  0  0  0
  2  4  1  0  0  0  0
  2  5  1  0  0  0  0
  1  2  1  0  0  0  0
 24 25  2  0  0  0  0
 24 26  1  0  0  0  0
 20 21  1  0  0  0  0
 20 22  1  0  0  0  0
 20 23  1  0  0  0  0
 17 18  1  0  0  0  0
 17 19  1  0  0  0  0
 17 20  1  0  0  0  0
 13 14  1  0  0  0  0
 13 15  1  0  0  0  0
 13 16  1  0  0  0  0
 11 12  1  0  0  0  0
 11 13  1  0  0  0  0
 11 17  1  0  0  0  0
  9 10  1  0  0  0  0
  9 11  1  0  0  0  0
  9 24  1  0  0  0  0
  7  8  1  0  0  0  0
  7  9  1  0  0  0  0
 28 29  1  0  0  0  0
 28 30  1  0  0  0  0
 28 31  1  0  0  0  0
 26 27  1  0  0  0  0
 26 28  1  0  0  0  0
M  END
$$$$
default_name
  -OEChem-02102213163D

 31 30  0     1  0  0  0  0  0999 V2000
   -3.0760   -3.6390    1.5496 H   0  0  0  0  0  0  0  0  0  0  0  0
   -3.0940   -2.6290    1.1426 C   0  0  0  0  0  0  0  0  0  0  0  0
   -3.7160   -1.9930    1.7706 H   0  0  0  0  0  0  0  0  0  0  0  0
   -3.4880   -2.6500    0.1286 H   0  0  0  0  0  0  0  0  0  0  0  0
   -1.6860   -2.0850    1.1196 C   0  0  0  0  0  0  0  0  0  0  0  0
   -0.7540   -2.7700    1.5226 O   0  0  0  0  0  0  0  0  0  0  0  0
   -1.5320   -0.8490    0.6496 N   0  0  0  0  0  0  0  0  0  0  0  0
   -2.3500   -0.3360    0.3566 H   0  0  0  0  0  0  0  0  0  0  0  0
   -0.2470   -0.1410    0.5576 C   0  0  1  0  0  0  0  0  0  0  0  0
    0.4239   -0.7541   -0.0450 H   0  0  0  0  0  0  0  0  0  0  0  0
   -0.4317    1.2160   -0.1683 C   0  0  1  0  0  0  0  0  0  0  0  0
   -0.4940    1.0030   -1.2372 H   0  0  0  0  0  0  0  0  0  0  0  0
   -1.7324    1.9315    0.2437 C   0  0  0  0  0  0  0  0  0  0  0  0
   -1.6886    2.2346    1.2913 H   0  0  0  0  0  0  0  0  0  0  0  0
   -1.8916    2.8130   -0.3753 H   0  0  0  0  0  0  0  0  0  0  0  0
   -2.5872    1.2685    0.1048 H   0  0  0  0  0  0  0  0  0  0  0  0
    0.7942    2.1314    0.0479 C   0  0  0  0  0  0  0  0  0  0  0  0
    1.6420    1.5414    0.3986 H   0  0  0  0  0  0  0  0  0  0  0  0
    1.0647    2.5861   -0.9050 H   0  0  0  0  0  0  0  0  0  0  0  0
    0.5452    3.2714    1.0447 C   0  0  0  0  0  0  0  0  0  0  0  0
    0.3742    2.8740    2.0451 H   0  0  0  0  0  0  0  0  0  0  0  0
    1.4206    3.9205    1.0746 H   0  0  0  0  0  0  0  0  0  0  0  0
   -0.3199    3.8575    0.7326 H   0  0  0  0  0  0  0  0  0  0  0  0
    0.3833   -0.0008    1.9525 C   0  0  0  0  0  0  0  0  0  0  0  0
    1.5803   -0.2304    2.1189 O   0  0  0  0  0  0  0  0  0  0  0  0
   -0.4170    0.3858    2.9541 N   0  0  0  0  0  0  0  0  0  0  0  0
   -1.3850    0.5669    2.7398 H   0  0  0  0  0  0  0  0  0  0  0  0
    0.0265    0.5600    4.3358 C   0  0  0  0  0  0  0  0  0  0  0  0
    0.8964    1.2200    4.3632 H   0  0  0  0  0  0  0  0  0  0  0  0
   -0.7726    0.9946    4.9382 H   0  0  0  0  0  0  0  0  0  0  0  0
    0.3119   -0.4069    4.7547 H   0  0  0  0  0  0  0  0  0  0  0  0
  5  6  2  0  0  0  0
  5  7  1  0  0  0  0
  2  3  1  0  0  0  0
  2  4  1  0  0  0  0
  2  5  1  0  0  0  0
  1  2  1  0  0  0  0
 24 25  2  0  0  0  0
 24 26  1  0  0  0  0
 20 21  1  0  0  0  0
 20 22  1  0  0  0  0
 20 23  1  0  0  0  0
 17 18  1  0  0  0  0
 17 19  1  0  0  0  0
 17 20  1  0  0  0  0
 13 14  1  0  0  0  0
 13 15  1  0  0  0  0
 13 16  1  0  0  0  0
 11 12  1  0  0  0  0
 11 13  1  0  0  0  0
 11 17  1  0  0  0  0
  9 10  1  0  0  0  0
  9 11  1  0  0  0  0
  9 24  1  0  0  0  0
  7  8  1  0  0  0  0
  7  9  1  0  0  0  0
 28 29  1  0  0  0  0
 28 30  1  0  0  0  0
 28 31  1  0  0  0  0
 26 27  1  0  0  0  0
 26 28  1  0  0  0  0
M  END
$$$$
default_name
  -OEChem-02102213163D

 31 30  0     1  0  0  0  0  0999 V2000
   -3.0760   -3.6390    1.5496 H   0  0  0  0  0  0  0  0  0  0  0  0
   -3.0940   -2.6290    1.1426 C   0  0  0  0  0  0  0  0  0  0  0  0
   -3.7160   -1.9930    1.7706 H   0  0  0  0  0  0  0  0  0  0  0  0
   -3.4880   -2.6500    0.1286 H   0  0  0  0  0  0  0  0  0  0  0  0
   -1.6860   -2.0850    1.1196 C   0  0  0  0  0  0  0  0  0  0  0  0
   -0.7540   -2.7700    1.5226 O   0  0  0  0  0  0  0  0  0  0  0  0
   -1.5320   -0.8490    0.6496 N   0  0  0  0  0  0  0  0  0  0  0  0
   -2.3500   -0.3360    0.3566 H   0  0  0  0  0  0  0  0  0  0  0  0
   -0.2470   -0.1410    0.5576 C   0  0  1  0  0  0  0  0  0  0  0  0
    0.4239   -0.7541   -0.0450 H   0  0  0  0  0  0  0  0  0  0  0  0
   -0.4317    1.2160   -0.1683 C   0  0  1  0  0  0  0  0  0  0  0  0
   -0.4940    1.0030   -1.2372 H   0  0  0  0  0  0  0  0  0  0  0  0
   -1.7324    1.9315    0.2437 C   0  0  0  0  0  0  0  0  0  0  0  0
   -1.6886    2.2346    1.2913 H   0  0  0  0  0  0  0  0  0  0  0  0
   -1.8916    2.8130   -0.3753 H   0  0  0  0  0  0  0  0  0  0  0  0
   -2.5872    1.2685    0.1048 H   0  0  0  0  0  0  0  0  0  0  0  0
    0.7942    2.1314    0.0479 C   0  0  0  0  0  0  0  0  0  0  0  0
    1.6983    1.5277    0.1372 H   0  0  0  0  0  0  0  0  0  0  0  0
    0.9024    2.7831   -0.8190 H   0  0  0  0  0  0  0  0  0  0  0  0
    0.6819    3.0313    1.2860 C   0  0  0  0  0  0  0  0  0  0  0  0
    0.6783    2.4312    2.1957 H   0  0  0  0  0  0  0  0  0  0  0  0
    1.5379    3.7057    1.3190 H   0  0  0  0  0  0  0  0  0  0  0  0
   -0.2331    3.6225    1.2357 H   0  0  0  0  0  0  0  0  0  0  0  0
    0.3833   -0.0008    1.9525 C   0  0  0  0  0  0  0  0  0  0  0  0
    1.5803   -0.2304    2.1189 O   0  0  0  0  0  0  0  0  0  0  0  0
   -0.4170    0.3858    2.9541 N   0  0  0  0  0  0  0  0  0  0  0  0
   -1.3850    0.5669    2.7398 H   0  0  0  0  0  0  0  0  0  0  0  0
    0.0265    0.5600    4.3358 C   0  0  0  0  0  0  0  0  0  0  0  0
    0.8964    1.2200    4.3632 H   0  0  0  0  0  0  0  0  0  0  0  0
   -0.7726    0.9946    4.9382 H   0  0  0  0  0  0  0  0  0  0  0  0
    0.3119   -0.4069    4.7547 H   0  0  0  0  0  0  0  0  0  0  0  0
  5  6  2  0  0  0  0
  5  7  1  0  0  0  0
  2  3  1  0  0  0  0
  2  4  1  0  0  0  0
  2  5  1  0  0  0  0
  1  2  1  0  0  0  0
 24 25  2  0  0  0  0
 24 26  1  0  0  0  0
 20 21  1  0  0  0  0
 20 22  1  0  0  0  0
 20 23  1  0  0  0  0
 17 18  1  0  0  0  0
 17 19  1  0  0  0  0
 17 20  1  0  0  0  0
 13 14  1  0  0  0  0
 13 15  1  0  0  0  0
 13 16  1  0  0  0  0
 11 12  1  0  0  0  0
 11 13  1  0  0  0  0
 11 17  1  0  0  0  0
  9 10  1  0  0  0  0
  9 11  1  0  0  0  0
  9 24  1  0  0  0  0
  7  8  1  0  0  0  0
  7  9  1  0  0  0  0
 28 29  1  0  0  0  0
 28 30  1  0  0  0  0
 28 31  1  0  0  0  0
 26 27  1  0  0  0  0
 26 28  1  0  0  0  0
M  END
$$$$
default_name
  -OEChem-02102213163D

 31 30  0     1  0  0  0  0  0999 V2000
   -3.0760   -3.6390    1.5496 H   0  0  0  0  0  0  0  0  0  0  0  0
   -3.0940   -2.6290    1.1426 C   0  0  0  0  0  0  0  0  0  0  0  0
   -3.7160   -1.9930    1.7706 H   0  0  0  0  0  0  0  0  0  0  0  0
   -3.4880   -2.6500    0.1286 H   0  0  0  0  0  0  0  0  0  0  0  0
   -1.6860   -2.0850    1.1196 C   0  0  0  0  0  0  0  0  0  0  0  0
   -0.7540   -2.7700    1.5226 O   0  0  0  0  0  0  0  0  0  0  0  0
   -1.5320   -0.8490    0.6496 N   0  0  0  0  0  0  0  0  0  0  0  0
   -2.3500   -0.3360    0.3566 H   0  0  0  0  0  0  0  0  0  0  0  0
   -0.2470   -0.1410    0.5576 C   0  0  1  0  0  0  0  0  0  0  0  0
    0.4239   -0.7541   -0.0450 H   0  0  0  0  0  0  0  0  0  0  0  0
   -0.4317    1.2160   -0.1683 C   0  0  1  0  0  0  0  0  0  0  0  0
   -0.4940    1.0030   -1.2372 H   0  0  0  0  0  0  0  0  0  0  0  0
   -1.7324    1.9315    0.2437 C   0  0  0  0  0  0  0  0  0  0  0  0
   -1.6886    2.2346    1.2913 H   0  0  0  0  0  0  0  0  0  0  0  0
   -1.8916    2.8130   -0.3753 H   0  0  0  0  0  0  0  0  0  0  0  0
   -2.5872    1.2685    0.1048 H   0  0  0  0  0  0  0  0  0  0  0  0
    0.7942    2.1314    0.0479 C   0  0  0  0  0  0  0  0  0  0  0  0
    1.7131    1.5702   -0.1266 H   0  0  0  0  0  0  0  0  0  0  0  0
    0.7516    2.9499   -0.6705 H   0  0  0  0  0  0  0  0  0  0  0  0
    0.8597    2.7548    1.4488 C   0  0  0  0  0  0  0  0  0  0  0  0
    1.0112    1.9836    2.2037 H   0  0  0  0  0  0  0  0  0  0  0  0
    1.6964    3.4524    1.4930 H   0  0  0  0  0  0  0  0  0  0  0  0
   -0.0636    3.2953    1.6601 H   0  0  0  0  0  0  0  0  0  0  0  0
    0.3833   -0.0008    1.9525 C   0  0  0  0  0  0  0  0  0  0  0  0
    1.5803   -0.2304    2.1189 O   0  0  0  0  0  0  0  0  0  0  0  0
   -0.4170    0.3858    2.9541 N   0  0  0  0  0  0  0  0  0  0  0  0
   -1.3850    0.5669    2.7398 H   0  0  0  0  0  0  0  0  0  0  0  0
    0.0265    0.5600    4.3358 C   0  0  0  0  0  0  0  0  0  0  0  0
    0.8964    1.2200    4.3632 H   0  0  0  0  0  0  0  0  0  0  0  0
   -0.7726    0.9946    4.9382 H   0  0  0  0  0  0  0  0  0  0  0  0
    0.3119   -0.4069    4.7547 H   0  0  0  0  0  0  0  0  0  0  0  0
  5  6  2  0  0  0  0
  5  7  1  0  0  0  0
  2  3  1  0  0  0  0
  2  4  1  0  0  0  0
  2  5  1  0  0  0  0
  1  2  1  0  0  0  0
 24 25  2  0  0  0  0
 24 26  1  0  0  0  0
 20 21  1  0  0  0  0
 20 22  1  0  0  0  0
 20 23  1  0  0  0  0
 17 18  1  0  0  0  0
 17 19  1  0  0  0  0
 17 20  1  0  0  0  0
 13 14  1  0  0  0  0
 13 15  1  0  0  0  0
 13 16  1  0  0  0  0
 11 12  1  0  0  0  0
 11 13  1  0  0  0  0
 11 17  1  0  0  0  0
  9 10  1  0  0  0  0
  9 11  1  0  0  0  0
  9 24  1  0  0  0  0
  7  8  1  0  0  0  0
  7  9  1  0  0  0  0
 28 29  1  0  0  0  0
 28 30  1  0  0  0  0
 28 31  1  0  0  0  0
 26 27  1  0  0  0  0
 26 28  1  0  0  0  0
M  END
$$$$
default_name
  -OEChem-02102213163D

 31 30  0     1  0  0  0  0  0999 V2000
   -3.0760   -3.6390    1.5496 H   0  0  0  0  0  0  0  0  0  0  0  0
   -3.0940   -2.6290    1.1426 C   0  0  0  0  0  0  0  0  0  0  0  0
   -3.7160   -1.9930    1.7706 H   0  0  0  0  0  0  0  0  0  0  0  0
   -3.4880   -2.6500    0.1286 H   0  0  0  0  0  0  0  0  0  0  0  0
   -1.6860   -2.0850    1.1196 C   0  0  0  0  0  0  0  0  0  0  0  0
   -0.7540   -2.7700    1.5226 O   0  0  0  0  0  0  0  0  0  0  0  0
   -1.5320   -0.8490    0.6496 N   0  0  0  0  0  0  0  0  0  0  0  0
   -2.3500   -0.3360    0.3566 H   0  0  0  0  0  0  0  0  0  0  0  0
   -0.2470   -0.1410    0.5576 C   0  0  1  0  0  0  0  0  0  0  0  0
    0.4239   -0.7541   -0.0450 H   0  0  0  0  0  0  0  0  0  0  0  0
   -0.4317    1.2160   -0.1683 C   0  0  1  0  0  0  0  0  0  0  0  0
   -0.4940    1.0030   -1.2372 H   0  0  0  0  0  0  0  0  0  0  0  0
   -1.7324    1.9315    0.2437 C   0  0  0  0  0  0  0  0  0  0  0  0
   -1.6886    2.2346    1.2913 H   0  0  0  0  0  0  0  0  0  0  0  0
   -1.8916    2.8130   -0.3753 H   0  0  0  0  0  0  0  0  0  0  0  0
   -2.5872    1.2685    0.1048 H   0  0  0  0  0  0  0  0  0  0  0  0
    0.7942    2.1314    0.0479 C   0  0  0  0  0  0  0  0  0  0  0  0
    1.6855    1.6660   -0.3750 H   0  0  0  0  0  0  0  0  0  0  0  0
    0.6228    3.0751   -0.4698 H   0  0  0  0  0  0  0  0  0  0  0  0
    1.0663    2.4608    1.5219 C   0  0  0  0  0  0  0  0  0  0  0  0
    1.3501    1.5616    2.0685 H   0  0  0  0  0  0  0  0  0  0  0  0
    1.8854    3.1776    1.5848 H   0  0  0  0  0  0  0  0  0  0  0  0
    0.1770    2.8983    1.9768 H   0  0  0  0  0  0  0  0  0  0  0  0
    0.3833   -0.0008    1.9525 C   0  0  0  0  0  0  0  0  0  0  0  0
    1.5803   -0.2304    2.1189 O   0  0  0  0  0  0  0  0  0  0  0  0
   -0.4170    0.3858    2.9541 N   0  0  0  0  0  0  0  0  0  0  0  0
   -1.3850    0.5669    2.7398 H   0  0  0  0  0  0  0  0  0  0  0  0
    0.0265    0.5600    4.3358 C   0  0  0  0  0  0  0  0  0  0  0  0
    0.8964    1.2200    4.3632 H   0  0  0  0  0  0  0  0  0  0  0  0
   -0.7726    0.9946    4.9382 H   0  0  0  0  0  0  0  0  0  0  0  0
    0.3119   -0.4069    4.7547 H   0  0  0  0  0  0  0  0  0  0  0  0
  5  6  2  0  0  0  0
  5  7  1  0  0  0  0
  2  3  1  0  0  0  0
  2  4  1  0  0  0  0
  2  5  1  0  0  0  0
  1  2  1  0  0  0  0
 24 25  2  0  0  0  0
 24 26  1  0  0  0  0
 20 21  1  0  0  0  0
 20 22  1  0  0  0  0
 20 23  1  0  0  0  0
 17 18  1  0  0  0  0
 17 19  1  0  0  0  0
 17 20  1  0  0  0  0
 13 14  1  0  0  0  0
 13 15  1  0  0  0  0
 13 16  1  0  0  0  0
 11 12  1  0  0  0  0
 11 13  1  0  0  0  0
 11 17  1  0  0  0  0
  9 10  1  0  0  0  0
  9 11  1  0  0  0  0
  9 24  1  0  0  0  0
  7  8  1  0  0  0  0
  7  9  1  0  0  0  0
 28 29  1  0  0  0  0
 28 30  1  0  0  0  0
 28 31  1  0  0  0  0
 26 27  1  0  0  0  0
 26 28  1  0  0  0  0
M  END
$$$$
default_name
  -OEChem-02102213163D

 31 30  0     1  0  0  0  0  0999 V2000
   -3.0760   -3.6390    1.5496 H   0  0  0  0  0  0  0  0  0  0  0  0
   -3.0940   -2.6290    1.1426 C   0  0  0  0  0  0  0  0  0  0  0  0
   -3.7160   -1.9930    1.7706 H   0  0  0  0  0  0  0  0  0  0  0  0
   -3.4880   -2.6500    0.1286 H   0  0  0  0  0  0  0  0  0  0  0  0
   -1.6860   -2.0850    1.1196 C   0  0  0  0  0  0  0  0  0  0  0  0
   -0.7540   -2.7700    1.5226 O   0  0  0  0  0  0  0  0  0  0  0  0
   -1.5320   -0.8490    0.6496 N   0  0  0  0  0  0  0  0  0  0  0  0
   -2.3500   -0.3360    0.3566 H   0  0  0  0  0  0  0  0  0  0  0  0
   -0.2470   -0.1410    0.5576 C   0  0  1  0  0  0  0  0  0  0  0  0
    0.4239   -0.7541   -0.0450 H   0  0  0  0  0  0  0  0  0  0  0  0
   -0.4317    1.2160   -0.1683 C   0  0  1  0  0  0  0  0  0  0  0  0
   -0.4940    1.0030   -1.2372 H   0  0  0  0  0  0  0  0  0  0  0  0
   -1.7324    1.9315    0.2437 C   0  0  0  0  0  0  0  0  0  0  0  0
   -1.6886    2.2346    1.2913 H   0  0  0  0  0  0  0  0  0  0  0  0
   -1.8916    2.8130   -0.3753 H   0  0  0  0  0  0  0  0  0  0  0  0
   -2.5872    1.2685    0.1048 H   0  0  0  0  0  0  0  0  0  0  0  0
    0.7942    2.1314    0.0479 C   0  0  0  0  0  0  0  0  0  0  0  0
    1.6172    1.8085   -0.5911 H   0  0  0  0  0  0  0  0  0  0  0  0
    0.5245    3.1501   -0.2304 H   0  0  0  0  0  0  0  0  0  0  0  0
    1.2878    2.1692    1.5006 C   0  0  0  0  0  0  0  0  0  0  0  0
    1.6721    1.1941    1.7992 H   0  0  0  0  0  0  0  0  0  0  0  0
    2.0919    2.9003    1.5881 H   0  0  0  0  0  0  0  0  0  0  0  0
    0.4723    2.4585    2.1643 H   0  0  0  0  0  0  0  0  0  0  0  0
    0.3833   -0.0008    1.9525 C   0  0  0  0  0  0  0  0  0  0  0  0
    1.5803   -0.2304    2.1189 O   0  0  0  0  0  0  0  0  0  0  0  0
   -0.4170    0.3858    2.9541 N   0  0  0  0  0  0  0  0  0  0  0  0
   -1.3850    0.5669    2.7398 H   0  0  0  0  0  0  0  0  0  0  0  0
    0.0265    0.5600    4.3358 C   0  0  0  0  0  0  0  0  0  0  0  0
    0.8964    1.2200    4.3632 H   0  0  0  0  0  0  0  0  0  0  0  0
   -0.7726    0.9946    4.9382 H   0  0  0  0  0  0  0  0  0  0  0  0
    0.3119   -0.4069    4.7547 H   0  0  0  0  0  0  0  0  0  0  0  0
  5  6  2  0  0  0  0
  5  7  1  0  0  0  0
  2  3  1  0  0  0  0
  2  4  1  0  0  0  0
  2  5  1  0  0  0  0
  1  2  1  0  0  0  0
 24 25  2  0  0  0  0
 24 26  1  0  0  0  0
 20 21  1  0  0  0  0
 20 22  1  0  0  0  0
 20 23  1  0  0  0  0
 17 18  1  0  0  0  0
 17 19  1  0  0  0  0
 17 20  1  0  0  0  0
 13 14  1  0  0  0  0
 13 15  1  0  0  0  0
 13 16  1  0  0  0  0
 11 12  1  0  0  0  0
 11 13  1  0  0  0  0
 11 17  1  0  0  0  0
  9 10  1  0  0  0  0
  9 11  1  0  0  0  0
  9 24  1  0  0  0  0
  7  8  1  0  0  0  0
  7  9  1  0  0  0  0
 28 29  1  0  0  0  0
 28 30  1  0  0  0  0
 28 31  1  0  0  0  0
 26 27  1  0  0  0  0
 26 28  1  0  0  0  0
M  END
$$$$
default_name
  -OEChem-02102213163D

 31 30  0     1  0  0  0  0  0999 V2000
   -3.0760   -3.6390    1.5496 H   0  0  0  0  0  0  0  0  0  0  0  0
   -3.0940   -2.6290    1.1426 C   0  0  0  0  0  0  0  0  0  0  0  0
   -3.7160   -1.9930    1.7706 H   0  0  0  0  0  0  0  0  0  0  0  0
   -3.4880   -2.6500    0.1286 H   0  0  0  0  0  0  0  0  0  0  0  0
   -1.6860   -2.0850    1.1196 C   0  0  0  0  0  0  0  0  0  0  0  0
   -0.7540   -2.7700    1.5226 O   0  0  0  0  0  0  0  0  0  0  0  0
   -1.5320   -0.8490    0.6496 N   0  0  0  0  0  0  0  0  0  0  0  0
   -2.3500   -0.3360    0.3566 H   0  0  0  0  0  0  0  0  0  0  0  0
   -0.2470   -0.1410    0.5576 C   0  0  1  0  0  0  0  0  0  0  0  0
    0.4239   -0.7541   -0.0450 H   0  0  0  0  0  0  0  0  0  0  0  0
   -0.4317    1.2160   -0.1683 C   0  0  1  0  0  0  0  0  0  0  0  0
   -0.4940    1.0030   -1.2372 H   0  0  0  0  0  0  0  0  0  0  0  0
   -1.7324    1.9315    0.2437 C   0  0  0  0  0  0  0  0  0  0  0  0
   -1.6886    2.2346    1.2913 H   0  0  0  0  0  0  0  0  0  0  0  0
   -1.8916    2.8130   -0.3753 H   0  0  0  0  0  0  0  0  0  0  0  0
   -2.5872    1.2685    0.1048 H   0  0  0  0  0  0  0  0  0  0  0  0
    0.7942    2.1314    0.0479 C   0  0  0  0  0  0  0  0  0  0  0  0
    1.5129    1.9880   -0.7600 H   0  0  0  0  0  0  0  0  0  0  0  0
    0.4636    3.1699    0.0313 H   0  0  0  0  0  0  0  0  0  0  0  0
    1.5091    1.9000    1.3861 C   0  0  0  0  0  0  0  0  0  0  0  0
    1.9551    0.9060    1.4143 H   0  0  0  0  0  0  0  0  0  0  0  0
    2.3020    2.6391    1.5026 H   0  0  0  0  0  0  0  0  0  0  0  0
    0.8023    2.0058    2.2098 H   0  0  0  0  0  0  0  0  0  0  0  0
    0.3833   -0.0008    1.9525 C   0  0  0  0  0  0  0  0  0  0  0  0
    1.5803   -0.2304    2.1189 O   0  0  0  0  0  0  0  0  0  0  0  0
   -0.4170    0.3858    2.9541 N   0  0  0  0  0  0  0  0  0  0  0  0
   -1.3850    0.5669    2.7398 H   0  0  0  0  0  0  0  0  0  0  0  0
    0.0265    0.5600    4.3358 C   0  0  0  0  0  0  0  0  0  0  0  0
    0.8964    1.2200    4.3632 H   0  0  0  0  0  0  0  0  0  0  0  0
   -0.7726    0.9946    4.9382 H   0  0  0  0  0  0  0  0  0  0  0  0
    0.3119   -0.4069    4.7547 H   0  0  0  0  0  0  0  0  0  0  0  0
  5  6  2  0  0  0  0
  5  7  1  0  0  0  0
  2  3  1  0  0  0  0
  2  4  1  0  0  0  0
  2  5  1  0  0  0  0
  1  2  1  0  0  0  0
 24 25  2  0  0  0  0
 24 26  1  0  0  0  0
 20 21  1  0  0  0  0
 20 22  1  0  0  0  0
 20 23  1  0  0  0  0
 17 18  1  0  0  0  0
 17 19  1  0  0  0  0
 17 20  1  0  0  0  0
 13 14  1  0  0  0  0
 13 15  1  0  0  0  0
 13 16  1  0  0  0  0
 11 12  1  0  0  0  0
 11 13  1  0  0  0  0
 11 17  1  0  0  0  0
  9 10  1  0  0  0  0
  9 11  1  0  0  0  0
  9 24  1  0  0  0  0
  7  8  1  0  0  0  0
  7  9  1  0  0  0  0
 28 29  1  0  0  0  0
 28 30  1  0  0  0  0
 28 31  1  0  0  0  0
 26 27  1  0  0  0  0
 26 28  1  0  0  0  0
M  END
$$$$
default_name
  -OEChem-02102213163D

 31 30  0     1  0  0  0  0  0999 V2000
   -3.0760   -3.6390    1.5496 H   0  0  0  0  0  0  0  0  0  0  0  0
   -3.0940   -2.6290    1.1426 C   0  0  0  0  0  0  0  0  0  0  0  0
   -3.7160   -1.9930    1.7706 H   0  0  0  0  0  0  0  0  0  0  0  0
   -3.4880   -2.6500    0.1286 H   0  0  0  0  0  0  0  0  0  0  0  0
   -1.6860   -2.0850    1.1196 C   0  0  0  0  0  0  0  0  0  0  0  0
   -0.7540   -2.7700    1.5226 O   0  0  0  0  0  0  0  0  0  0  0  0
   -1.5320   -0.8490    0.6496 N   0  0  0  0  0  0  0  0  0  0  0  0
   -2.3500   -0.3360    0.3566 H   0  0  0  0  0  0  0  0  0  0  0  0
   -0.2470   -0.1410    0.5576 C   0  0  1  0  0  0  0  0  0  0  0  0
    0.4239   -0.7541   -0.0450 H   0  0  0  0  0  0  0  0  0  0  0  0
   -0.4317    1.2160   -0.1683 C   0  0  1  0  0  0  0  0  0  0  0  0
   -0.4940    1.0030   -1.2372 H   0  0  0  0  0  0  0  0  0  0  0  0
   -1.7324    1.9315    0.2437 C   0  0  0  0  0  0  0  0  0  0  0  0
   -1.6886    2.2346    1.2913 H   0  0  0  0  0  0  0  0  0  0  0  0
   -1.8916    2.8130   -0.3753 H   0  0  0  0  0  0  0  0  0  0  0  0
   -2.5872    1.2685    0.1048 H   0  0  0  0  0  0  0  0  0  0  0  0
    0.7942    2.1314    0.0479 C   0  0  0  0  0  0  0  0  0  0  0  0
    1.3798    2.1923   -0.8704 H   0  0  0  0  0  0  0  0  0  0  0  0
    0.4442    3.1330    0.2975 H   0  0  0  0  0  0  0  0  0  0  0  0
    1.7150    1.6715    1.1863 C   0  0  0  0  0  0  0  0  0  0  0  0
    2.1799    0.7170    0.9400 H   0  0  0  0  0  0  0  0  0  0  0  0
    2.5012    2.4121    1.3342 H   0  0  0  0  0  0  0  0  0  0  0  0
    1.1444    1.5712    2.1103 H   0  0  0  0  0  0  0  0  0  0  0  0
    0.3833   -0.0008    1.9525 C   0  0  0  0  0  0  0  0  0  0  0  0
    1.5803   -0.2304    2.1189 O   0  0  0  0  0  0  0  0  0  0  0  0
   -0.4170    0.3858    2.9541 N   0  0  0  0  0  0  0  0  0  0  0  0
   -1.3850    0.5669    2.7398 H   0  0  0  0  0  0  0  0  0  0  0  0
    0.0265    0.5600    4.3358 C   0  0  0  0  0  0  0  0  0  0  0  0
    0.8964    1.2200    4.3632 H   0  0  0  0  0  0  0  0  0  0  0  0
   -0.7726    0.9946    4.9382 H   0  0  0  0  0  0  0  0  0  0  0  0
    0.3119   -0.4069    4.7547 H   0  0  0  0  0  0  0  0  0  0  0  0
  5  6  2  0  0  0  0
  5  7  1  0  0  0  0
  2  3  1  0  0  0  0
  2  4  1  0  0  0  0
  2  5  1  0  0  0  0
  1  2  1  0  0  0  0
 24 25  2  0  0  0  0
 24 26  1  0  0  0  0
 20 21  1  0  0  0  0
 20 22  1  0  0  0  0
 20 23  1  0  0  0  0
 17 18  1  0  0  0  0
 17 19  1  0  0  0  0
 17 20  1  0  0  0  0
 13 14  1  0  0  0  0
 13 15  1  0  0  0  0
 13 16  1  0  0  0  0
 11 12  1  0  0  0  0
 11 13  1  0  0  0  0
 11 17  1  0  0  0  0
  9 10  1  0  0  0  0
  9 11  1  0  0  0  0
  9 24  1  0  0  0  0
  7  8  1  0  0  0  0
  7  9  1  0  0  0  0
 28 29  1  0  0  0  0
 28 30  1  0  0  0  0
 28 31  1  0  0  0  0
 26 27  1  0  0  0  0
 26 28  1  0  0  0  0
M  END
$$$$
default_name
  -OEChem-02102213163D

 31 30  0     1  0  0  0  0  0999 V2000
   -3.0760   -3.6390    1.5496 H   0  0  0  0  0  0  0  0  0  0  0  0
   -3.0940   -2.6290    1.1426 C   0  0  0  0  0  0  0  0  0  0  0  0
   -3.7160   -1.9930    1.7706 H   0  0  0  0  0  0  0  0  0  0  0  0
   -3.4880   -2.6500    0.1286 H   0  0  0  0  0  0  0  0  0  0  0  0
   -1.6860   -2.0850    1.1196 C   0  0  0  0  0  0  0  0  0  0  0  0
   -0.7540   -2.7700    1.5226 O   0  0  0  0  0  0  0  0  0  0  0  0
   -1.5320   -0.8490    0.6496 N   0  0  0  0  0  0  0  0  0  0  0  0
   -2.3500   -0.3360    0.3566 H   0  0  0  0  0  0  0  0  0  0  0  0
   -0.2470   -0.1410    0.5576 C   0  0  1  0  0  0  0  0  0  0  0  0
    0.4239   -0.7541   -0.0450 H   0  0  0  0  0  0  0  0  0  0  0  0
   -0.4317    1.2160   -0.1683 C   0  0  1  0  0  0  0  0  0  0  0  0
   -0.4940    1.0030   -1.2372 H   0  0  0  0  0  0  0  0  0  0  0  0
   -1.7324    1.9315    0.2437 C   0  0  0  0  0  0  0  0  0  0  0  0
   -1.6886    2.2346    1.2913 H   0  0  0  0  0  0  0  0  0  0  0  0
   -1.8916    2.8130   -0.3753 H   0  0  0  0  0  0  0  0  0  0  0  0
   -2.5872    1.2685    0.1048 H   0  0  0  0  0  0  0  0  0  0  0  0
    0.7942    2.1314    0.0479 C   0  0  0  0  0  0  0  0  0  0  0  0
    1.2269    2.4076   -0.9146 H   0  0  0  0  0  0  0  0  0  0  0  0
    0.4676    3.0420    0.5500 H   0  0  0  0  0  0  0  0  0  0  0  0
    1.8915    1.4992    0.9148 C   0  0  0  0  0  0  0  0  0  0  0  0
    2.3311    0.6400    0.4085 H   0  0  0  0  0  0  0  0  0  0  0  0
    2.6761    2.2346    1.0944 H   0  0  0  0  0  0  0  0  0  0  0  0
    1.4753    1.1843    1.8724 H   0  0  0  0  0  0  0  0  0  0  0  0
    0.3833   -0.0008    1.9525 C   0  0  0  0  0  0  0  0  0  0  0  0
    1.5803   -0.2304    2.1189 O   0  0  0  0  0  0  0  0  0  0  0  0
   -0.4170    0.3858    2.9541 N   0  0  0  0  0  0  0  0  0  0  0  0
   -1.3850    0.5669    2.7398 H   0  0  0  0  0  0  0  0  0  0  0  0
    0.0265    0.5600    4.3358 C   0  0  0  0  0  0  0  0  0  0  0  0
    0.8964    1.2200    4.3632 H   0  0  0  0  0  0  0  0  0  0  0  0
   -0.7726    0.9946    4.9382 H   0  0  0  0  0  0  0  0  0  0  0  0
    0.3119   -0.4069    4.7547 H   0  0  0  0  0  0  0  0  0  0  0  0
  5  6  2  0  0  0  0
  5  7  1  0  0  0  0
  2  3  1  0  0  0  0
  2  4  1  0  0  0  0
  2  5  1  0  0  0  0
  1  2  1  0  0  0  0
 24 25  2  0  0  0  0
 24 26  1  0  0  0  0
 20 21  1  0  0  0  0
 20 22  1  0  0  0  0
 20 23  1  0  0  0  0
 17 18  1  0  0  0  0
 17 19  1  0  0  0  0
 17 20  1  0  0  0  0
 13 14  1  0  0  0  0
 13 15  1  0  0  0  0
 13 16  1  0  0  0  0
 11 12  1  0  0  0  0
 11 13  1  0  0  0  0
 11 17  1  0  0  0  0
  9 10  1  0  0  0  0
  9 11  1  0  0  0  0
  9 24  1  0  0  0  0
  7  8  1  0  0  0  0
  7  9  1  0  0  0  0
 28 29  1  0  0  0  0
 28 30  1  0  0  0  0
 28 31  1  0  0  0  0
 26 27  1  0  0  0  0
 26 28  1  0  0  0  0
M  END
$$$$
default_name
  -OEChem-02102213163D

 31 30  0     1  0  0  0  0  0999 V2000
   -3.0760   -3.6390    1.5496 H   0  0  0  0  0  0  0  0  0  0  0  0
   -3.0940   -2.6290    1.1426 C   0  0  0  0  0  0  0  0  0  0  0  0
   -3.7160   -1.9930    1.7706 H   0  0  0  0  0  0  0  0  0  0  0  0
   -3.4880   -2.6500    0.1286 H   0  0  0  0  0  0  0  0  0  0  0  0
   -1.6860   -2.0850    1.1196 C   0  0  0  0  0  0  0  0  0  0  0  0
   -0.7540   -2.7700    1.5226 O   0  0  0  0  0  0  0  0  0  0  0  0
   -1.5320   -0.8490    0.6496 N   0  0  0  0  0  0  0  0  0  0  0  0
   -2.3500   -0.3360    0.3566 H   0  0  0  0  0  0  0  0  0  0  0  0
   -0.2470   -0.1410    0.5576 C   0  0  1  0  0  0  0  0  0  0  0  0
    0.4239   -0.7541   -0.0450 H   0  0  0  0  0  0  0  0  0  0  0  0
   -0.4317    1.2160   -0.1683 C   0  0  1  0  0  0  0  0  0  0  0  0
   -0.4940    1.0030   -1.2372 H   0  0  0  0  0  0  0  0  0  0  0  0
   -1.7324    1.9315    0.2437 C   0  0  0  0  0  0  0  0  0  0  0  0
   -1.6886    2.2346    1.2913 H   0  0  0  0  0  0  0  0  0  0  0  0
   -1.8916    2.8130   -0.3753 H   0  0  0  0  0  0  0  0  0  0  0  0
   -2.5872    1.2685    0.1048 H   0  0  0  0  0  0  0  0  0  0  0  0
    0.7942    2.1314    0.0479 C   0  0  0  0  0  0  0  0  0  0  0  0
    1.0646    2.6190   -0.8896 H   0  0  0  0  0  0  0  0  0  0  0  0
    0.5322    2.9032    0.7716 H   0  0  0  0  0  0  0  0  0  0  0  0
    2.0266    1.3949    0.5902 C   0  0  0  0  0  0  0  0  0  0  0  0
    2.3985    0.6803   -0.1438 H   0  0  0  0  0  0  0  0  0  0  0  0
    2.8147    2.1187    0.7994 H   0  0  0  0  0  0  0  0  0  0  0  0
    1.7725    0.8713    1.5124 H   0  0  0  0  0  0  0  0  0  0  0  0
    0.3833   -0.0008    1.9525 C   0  0  0  0  0  0  0  0  0  0  0  0
    1.5803   -0.2304    2.1189 O   0  0  0  0  0  0  0  0  0  0  0  0
   -0.4170    0.3858    2.9541 N   0  0  0  0  0  0  0  0  0  0  0  0
   -1.3850    0.5669    2.7398 H   0  0  0  0  0  0  0  0  0  0  0  0
    0.0265    0.5600    4.3358 C   0  0  0  0  0  0  0  0  0  0  0  0
    0.8964    1.2200    4.3632 H   0  0  0  0  0  0  0  0  0  0  0  0
   -0.7726    0.9946    4.9382 H   0  0  0  0  0  0  0  0  0  0  0  0
    0.3119   -0.4069    4.7547 H   0  0  0  0  0  0  0  0  0  0  0  0
  5  6  2  0  0  0  0
  5  7  1  0  0  0  0
  2  3  1  0  0  0  0
  2  4  1  0  0  0  0
  2  5  1  0  0  0  0
  1  2  1  0  0  0  0
 24 25  2  0  0  0  0
 24 26  1  0  0  0  0
 20 21  1  0  0  0  0
 20 22  1  0  0  0  0
 20 23  1  0  0  0  0
 17 18  1  0  0  0  0
 17 19  1  0  0  0  0
 17 20  1  0  0  0  0
 13 14  1  0  0  0  0
 13 15  1  0  0  0  0
 13 16  1  0  0  0  0
 11 12  1  0  0  0  0
 11 13  1  0  0  0  0
 11 17  1  0  0  0  0
  9 10  1  0  0  0  0
  9 11  1  0  0  0  0
  9 24  1  0  0  0  0
  7  8  1  0  0  0  0
  7  9  1  0  0  0  0
 28 29  1  0  0  0  0
 28 30  1  0  0  0  0
 28 31  1  0  0  0  0
 26 27  1  0  0  0  0
 26 28  1  0  0  0  0
M  END
$$$$
default_name
  -OEChem-02102213163D

 31 30  0     1  0  0  0  0  0999 V2000
   -3.0760   -3.6390    1.5496 H   0  0  0  0  0  0  0  0  0  0  0  0
   -3.0940   -2.6290    1.1426 C   0  0  0  0  0  0  0  0  0  0  0  0
   -3.7160   -1.9930    1.7706 H   0  0  0  0  0  0  0  0  0  0  0  0
   -3.4880   -2.6500    0.1286 H   0  0  0  0  0  0  0  0  0  0  0  0
   -1.6860   -2.0850    1.1196 C   0  0  0  0  0  0  0  0  0  0  0  0
   -0.7540   -2.7700    1.5226 O   0  0  0  0  0  0  0  0  0  0  0  0
   -1.5320   -0.8490    0.6496 N   0  0  0  0  0  0  0  0  0  0  0  0
   -2.3500   -0.3360    0.3566 H   0  0  0  0  0  0  0  0  0  0  0  0
   -0.2470   -0.1410    0.5576 C   0  0  1  0  0  0  0  0  0  0  0  0
    0.4239   -0.7541   -0.0450 H   0  0  0  0  0  0  0  0  0  0  0  0
   -0.4317    1.2160   -0.1683 C   0  0  1  0  0  0  0  0  0  0  0  0
   -0.4940    1.0030   -1.2372 H   0  0  0  0  0  0  0  0  0  0  0  0
   -1.7324    1.9315    0.2437 C   0  0  0  0  0  0  0  0  0  0  0  0
   -1.6886    2.2346    1.2913 H   0  0  0  0  0  0  0  0  0  0  0  0
   -1.8916    2.8130   -0.3753 H   0  0  0  0  0  0  0  0  0  0  0  0
   -2.5872    1.2685    0.1048 H   0  0  0  0  0  0  0  0  0  0  0  0
    0.7942    2.1314    0.0479 C   0  0  0  0  0  0  0  0  0  0  0  0
    0.9040    2.8122   -0.7973 H   0  0  0  0  0  0  0  0  0  0  0  0
    0.6336    2.7259    0.9473 H   0  0  0  0  0  0  0  0  0  0  0  0
    2.1111    1.3658    0.2344 C   0  0  0  0  0  0  0  0  0  0  0  0
    2.3775    0.8350   -0.6794 H   0  0  0  0  0  0  0  0  0  0  0  0
    2.9075    2.0723    0.4695 H   0  0  0  0  0  0  0  0  0  0  0  0
    2.0157    0.6537    1.0549 H   0  0  0  0  0  0  0  0  0  0  0  0
    0.3833   -0.0008    1.9525 C   0  0  0  0  0  0  0  0  0  0  0  0
    1.5803   -0.2304    2.1189 O   0  0  0  0  0  0  0  0  0  0  0  0
   -0.4170    0.3858    2.9541 N   0  0  0  0  0  0  0  0  0  0  0  0
   -1.3850    0.5669    2.7398 H   0  0  0  0  0  0  0  0  0  0  0  0
    0.0265    0.5600    4.3358 C   0  0  0  0  0  0  0  0  0  0  0  0
    0.8964    1.2200    4.3632 H   0  0  0  0  0  0  0  0  0  0  0  0
   -0.7726    0.9946    4.9382 H   0  0  0  0  0  0  0  0  0  0  0  0
    0.3119   -0.4069    4.7547 H   0  0  0  0  0  0  0  0  0  0  0  0
  5  6  2  0  0  0  0
  5  7  1  0  0  0  0
  2  3  1  0  0  0  0
  2  4  1  0  0  0  0
  2  5  1  0  0  0  0
  1  2  1  0  0  0  0
 24 25  2  0  0  0  0
 24 26  1  0  0  0  0
 20 21  1  0  0  0  0
 20 22  1  0  0  0  0
 20 23  1  0  0  0  0
 17 18  1  0  0  0  0
 17 19  1  0  0  0  0
 17 20  1  0  0  0  0
 13 14  1  0  0  0  0
 13 15  1  0  0  0  0
 13 16  1  0  0  0  0
 11 12  1  0  0  0  0
 11 13  1  0  0  0  0
 11 17  1  0  0  0  0
  9 10  1  0  0  0  0
  9 11  1  0  0  0  0
  9 24  1  0  0  0  0
  7  8  1  0  0  0  0
  7  9  1  0  0  0  0
 28 29  1  0  0  0  0
 28 30  1  0  0  0  0
 28 31  1  0  0  0  0
 26 27  1  0  0  0  0
 26 28  1  0  0  0  0
M  END
$$$$
default_name
  -OEChem-02102213163D

 31 30  0     1  0  0  0  0  0999 V2000
   -3.0760   -3.6390    1.5496 H   0  0  0  0  0  0  0  0  0  0  0  0
   -3.0940   -2.6290    1.1426 C   0  0  0  0  0  0  0  0  0  0  0  0
   -3.7160   -1.9930    1.7706 H   0  0  0  0  0  0  0  0  0  0  0  0
   -3.4880   -2.6500    0.1286 H   0  0  0  0  0  0  0  0  0  0  0  0
   -1.6860   -2.0850    1.1196 C   0  0  0  0  0  0  0  0  0  0  0  0
   -0.7540   -2.7700    1.5226 O   0  0  0  0  0  0  0  0  0  0  0  0
   -1.5320   -0.8490    0.6496 N   0  0  0  0  0  0  0  0  0  0  0  0
   -2.3500   -0.3360    0.3566 H   0  0  0  0  0  0  0  0  0  0  0  0
   -0.2470   -0.1410    0.5576 C   0  0  1  0  0  0  0  0  0  0  0  0
    0.4239   -0.7541   -0.0450 H   0  0  0  0  0  0  0  0  0  0  0  0
   -0.4317    1.2160   -0.1683 C   0  0  1  0  0  0  0  0  0  0  0  0
   -0.4940    1.0030   -1.2372 H   0  0  0  0  0  0  0  0  0  0  0  0
   -1.7324    1.9315    0.2437 C   0  0  0  0  0  0  0  0  0  0  0  0
   -1.6886    2.2346    1.2913 H   0  0  0  0  0  0  0  0  0  0  0  0
   -1.8916    2.8130   -0.3753 H   0  0  0  0  0  0  0  0  0  0  0  0
   -2.5872    1.2685    0.1048 H   0  0  0  0  0  0  0  0  0  0  0  0
    0.7942    2.1314    0.0479 C   0  0  0  0  0  0  0  0  0  0  0  0
    0.7561    2.9740   -0.6437 H   0  0  0  0  0  0  0  0  0  0  0  0
    0.7649    2.5222    1.0650 H   0  0  0  0  0  0  0  0  0  0  0  0
    2.1393    1.4138   -0.1281 C   0  0  0  0  0  0  0  0  0  0  0  0
    2.2694    1.0937   -1.1618 H   0  0  0  0  0  0  0  0  0  0  0  0
    2.9482    2.0986    0.1271 H   0  0  0  0  0  0  0  0  0  0  0  0
    2.1884    0.5463    0.5310 H   0  0  0  0  0  0  0  0  0  0  0  0
    0.3833   -0.0008    1.9525 C   0  0  0  0  0  0  0  0  0  0  0  0
    1.5803   -0.2304    2.1189 O   0  0  0  0  0  0  0  0  0  0  0  0
   -0.4170    0.3858    2.9541 N   0  0  0  0  0  0  0  0  0  0  0  0
   -1.3850    0.5669    2.7398 H   0  0  0  0  0  0  0  0  0  0  0  0
    0.0265    0.5600    4.3358 C   0  0  0  0  0  0  0  0  0  0  0  0
    0.8964    1.2200    4.3632 H   0  0  0  0  0  0  0  0  0  0  0  0
   -0.7726    0.9946    4.9382 H   0  0  0  0  0  0  0  0  0  0  0  0
    0.3119   -0.4069    4.7547 H   0  0  0  0  0  0  0  0  0  0  0  0
  5  6  2  0  0  0  0
  5  7  1  0  0  0  0
  2  3  1  0  0  0  0
  2  4  1  0  0  0  0
  2  5  1  0  0  0  0
  1  2  1  0  0  0  0
 24 25  2  0  0  0  0
 24 26  1  0  0  0  0
 20 21  1  0  0  0  0
 20 22  1  0  0  0  0
 20 23  1  0  0  0  0
 17 18  1  0  0  0  0
 17 19  1  0  0  0  0
 17 20  1  0  0  0  0
 13 14  1  0  0  0  0
 13 15  1  0  0  0  0
 13 16  1  0  0  0  0
 11 12  1  0  0  0  0
 11 13  1  0  0  0  0
 11 17  1  0  0  0  0
  9 10  1  0  0  0  0
  9 11  1  0  0  0  0
  9 24  1  0  0  0  0
  7  8  1  0  0  0  0
  7  9  1  0  0  0  0
 28 29  1  0  0  0  0
 28 30  1  0  0  0  0
 28 31  1  0  0  0  0
 26 27  1  0  0  0  0
 26 28  1  0  0  0  0
M  END
$$$$
default_name
  -OEChem-02102213163D

 31 30  0     1  0  0  0  0  0999 V2000
   -3.0760   -3.6390    1.5496 H   0  0  0  0  0  0  0  0  0  0  0  0
   -3.0940   -2.6290    1.1426 C   0  0  0  0  0  0  0  0  0  0  0  0
   -3.7160   -1.9930    1.7706 H   0  0  0  0  0  0  0  0  0  0  0  0
   -3.4880   -2.6500    0.1286 H   0  0  0  0  0  0  0  0  0  0  0  0
   -1.6860   -2.0850    1.1196 C   0  0  0  0  0  0  0  0  0  0  0  0
   -0.7540   -2.7700    1.5226 O   0  0  0  0  0  0  0  0  0  0  0  0
   -1.5320   -0.8490    0.6496 N   0  0  0  0  0  0  0  0  0  0  0  0
   -2.3500   -0.3360    0.3566 H   0  0  0  0  0  0  0  0  0  0  0  0
   -0.2470   -0.1410    0.5576 C   0  0  1  0  0  0  0  0  0  0  0  0
    0.4239   -0.7541   -0.0450 H   0  0  0  0  0  0  0  0  0  0  0  0
   -0.4317    1.2160   -0.1683 C   0  0  1  0  0  0  0  0  0  0  0  0
   -0.4940    1.0030   -1.2372 H   0  0  0  0  0  0  0  0  0  0  0  0
   -1.7324    1.9315    0.2437 C   0  0  0  0  0  0  0  0  0  0  0  0
   -1.6886    2.2346    1.2913 H   0  0  0  0  0  0  0  0  0  0  0  0
   -1.8916    2.8130   -0.3753 H   0  0  0  0  0  0  0  0  0  0  0  0
   -2.5872    1.2685    0.1048 H   0  0  0  0  0  0  0  0  0  0  0  0
    0.7942    2.1314    0.0479 C   0  0  0  0  0  0  0  0  0  0  0  0
    0.6308    3.0935   -0.4395 H   0  0  0  0  0  0  0  0  0  0  0  0
    0.9172    2.3060    1.1168 H   0  0  0  0  0  0  0  0  0  0  0  0
    2.1091    1.5355   -0.4728 C   0  0  0  0  0  0  0  0  0  0  0  0
    2.0817    1.4387   -1.5580 H   0  0  0  0  0  0  0  0  0  0  0  0
    2.9341    2.1958   -0.2045 H   0  0  0  0  0  0  0  0  0  0  0  0
    2.2787    0.5563   -0.0236 H   0  0  0  0  0  0  0  0  0  0  0  0
    0.3833   -0.0008    1.9525 C   0  0  0  0  0  0  0  0  0  0  0  0
    1.5803   -0.2304    2.1189 O   0  0  0  0  0  0  0  0  0  0  0  0
   -0.4170    0.3858    2.9541 N   0  0  0  0  0  0  0  0  0  0  0  0
   -1.3850    0.5669    2.7398 H   0  0  0  0  0  0  0  0  0  0  0  0
    0.0265    0.5600    4.3358 C   0  0  0  0  0  0  0  0  0  0  0  0
    0.8964    1.2200    4.3632 H   0  0  0  0  0  0  0  0  0  0  0  0
   -0.7726    0.9946    4.9382 H   0  0  0  0  0  0  0  0  0  0  0  0
    0.3119   -0.4069    4.7547 H   0  0  0  0  0  0  0  0  0  0  0  0
  5  6  2  0  0  0  0
  5  7  1  0  0  0  0
  2  3  1  0  0  0  0
  2  4  1  0  0  0  0
  2  5  1  0  0  0  0
  1  2  1  0  0  0  0
 24 25  2  0  0  0  0
 24 26  1  0  0  0  0
 20 21  1  0  0  0  0
 20 22  1  0  0  0  0
 20 23  1  0  0  0  0
 17 18  1  0  0  0  0
 17 19  1  0  0  0  0
 17 20  1  0  0  0  0
 13 14  1  0  0  0  0
 13 15  1  0  0  0  0
 13 16  1  0  0  0  0
 11 12  1  0  0  0  0
 11 13  1  0  0  0  0
 11 17  1  0  0  0  0
  9 10  1  0  0  0  0
  9 11  1  0  0  0  0
  9 24  1  0  0  0  0
  7  8  1  0  0  0  0
  7  9  1  0  0  0  0
 28 29  1  0  0  0  0
 28 30  1  0  0  0  0
 28 31  1  0  0  0  0
 26 27  1  0  0  0  0
 26 28  1  0  0  0  0
M  END
$$$$
default_name
  -OEChem-02102213163D

 31 30  0     1  0  0  0  0  0999 V2000
   -3.0760   -3.6390    1.5496 H   0  0  0  0  0  0  0  0  0  0  0  0
   -3.0940   -2.6290    1.1426 C   0  0  0  0  0  0  0  0  0  0  0  0
   -3.7160   -1.9930    1.7706 H   0  0  0  0  0  0  0  0  0  0  0  0
   -3.4880   -2.6500    0.1286 H   0  0  0  0  0  0  0  0  0  0  0  0
   -1.6860   -2.0850    1.1196 C   0  0  0  0  0  0  0  0  0  0  0  0
   -0.7540   -2.7700    1.5226 O   0  0  0  0  0  0  0  0  0  0  0  0
   -1.5320   -0.8490    0.6496 N   0  0  0  0  0  0  0  0  0  0  0  0
   -2.3500   -0.3360    0.3566 H   0  0  0  0  0  0  0  0  0  0  0  0
   -0.2470   -0.1410    0.5576 C   0  0  1  0  0  0  0  0  0  0  0  0
    0.4239   -0.7541   -0.0450 H   0  0  0  0  0  0  0  0  0  0  0  0
   -0.4317    1.2160   -0.1683 C   0  0  1  0  0  0  0  0  0  0  0  0
   -0.4940    1.0030   -1.2372 H   0  0  0  0  0  0  0  0  0  0  0  0
   -1.7324    1.9315    0.2437 C   0  0  0  0  0  0  0  0  0  0  0  0
   -1.6886    2.2346    1.2913 H   0  0  0  0  0  0  0  0  0  0  0  0
   -1.8916    2.8130   -0.3753 H   0  0  0  0  0  0  0  0  0  0  0  0
   -2.5872    1.2685    0.1048 H   0  0  0  0  0  0  0  0  0  0  0  0
    0.7942    2.1314    0.0479 C   0  0  0  0  0  0  0  0  0  0  0  0
    0.5369    3.1624   -0.1985 H   0  0  0  0  0  0  0  0  0  0  0  0
    1.0801    2.0922    1.0990 H   0  0  0  0  0  0  0  0  0  0  0  0
    2.0228    1.7229   -0.7761 C   0  0  0  0  0  0  0  0  0  0  0  0
    1.8271    1.8464   -1.8411 H   0  0  0  0  0  0  0  0  0  0  0  0
    2.8662    2.3573   -0.5027 H   0  0  0  0  0  0  0  0  0  0  0  0
    2.2805    0.6832   -0.5711 H   0  0  0  0  0  0  0  0  0  0  0  0
    0.3833   -0.0008    1.9525 C   0  0  0  0  0  0  0  0  0  0  0  0
    1.5803   -0.2304    2.1189 O   0  0  0  0  0  0  0  0  0  0  0  0
   -0.4170    0.3858    2.9541 N   0  0  0  0  0  0  0  0  0  0  0  0
   -1.3850    0.5669    2.7398 H   0  0  0  0  0  0  0  0  0  0  0  0
    0.0265    0.5600    4.3358 C   0  0  0  0  0  0  0  0  0  0  0  0
    0.8964    1.2200    4.3632 H   0  0  0  0  0  0  0  0  0  0  0  0
   -0.7726    0.9946    4.9382 H   0  0  0  0  0  0  0  0  0  0  0  0
    0.3119   -0.4069    4.7547 H   0  0  0  0  0  0  0  0  0  0  0  0
  5  6  2  0  0  0  0
  5  7  1  0  0  0  0
  2  3  1  0  0  0  0
  2  4  1  0  0  0  0
  2  5  1  0  0  0  0
  1  2  1  0  0  0  0
 24 25  2  0  0  0  0
 24 26  1  0  0  0  0
 20 21  1  0  0  0  0
 20 22  1  0  0  0  0
 20 23  1  0  0  0  0
 17 18  1  0  0  0  0
 17 19  1  0  0  0  0
 17 20  1  0  0  0  0
 13 14  1  0  0  0  0
 13 15  1  0  0  0  0
 13 16  1  0  0  0  0
 11 12  1  0  0  0  0
 11 13  1  0  0  0  0
 11 17  1  0  0  0  0
  9 10  1  0  0  0  0
  9 11  1  0  0  0  0
  9 24  1  0  0  0  0
  7  8  1  0  0  0  0
  7  9  1  0  0  0  0
 28 29  1  0  0  0  0
 28 30  1  0  0  0  0
 28 31  1  0  0  0  0
 26 27  1  0  0  0  0
 26 28  1  0  0  0  0
M  END
$$$$
default_name
  -OEChem-02102213163D

 31 30  0     1  0  0  0  0  0999 V2000
   -3.0760   -3.6390    1.5496 H   0  0  0  0  0  0  0  0  0  0  0  0
   -3.0940   -2.6290    1.1426 C   0  0  0  0  0  0  0  0  0  0  0  0
   -3.7160   -1.9930    1.7706 H   0  0  0  0  0  0  0  0  0  0  0  0
   -3.4880   -2.6500    0.1286 H   0  0  0  0  0  0  0  0  0  0  0  0
   -1.6860   -2.0850    1.1196 C   0  0  0  0  0  0  0  0  0  0  0  0
   -0.7540   -2.7700    1.5226 O   0  0  0  0  0  0  0  0  0  0  0  0
   -1.5320   -0.8490    0.6496 N   0  0  0  0  0  0  0  0  0  0  0  0
   -2.3500   -0.3360    0.3566 H   0  0  0  0  0  0  0  0  0  0  0  0
   -0.2470   -0.1410    0.5576 C   0  0  1  0  0  0  0  0  0  0  0  0
    0.4239   -0.7541   -0.0450 H   0  0  0  0  0  0  0  0  0  0  0  0
   -0.4317    1.2160   -0.1683 C   0  0  1  0  0  0  0  0  0  0  0  0
   -0.4940    1.0030   -1.2372 H   0  0  0  0  0  0  0  0  0  0  0  0
   -1.7324    1.9315    0.2437 C   0  0  0  0  0  0  0  0  0  0  0  0
   -1.6886    2.2346    1.2913 H   0  0  0  0  0  0  0  0  0  0  0  0
   -1.8916    2.8130   -0.3753 H   0  0  0  0  0  0  0  0  0  0  0  0
   -2.5872    1.2685    0.1048 H   0  0  0  0  0  0  0  0  0  0  0  0
    0.7942    2.1314    0.0479 C   0  0  0  0  0  0  0  0  0  0  0  0
    0.4806    3.1760    0.0628 H   0  0  0  0  0  0  0  0  0  0  0  0
    1.2424    1.8951    1.0130 H   0  0  0  0  0  0  0  0  0  0  0  0
    1.8860    1.9629   -1.0173 C   0  0  0  0  0  0  0  0  0  0  0  0
    1.5230    2.2892   -1.9918 H   0  0  0  0  0  0  0  0  0  0  0  0
    2.7489    2.5721   -0.7471 H   0  0  0  0  0  0  0  0  0  0  0  0
    2.1938    0.9183   -1.0742 H   0  0  0  0  0  0  0  0  0  0  0  0
    0.3833   -0.0008    1.9525 C   0  0  0  0  0  0  0  0  0  0  0  0
    1.5803   -0.2304    2.1189 O   0  0  0  0  0  0  0  0  0  0  0  0
   -0.4170    0.3858    2.9541 N   0  0  0  0  0  0  0  0  0  0  0  0
   -1.3850    0.5669    2.7398 H   0  0  0  0  0  0  0  0  0  0  0  0
    0.0265    0.5600    4.3358 C   0  0  0  0  0  0  0  0  0  0  0  0
    0.8964    1.2200    4.3632 H   0  0  0  0  0  0  0  0  0  0  0  0
   -0.7726    0.9946    4.9382 H   0  0  0  0  0  0  0  0  0  0  0  0
    0.3119   -0.4069    4.7547 H   0  0  0  0  0  0  0  0  0  0  0  0
  5  6  2  0  0  0  0
  5  7  1  0  0  0  0
  2  3  1  0  0  0  0
  2  4  1  0  0  0  0
  2  5  1  0  0  0  0
  1  2  1  0  0  0  0
 24 25  2  0  0  0  0
 24 26  1  0  0  0  0
 20 21  1  0  0  0  0
 20 22  1  0  0  0  0
 20 23  1  0  0  0  0
 17 18  1  0  0  0  0
 17 19  1  0  0  0  0
 17 20  1  0  0  0  0
 13 14  1  0  0  0  0
 13 15  1  0  0  0  0
 13 16  1  0  0  0  0
 11 12  1  0  0  0  0
 11 13  1  0  0  0  0
 11 17  1  0  0  0  0
  9 10  1  0  0  0  0
  9 11  1  0  0  0  0
  9 24  1  0  0  0  0
  7  8  1  0  0  0  0
  7  9  1  0  0  0  0
 28 29  1  0  0  0  0
 28 30  1  0  0  0  0
 28 31  1  0  0  0  0
 26 27  1  0  0  0  0
 26 28  1  0  0  0  0
M  END
$$$$
default_name
  -OEChem-02102213163D

 31 30  0     1  0  0  0  0  0999 V2000
   -3.0760   -3.6390    1.5496 H   0  0  0  0  0  0  0  0  0  0  0  0
   -3.0940   -2.6290    1.1426 C   0  0  0  0  0  0  0  0  0  0  0  0
   -3.7160   -1.9930    1.7706 H   0  0  0  0  0  0  0  0  0  0  0  0
   -3.4880   -2.6500    0.1286 H   0  0  0  0  0  0  0  0  0  0  0  0
   -1.6860   -2.0850    1.1196 C   0  0  0  0  0  0  0  0  0  0  0  0
   -0.7540   -2.7700    1.5226 O   0  0  0  0  0  0  0  0  0  0  0  0
   -1.5320   -0.8490    0.6496 N   0  0  0  0  0  0  0  0  0  0  0  0
   -2.3500   -0.3360    0.3566 H   0  0  0  0  0  0  0  0  0  0  0  0
   -0.2470   -0.1410    0.5576 C   0  0  1  0  0  0  0  0  0  0  0  0
    0.4239   -0.7541   -0.0450 H   0  0  0  0  0  0  0  0  0  0  0  0
   -0.4317    1.2160   -0.1683 C   0  0  1  0  0  0  0  0  0  0  0  0
   -0.4940    1.0030   -1.2372 H   0  0  0  0  0  0  0  0  0  0  0  0
   -1.7324    1.9315    0.2437 C   0  0  0  0  0  0  0  0  0  0  0  0
   -1.6886    2.2346    1.2913 H   0  0  0  0  0  0  0  0  0  0  0  0
   -1.8916    2.8130   -0.3753 H   0  0  0  0  0  0  0  0  0  0  0  0
   -2.5872    1.2685    0.1048 H   0  0  0  0  0  0  0  0  0  0  0  0
    0.7942    2.1314    0.0479 C   0  0  0  0  0  0  0  0  0  0  0  0
    0.4658    3.1335    0.3267 H   0  0  0  0  0  0  0  0  0  0  0  0
    1.3931    1.7283    0.8645 H   0  0  0  0  0  0  0  0  0  0  0  0
    1.7083    2.2394   -1.1801 C   0  0  0  0  0  0  0  0  0  0  0  0
    1.1901    2.7369   -1.9998 H   0  0  0  0  0  0  0  0  0  0  0  0
    2.5904    2.8255   -0.9212 H   0  0  0  0  0  0  0  0  0  0  0  0
    2.0243    1.2454   -1.4985 H   0  0  0  0  0  0  0  0  0  0  0  0
    0.3833   -0.0008    1.9525 C   0  0  0  0  0  0  0  0  0  0  0  0
    1.5803   -0.2304    2.1189 O   0  0  0  0  0  0  0  0  0  0  0  0
   -0.4170    0.3858    2.9541 N   0  0  0  0  0  0  0  0  0  0  0  0
   -1.3850    0.5669    2.7398 H   0  0  0  0  0  0  0  0  0  0  0  0
    0.0265    0.5600    4.3358 C   0  0  0  0  0  0  0  0  0  0  0  0
    0.8964    1.2200    4.3632 H   0  0  0  0  0  0  0  0  0  0  0  0
   -0.7726    0.9946    4.9382 H   0  0  0  0  0  0  0  0  0  0  0  0
    0.3119   -0.4069    4.7547 H   0  0  0  0  0  0  0  0  0  0  0  0
  5  6  2  0  0  0  0
  5  7  1  0  0  0  0
  2  3  1  0  0  0  0
  2  4  1  0  0  0  0
  2  5  1  0  0  0  0
  1  2  1  0  0  0  0
 24 25  2  0  0  0  0
 24 26  1  0  0  0  0
 20 21  1  0  0  0  0
 20 22  1  0  0  0  0
 20 23  1  0  0  0  0
 17 18  1  0  0  0  0
 17 19  1  0  0  0  0
 17 20  1  0  0  0  0
 13 14  1  0  0  0  0
 13 15  1  0  0  0  0
 13 16  1  0  0  0  0
 11 12  1  0  0  0  0
 11 13  1  0  0  0  0
 11 17  1  0  0  0  0
  9 10  1  0  0  0  0
  9 11  1  0  0  0  0
  9 24  1  0  0  0  0
  7  8  1  0  0  0  0
  7  9  1  0  0  0  0
 28 29  1  0  0  0  0
 28 30  1  0  0  0  0
 28 31  1  0  0  0  0
 26 27  1  0  0  0  0
 26 28  1  0  0  0  0
M  END
$$$$
default_name
  -OEChem-02102213163D

 31 30  0     1  0  0  0  0  0999 V2000
   -3.0760   -3.6390    1.5496 H   0  0  0  0  0  0  0  0  0  0  0  0
   -3.0940   -2.6290    1.1426 C   0  0  0  0  0  0  0  0  0  0  0  0
   -3.7160   -1.9930    1.7706 H   0  0  0  0  0  0  0  0  0  0  0  0
   -3.4880   -2.6500    0.1286 H   0  0  0  0  0  0  0  0  0  0  0  0
   -1.6860   -2.0850    1.1196 C   0  0  0  0  0  0  0  0  0  0  0  0
   -0.7540   -2.7700    1.5226 O   0  0  0  0  0  0  0  0  0  0  0  0
   -1.5320   -0.8490    0.6496 N   0  0  0  0  0  0  0  0  0  0  0  0
   -2.3500   -0.3360    0.3566 H   0  0  0  0  0  0  0  0  0  0  0  0
   -0.2470   -0.1410    0.5576 C   0  0  1  0  0  0  0  0  0  0  0  0
    0.4239   -0.7541   -0.0450 H   0  0  0  0  0  0  0  0  0  0  0  0
   -0.4317    1.2160   -0.1683 C   0  0  1  0  0  0  0  0  0  0  0  0
   -0.4940    1.0030   -1.2372 H   0  0  0  0  0  0  0  0  0  0  0  0
   -1.7324    1.9315    0.2437 C   0  0  0  0  0  0  0  0  0  0  0  0
   -1.6886    2.2346    1.2913 H   0  0  0  0  0  0  0  0  0  0  0  0
   -1.8916    2.8130   -0.3753 H   0  0  0  0  0  0  0  0  0  0  0  0
   -2.5872    1.2685    0.1048 H   0  0  0  0  0  0  0  0  0  0  0  0
    0.7942    2.1314    0.0479 C   0  0  0  0  0  0  0  0  0  0  0  0
    0.4934    3.0378    0.5751 H   0  0  0  0  0  0  0  0  0  0  0  0
    1.5220    1.6031    0.6638 H   0  0  0  0  0  0  0  0  0  0  0  0
    1.5016    2.5335   -1.2533 C   0  0  0  0  0  0  0  0  0  0  0  0
    0.8512    3.1589   -1.8645 H   0  0  0  0  0  0  0  0  0  0  0  0
    2.4014    3.1002   -1.0129 H   0  0  0  0  0  0  0  0  0  0  0  0
    1.7837    1.6425   -1.8153 H   0  0  0  0  0  0  0  0  0  0  0  0
    0.3833   -0.0008    1.9525 C   0  0  0  0  0  0  0  0  0  0  0  0
    1.5803   -0.2304    2.1189 O   0  0  0  0  0  0  0  0  0  0  0  0
   -0.4170    0.3858    2.9541 N   0  0  0  0  0  0  0  0  0  0  0  0
   -1.3850    0.5669    2.7398 H   0  0  0  0  0  0  0  0  0  0  0  0
    0.0265    0.5600    4.3358 C   0  0  0  0  0  0  0  0  0  0  0  0
    0.8964    1.2200    4.3632 H   0  0  0  0  0  0  0  0  0  0  0  0
   -0.7726    0.9946    4.9382 H   0  0  0  0  0  0  0  0  0  0  0  0
    0.3119   -0.4069    4.7547 H   0  0  0  0  0  0  0  0  0  0  0  0
  5  6  2  0  0  0  0
  5  7  1  0  0  0  0
  2  3  1  0  0  0  0
  2  4  1  0  0  0  0
  2  5  1  0  0  0  0
  1  2  1  0  0  0  0
 24 25  2  0  0  0  0
 24 26  1  0  0  0  0
 20 21  1  0  0  0  0
 20 22  1  0  0  0  0
 20 23  1  0  0  0  0
 17 18  1  0  0  0  0
 17 19  1  0  0  0  0
 17 20  1  0  0  0  0
 13 14  1  0  0  0  0
 13 15  1  0  0  0  0
 13 16  1  0  0  0  0
 11 12  1  0  0  0  0
 11 13  1  0  0  0  0
 11 17  1  0  0  0  0
  9 10  1  0  0  0  0
  9 11  1  0  0  0  0
  9 24  1  0  0  0  0
  7  8  1  0  0  0  0
  7  9  1  0  0  0  0
 28 29  1  0  0  0  0
 28 30  1  0  0  0  0
 28 31  1  0  0  0  0
 26 27  1  0  0  0  0
 26 28  1  0  0  0  0
M  END
$$$$
default_name
  -OEChem-02102213163D

 31 30  0     1  0  0  0  0  0999 V2000
   -3.0760   -3.6390    1.5496 H   0  0  0  0  0  0  0  0  0  0  0  0
   -3.0940   -2.6290    1.1426 C   0  0  0  0  0  0  0  0  0  0  0  0
   -3.7160   -1.9930    1.7706 H   0  0  0  0  0  0  0  0  0  0  0  0
   -3.4880   -2.6500    0.1286 H   0  0  0  0  0  0  0  0  0  0  0  0
   -1.6860   -2.0850    1.1196 C   0  0  0  0  0  0  0  0  0  0  0  0
   -0.7540   -2.7700    1.5226 O   0  0  0  0  0  0  0  0  0  0  0  0
   -1.5320   -0.8490    0.6496 N   0  0  0  0  0  0  0  0  0  0  0  0
   -2.3500   -0.3360    0.3566 H   0  0  0  0  0  0  0  0  0  0  0  0
   -0.2470   -0.1410    0.5576 C   0  0  1  0  0  0  0  0  0  0  0  0
    0.4239   -0.7541   -0.0450 H   0  0  0  0  0  0  0  0  0  0  0  0
   -0.4317    1.2160   -0.1683 C   0  0  1  0  0  0  0  0  0  0  0  0
   -0.4940    1.0030   -1.2372 H   0  0  0  0  0  0  0  0  0  0  0  0
   -1.7324    1.9315    0.2437 C   0  0  0  0  0  0  0  0  0  0  0  0
   -1.6886    2.2346    1.2913 H   0  0  0  0  0  0  0  0  0  0  0  0
   -1.8916    2.8130   -0.3753 H   0  0  0  0  0  0  0  0  0  0  0  0
   -2.5872    1.2685    0.1048 H   0  0  0  0  0  0  0  0  0  0  0  0
    0.7942    2.1314    0.0479 C   0  0  0  0  0  0  0  0  0  0  0  0
    0.5618    2.8953    0.7911 H   0  0  0  0  0  0  0  0  0  0  0  0
    1.6203    1.5281    0.4244 H   0  0  0  0  0  0  0  0  0  0  0  0
    1.2801    2.8251   -1.2319 C   0  0  0  0  0  0  0  0  0  0  0  0
    0.5292    3.5264   -1.5953 H   0  0  0  0  0  0  0  0  0  0  0  0
    2.1949    3.3776   -1.0162 H   0  0  0  0  0  0  0  0  0  0  0  0
    1.4883    2.0823   -2.0028 H   0  0  0  0  0  0  0  0  0  0  0  0
    0.3833   -0.0008    1.9525 C   0  0  0  0  0  0  0  0  0  0  0  0
    1.5803   -0.2304    2.1189 O   0  0  0  0  0  0  0  0  0  0  0  0
   -0.4170    0.3858    2.9541 N   0  0  0  0  0  0  0  0  0  0  0  0
   -1.3850    0.5669    2.7398 H   0  0  0  0  0  0  0  0  0  0  0  0
    0.0265    0.5600    4.3358 C   0  0  0  0  0  0  0  0  0  0  0  0
    0.8964    1.2200    4.3632 H   0  0  0  0  0  0  0  0  0  0  0  0
   -0.7726    0.9946    4.9382 H   0  0  0  0  0  0  0  0  0  0  0  0
    0.3119   -0.4069    4.7547 H   0  0  0  0  0  0  0  0  0  0  0  0
  5  6  2  0  0  0  0
  5  7  1  0  0  0  0
  2  3  1  0  0  0  0
  2  4  1  0  0  0  0
  2  5  1  0  0  0  0
  1  2  1  0  0  0  0
 24 25  2  0  0  0  0
 24 26  1  0  0  0  0
 20 21  1  0  0  0  0
 20 22  1  0  0  0  0
 20 23  1  0  0  0  0
 17 18  1  0  0  0  0
 17 19  1  0  0  0  0
 17 20  1  0  0  0  0
 13 14  1  0  0  0  0
 13 15  1  0  0  0  0
 13 16  1  0  0  0  0
 11 12  1  0  0  0  0
 11 13  1  0  0  0  0
 11 17  1  0  0  0  0
  9 10  1  0  0  0  0
  9 11  1  0  0  0  0
  9 24  1  0  0  0  0
  7  8  1  0  0  0  0
  7  9  1  0  0  0  0
 28 29  1  0  0  0  0
 28 30  1  0  0  0  0
 28 31  1  0  0  0  0
 26 27  1  0  0  0  0
 26 28  1  0  0  0  0
M  END
$$$$
default_name
  -OEChem-02102213163D

 31 30  0     1  0  0  0  0  0999 V2000
   -3.0760   -3.6390    1.5496 H   0  0  0  0  0  0  0  0  0  0  0  0
   -3.0940   -2.6290    1.1426 C   0  0  0  0  0  0  0  0  0  0  0  0
   -3.7160   -1.9930    1.7706 H   0  0  0  0  0  0  0  0  0  0  0  0
   -3.4880   -2.6500    0.1286 H   0  0  0  0  0  0  0  0  0  0  0  0
   -1.6860   -2.0850    1.1196 C   0  0  0  0  0  0  0  0  0  0  0  0
   -0.7540   -2.7700    1.5226 O   0  0  0  0  0  0  0  0  0  0  0  0
   -1.5320   -0.8490    0.6496 N   0  0  0  0  0  0  0  0  0  0  0  0
   -2.3500   -0.3360    0.3566 H   0  0  0  0  0  0  0  0  0  0  0  0
   -0.2470   -0.1410    0.5576 C   0  0  1  0  0  0  0  0  0  0  0  0
    0.4239   -0.7541   -0.0450 H   0  0  0  0  0  0  0  0  0  0  0  0
   -0.4317    1.2160   -0.1683 C   0  0  1  0  0  0  0  0  0  0  0  0
   -0.4940    1.0030   -1.2372 H   0  0  0  0  0  0  0  0  0  0  0  0
   -1.7324    1.9315    0.2437 C   0  0  0  0  0  0  0  0  0  0  0  0
   -1.6886    2.2346    1.2913 H   0  0  0  0  0  0  0  0  0  0  0  0
   -1.8916    2.8130   -0.3753 H   0  0  0  0  0  0  0  0  0  0  0  0
   -2.5872    1.2685    0.1048 H   0  0  0  0  0  0  0  0  0  0  0  0
    0.7942    2.1314    0.0479 C   0  0  0  0  0  0  0  0  0  0  0  0
    0.6660    2.7157    0.9601 H   0  0  0  0  0  0  0  0  0  0  0  0
    1.6812    1.5084    0.1627 H   0  0  0  0  0  0  0  0  0  0  0  0
    1.0589    3.0943   -1.1174 C   0  0  0  0  0  0  0  0  0  0  0  0
    0.2462    3.8145   -1.2104 H   0  0  0  0  0  0  0  0  0  0  0  0
    1.9848    3.6387   -0.9307 H   0  0  0  0  0  0  0  0  0  0  0  0
    1.1584    2.5349   -2.0483 H   0  0  0  0  0  0  0  0  0  0  0  0
    0.3833   -0.0008    1.9525 C   0  0  0  0  0  0  0  0  0  0  0  0
    1.5803   -0.2304    2.1189 O   0  0  0  0  0  0  0  0  0  0  0  0
   -0.4170    0.3858    2.9541 N   0  0  0  0  0  0  0  0  0  0  0  0
   -1.3850    0.5669    2.7398 H   0  0  0  0  0  0  0  0  0  0  0  0
    0.0265    0.5600    4.3358 C   0  0  0  0  0  0  0  0  0  0  0  0
    0.8964    1.2200    4.3632 H   0  0  0  0  0  0  0  0  0  0  0  0
   -0.7726    0.9946    4.9382 H   0  0  0  0  0  0  0  0  0  0  0  0
    0.3119   -0.4069    4.7547 H   0  0  0  0  0  0  0  0  0  0  0  0
  5  6  2  0  0  0  0
  5  7  1  0  0  0  0
  2  3  1  0  0  0  0
  2  4  1  0  0  0  0
  2  5  1  0  0  0  0
  1  2  1  0  0  0  0
 24 25  2  0  0  0  0
 24 26  1  0  0  0  0
 20 21  1  0  0  0  0
 20 22  1  0  0  0  0
 20 23  1  0  0  0  0
 17 18  1  0  0  0  0
 17 19  1  0  0  0  0
 17 20  1  0  0  0  0
 13 14  1  0  0  0  0
 13 15  1  0  0  0  0
 13 16  1  0  0  0  0
 11 12  1  0  0  0  0
 11 13  1  0  0  0  0
 11 17  1  0  0  0  0
  9 10  1  0  0  0  0
  9 11  1  0  0  0  0
  9 24  1  0  0  0  0
  7  8  1  0  0  0  0
  7  9  1  0  0  0  0
 28 29  1  0  0  0  0
 28 30  1  0  0  0  0
 28 31  1  0  0  0  0
 26 27  1  0  0  0  0
 26 28  1  0  0  0  0
M  END
$$$$
default_name
  -OEChem-02102213163D

 31 30  0     1  0  0  0  0  0999 V2000
   -3.0760   -3.6390    1.5496 H   0  0  0  0  0  0  0  0  0  0  0  0
   -3.0940   -2.6290    1.1426 C   0  0  0  0  0  0  0  0  0  0  0  0
   -3.7160   -1.9930    1.7706 H   0  0  0  0  0  0  0  0  0  0  0  0
   -3.4880   -2.6500    0.1286 H   0  0  0  0  0  0  0  0  0  0  0  0
   -1.6860   -2.0850    1.1196 C   0  0  0  0  0  0  0  0  0  0  0  0
   -0.7540   -2.7700    1.5226 O   0  0  0  0  0  0  0  0  0  0  0  0
   -1.5320   -0.8490    0.6496 N   0  0  0  0  0  0  0  0  0  0  0  0
   -2.3500   -0.3360    0.3566 H   0  0  0  0  0  0  0  0  0  0  0  0
   -0.2470   -0.1410    0.5576 C   0  0  1  0  0  0  0  0  0  0  0  0
    0.4239   -0.7541   -0.0450 H   0  0  0  0  0  0  0  0  0  0  0  0
   -0.4317    1.2160   -0.1683 C   0  0  1  0  0  0  0  0  0  0  0  0
   -0.4940    1.0030   -1.2372 H   0  0  0  0  0  0  0  0  0  0  0  0
   -1.7324    1.9315    0.2437 C   0  0  0  0  0  0  0  0  0  0  0  0
   -1.6886    2.2346    1.2913 H   0  0  0  0  0  0  0  0  0  0  0  0
   -1.8916    2.8130   -0.3753 H   0  0  0  0  0  0  0  0  0  0  0  0
   -2.5872    1.2685    0.1048 H   0  0  0  0  0  0  0  0  0  0  0  0
    0.7942    2.1314    0.0479 C   0  0  0  0  0  0  0  0  0  0  0  0
    0.7991    2.5114    1.0704 H   0  0  0  0  0  0  0  0  0  0  0  0
    1.7006    1.5452   -0.1035 H   0  0  0  0  0  0  0  0  0  0  0  0
    0.8530    3.3228   -0.9176 C   0  0  0  0  0  0  0  0  0  0  0  0
    0.0214    4.0035   -0.7360 H   0  0  0  0  0  0  0  0  0  0  0  0
    1.7856    3.8657   -0.7623 H   0  0  0  0  0  0  0  0  0  0  0  0
    0.8163    2.9695   -1.9487 H   0  0  0  0  0  0  0  0  0  0  0  0
    0.3833   -0.0008    1.9525 C   0  0  0  0  0  0  0  0  0  0  0  0
    1.5803   -0.2304    2.1189 O   0  0  0  0  0  0  0  0  0  0  0  0
   -0.4170    0.3858    2.9541 N   0  0  0  0  0  0  0  0  0  0  0  0
   -1.3850    0.5669    2.7398 H   0  0  0  0  0  0  0  0  0  0  0  0
    0.0265    0.5600    4.3358 C   0  0  0  0  0  0  0  0  0  0  0  0
    0.8964    1.2200    4.3632 H   0  0  0  0  0  0  0  0  0  0  0  0
   -0.7726    0.9946    4.9382 H   0  0  0  0  0  0  0  0  0  0  0  0
    0.3119   -0.4069    4.7547 H   0  0  0  0  0  0  0  0  0  0  0  0
  5  6  2  0  0  0  0
  5  7  1  0  0  0  0
  2  3  1  0  0  0  0
  2  4  1  0  0  0  0
  2  5  1  0  0  0  0
  1  2  1  0  0  0  0
 24 25  2  0  0  0  0
 24 26  1  0  0  0  0
 20 21  1  0  0  0  0
 20 22  1  0  0  0  0
 20 23  1  0  0  0  0
 17 18  1  0  0  0  0
 17 19  1  0  0  0  0
 17 20  1  0  0  0  0
 13 14  1  0  0  0  0
 13 15  1  0  0  0  0
 13 16  1  0  0  0  0
 11 12  1  0  0  0  0
 11 13  1  0  0  0  0
 11 17  1  0  0  0  0
  9 10  1  0  0  0  0
  9 11  1  0  0  0  0
  9 24  1  0  0  0  0
  7  8  1  0  0  0  0
  7  9  1  0  0  0  0
 28 29  1  0  0  0  0
 28 30  1  0  0  0  0
 28 31  1  0  0  0  0
 26 27  1  0  0  0  0
 26 28  1  0  0  0  0
M  END
$$$$
